TITL C-3866670-4165-341 -0.182642053756787 125000 -238.220018705347 0 0 40 (C1) n - 1
REM
REM in /home/nfs/bkarasulu/CARBON/AIRSS/Generating-Clusters/LCBOP/Only-C1/SD-CG/FIRE-CG
REM
REM
REM
REM
REM
REM ./C.cell (11c1c37f851c82e70ff6c80c92926a4b)
REM AIRSS Version 0.9.1 bugfix July 2018 build 013d7b7c2542+ Fri, 06 Jul 2018 19:26:36 +0100
REM compiler GCC version 9.2.1 20190827 (Red Hat 9.2.1-1)
REM options -cpp -mtune=generic -march=x86-64 -g -O0 -fpre-include=/usr/include/finclude/math-vector-fortran.h
REM seed 1310040406 1909807348 -2021379789 -1971929906 1133214713 889904049 -1465427422 1998065392 -624907094 977946541 -551453514 239875174 -100379747 -1143363315 -1587126488 -1473213367 1468568180 -2141475365 481688103 -548577047 -618561268 1024346502 -1329597749 606151301 -1964595718 394601705 1752193868 631463884 -814287835 -1616281898 -848331010 1830947079 -1478083789
REM
CELL 1.54180   50.00000   50.00000   50.00000   90.00000   90.00000   90.00000
LATT -1
SFAC C  
C      1  0.5109370000000  0.5215010000000  0.5114140000000 1.0
C      1  0.5055290000000  0.4721770000000  0.5797020000000 1.0
C      1  0.4716500000000  0.5371370000000  0.5724170000000 1.0
C      1  0.5153290000000  0.4125440000000  0.5122790000000 1.0
C      1  0.4685490000000  0.5181610000000  0.4584720000000 1.0
C      1  0.5030750000000  0.4970880000000  0.5708330000000 1.0
C      1  0.4324230000000  0.5352580000000  0.5402480000000 1.0
C      1  0.5189700000000  0.4294760000000  0.4893800000000 1.0
C      1  0.5352020000000  0.4271720000000  0.4669980000000 1.0
C      1  0.5222430000000  0.5692610000000  0.5706750000000 1.0
C      1  0.5327450000000  0.4860390000000  0.4710140000000 1.0
C      1  0.5086980000000  0.4796780000000  0.4859010000000 1.0
C      1  0.4454400000000  0.5090330000000  0.4998810000000 1.0
C      1  0.4753630000000  0.5242680000000  0.4335850000000 1.0
C      1  0.4896600000000  0.5256460000000  0.4112740000000 1.0
C      1  0.4809120000000  0.5548960000000  0.5924210000000 1.0
C      1  0.4857580000000  0.4472230000000  0.5173780000000 1.0
C      1  0.5006410000000  0.4260920000000  0.5592320000000 1.0
C      1  0.5114150000000  0.5199860000000  0.3945890000000 1.0
C      1  0.4618560000000  0.4583880000000  0.5238840000000 1.0
C      1  0.4945750000000  0.5028520000000  0.4964050000000 1.0
C      1  0.5373700000000  0.5238450000000  0.5012910000000 1.0
C      1  0.5026920000000  0.4534870000000  0.4946020000000 1.0
C      1  0.5024820000000  0.5372820000000  0.5350440000000 1.0
C      1  0.4692710000000  0.5096420000000  0.4851560000000 1.0
C      1  0.5309140000000  0.5024380000000  0.4043500000000 1.0
C      1  0.5155850000000  0.5420390000000  0.3455590000000 1.0
C      1  0.5404830000000  0.4727030000000  0.4472020000000 1.0
C      1  0.5229530000000  0.5560830000000  0.5469850000000 1.0
C      1  0.5442890000000  0.4449610000000  0.4491500000000 1.0
C      1  0.4977370000000  0.4246040000000  0.5316150000000 1.0
C      1  0.5408520000000  0.4861940000000  0.4228360000000 1.0
C      1  0.4930650000000  0.5205720000000  0.5602450000000 1.0
C      1  0.4764860000000  0.5528230000000  0.5300000000000 1.0
C      1  0.5473420000000  0.5077000000000  0.4819630000000 1.0
C      1  0.5042040000000  0.4457130000000  0.5770250000000 1.0
C      1  0.4297480000000  0.5187650000000  0.5191920000000 1.0
C      1  0.5040040000000  0.5690850000000  0.5906960000000 1.0
C      1  0.5135710000000  0.5313790000000  0.3692560000000 1.0
C      1  0.4559810000000  0.5468100000000  0.5498540000000 1.0
END
