TITL C-3866676-3738-232 -3.43609493339494 125000 -1186.89110006512 0 0 193 (C1) n - 1
REM
REM in /home/nfs/bkarasulu/CARBON/AIRSS/Generating-Clusters/LCBOP/Only-C1/SD-CG/HFTN-CG/FIRE-CG
REM
REM
REM
REM
REM
REM ./C.cell (11c1c37f851c82e70ff6c80c92926a4b)
REM AIRSS Version 0.9.1 bugfix July 2018 build 013d7b7c2542+ Fri, 06 Jul 2018 19:26:36 +0100
REM compiler GCC version 9.2.1 20190827 (Red Hat 9.2.1-1)
REM options -cpp -mtune=generic -march=x86-64 -g -O0 -fpre-include=/usr/include/finclude/math-vector-fortran.h
REM seed -2035817772 -508729352 -624733088 232463115 29215183 -1606439426 1989094118 1982770800 -182091452 2097374288 -1660773565 -2137302001 -1400973150 1501888871 -849122090 378886850 829226826 71701086 -1013507223 1504519773 995387007 663208498 -1125763740 2110856031 1606851681 -968413061 -1191603435 -1785469037 -690396158 -436728867 -1952198620 -1579260412 -2105586567
REM
CELL 1.54180   50.00000   50.00000   50.00000   90.00000   90.00000   90.00000
LATT -1
SFAC C  
C      1  0.4866770000000  0.5015590000000  0.6405730000000 1.0
C      1  0.5859510000000  0.4926450000000  0.4248220000000 1.0
C      1  0.4685710000000  0.5957560000000  0.4604130000000 1.0
C      1  0.4766720000000  0.5304370000000  0.4318680000000 1.0
C      1  0.4764110000000  0.4513050000000  0.3459290000000 1.0
C      1  0.5816810000000  0.5402550000000  0.5849000000000 1.0
C      1  0.4398880000000  0.4549670000000  0.5409080000000 1.0
C      1  0.5895960000000  0.5122530000000  0.5844250000000 1.0
C      1  0.5342600000000  0.3967800000000  0.5623790000000 1.0
C      1  0.4068810000000  0.5245480000000  0.4374160000000 1.0
C      1  0.5329520000000  0.4435700000000  0.3907450000000 1.0
C      1  0.4295610000000  0.4747200000000  0.6310200000000 1.0
C      1  0.5423010000000  0.4289550000000  0.4907370000000 1.0
C      1  0.5627740000000  0.6189830000000  0.5808890000000 1.0
C      1  0.4897750000000  0.5158670000000  0.4804050000000 1.0
C      1  0.5867680000000  0.4341820000000  0.5108920000000 1.0
C      1  0.4307270000000  0.4860790000000  0.4840220000000 1.0
C      1  0.5440000000000  0.6080990000000  0.5632090000000 1.0
C      1  0.4531970000000  0.4425140000000  0.4952980000000 1.0
C      1  0.3974450000000  0.4971500000000  0.4391100000000 1.0
C      1  0.5320260000000  0.4689570000000  0.3816610000000 1.0
C      1  0.4190850000000  0.4974460000000  0.5244420000000 1.0
C      1  0.5017430000000  0.4426950000000  0.4607440000000 1.0
C      1  0.4656700000000  0.4113480000000  0.5489460000000 1.0
C      1  0.4245770000000  0.5867180000000  0.5197250000000 1.0
C      1  0.5318260000000  0.4759050000000  0.4341080000000 1.0
C      1  0.4761030000000  0.5681550000000  0.4652940000000 1.0
C      1  0.5103950000000  0.5448450000000  0.6160990000000 1.0
C      1  0.5806920000000  0.6273370000000  0.5978650000000 1.0
C      1  0.5635960000000  0.5460800000000  0.6070010000000 1.0
C      1  0.4223800000000  0.4557860000000  0.5640180000000 1.0
C      1  0.5428650000000  0.5109830000000  0.4048770000000 1.0
C      1  0.5148530000000  0.4412700000000  0.5449850000000 1.0
C      1  0.5452040000000  0.5232470000000  0.5574570000000 1.0
C      1  0.5449130000000  0.4494560000000  0.5108170000000 1.0
C      1  0.4683760000000  0.4400530000000  0.3983400000000 1.0
C      1  0.5566200000000  0.4758930000000  0.5928560000000 1.0
C      1  0.4027650000000  0.5433670000000  0.5526950000000 1.0
C      1  0.5411700000000  0.5946700000000  0.4661110000000 1.0
C      1  0.4407910000000  0.5328630000000  0.4858360000000 1.0
C      1  0.6168420000000  0.4264810000000  0.4651330000000 1.0
C      1  0.4758780000000  0.5875080000000  0.5094250000000 1.0
C      1  0.4450820000000  0.5072090000000  0.5249290000000 1.0
C      1  0.4079470000000  0.4909480000000  0.4996170000000 1.0
C      1  0.5217660000000  0.4573270000000  0.5232230000000 1.0
C      1  0.5086180000000  0.4895730000000  0.4444170000000 1.0
C      1  0.4653050000000  0.4737950000000  0.4437980000000 1.0
C      1  0.4398250000000  0.4427270000000  0.5834360000000 1.0
C      1  0.5849560000000  0.4835280000000  0.5180730000000 1.0
C      1  0.4472080000000  0.5324590000000  0.5132450000000 1.0
C      1  0.5186970000000  0.5997410000000  0.4477620000000 1.0
C      1  0.5176700000000  0.5641160000000  0.5637270000000 1.0
C      1  0.6214740000000  0.5516970000000  0.4964780000000 1.0
C      1  0.5796870000000  0.4363490000000  0.4359600000000 1.0
C      1  0.5582590000000  0.4853510000000  0.4734230000000 1.0
C      1  0.4526820000000  0.5790850000000  0.5222370000000 1.0
C      1  0.6093070000000  0.5290840000000  0.4454460000000 1.0
C      1  0.3847420000000  0.4650560000000  0.6567110000000 1.0
C      1  0.6062450000000  0.4437010000000  0.5561640000000 1.0
C      1  0.4241370000000  0.5511760000000  0.4729850000000 1.0
C      1  0.5770470000000  0.4651400000000  0.4324130000000 1.0
C      1  0.3632010000000  0.4772820000000  0.5016660000000 1.0
C      1  0.4885210000000  0.6286730000000  0.5330420000000 1.0
C      1  0.4611220000000  0.5297650000000  0.6098990000000 1.0
C      1  0.4784680000000  0.5428670000000  0.4551540000000 1.0
C      1  0.5061220000000  0.4297610000000  0.4851130000000 1.0
C      1  0.4003800000000  0.5403680000000  0.4618470000000 1.0
C      1  0.5887680000000  0.4263760000000  0.4615210000000 1.0
C      1  0.5148570000000  0.4842770000000  0.5136710000000 1.0
C      1  0.5312870000000  0.4800500000000  0.5808630000000 1.0
C      1  0.6487090000000  0.4867080000000  0.4884390000000 1.0
C      1  0.5798410000000  0.5586470000000  0.5612270000000 1.0
C      1  0.5599470000000  0.5247440000000  0.5326330000000 1.0
C      1  0.5139450000000  0.3658730000000  0.4804600000000 1.0
C      1  0.5251020000000  0.5555550000000  0.4108100000000 1.0
C      1  0.4129620000000  0.4112200000000  0.4844220000000 1.0
C      1  0.5711720000000  0.4586710000000  0.5166010000000 1.0
C      1  0.5658250000000  0.5698670000000  0.5366300000000 1.0
C      1  0.4775560000000  0.4079650000000  0.5228290000000 1.0
C      1  0.4943350000000  0.6103110000000  0.4608920000000 1.0
C      1  0.5574820000000  0.5485420000000  0.5156550000000 1.0
C      1  0.4429760000000  0.5076110000000  0.4726870000000 1.0
C      1  0.5329940000000  0.5432550000000  0.5740950000000 1.0
C      1  0.5325770000000  0.5312230000000  0.4596650000000 1.0
C      1  0.5050760000000  0.6176520000000  0.4877150000000 1.0
C      1  0.5332530000000  0.4979470000000  0.5596650000000 1.0
C      1  0.5135850000000  0.5635730000000  0.5363460000000 1.0
C      1  0.4469010000000  0.4026160000000  0.4476920000000 1.0
C      1  0.4915360000000  0.4658120000000  0.4497590000000 1.0
C      1  0.4252900000000  0.4204210000000  0.4378380000000 1.0
C      1  0.5533900000000  0.5961400000000  0.5383060000000 1.0
C      1  0.4881040000000  0.6130070000000  0.5099390000000 1.0
C      1  0.5005180000000  0.3941760000000  0.4369560000000 1.0
C      1  0.5625230000000  0.4201830000000  0.4205090000000 1.0
C      1  0.5165240000000  0.4020290000000  0.4128670000000 1.0
C      1  0.6013610000000  0.4892180000000  0.4950780000000 1.0
C      1  0.5040590000000  0.5406120000000  0.5242610000000 1.0
C      1  0.4642490000000  0.4996120000000  0.4583740000000 1.0
C      1  0.4945950000000  0.5414960000000  0.4988020000000 1.0
C      1  0.4539660000000  0.5526040000000  0.5306530000000 1.0
C      1  0.4881650000000  0.3825580000000  0.5170080000000 1.0
C      1  0.4591340000000  0.4849720000000  0.3992540000000 1.0
C      1  0.5857760000000  0.4946660000000  0.4727850000000 1.0
C      1  0.5748900000000  0.5439330000000  0.4165220000000 1.0
C      1  0.4779070000000  0.5470910000000  0.3896240000000 1.0
C      1  0.6269950000000  0.5019250000000  0.4971590000000 1.0
C      1  0.5831920000000  0.4839870000000  0.5848990000000 1.0
C      1  0.4838690000000  0.4963390000000  0.4020940000000 1.0
C      1  0.5542550000000  0.4713610000000  0.4488540000000 1.0
C      1  0.4295780000000  0.5333640000000  0.4190010000000 1.0
C      1  0.5707030000000  0.5144900000000  0.4111940000000 1.0
C      1  0.3729580000000  0.4665840000000  0.5262700000000 1.0
C      1  0.4856680000000  0.5671800000000  0.4917460000000 1.0
C      1  0.4528310000000  0.4193660000000  0.5717480000000 1.0
C      1  0.6037710000000  0.4294930000000  0.5330390000000 1.0
C      1  0.4781090000000  0.5263290000000  0.5610730000000 1.0
C      1  0.4064680000000  0.4258470000000  0.4596700000000 1.0
C      1  0.4983510000000  0.5107420000000  0.4243130000000 1.0
C      1  0.4245560000000  0.5997860000000  0.4933920000000 1.0
C      1  0.4972780000000  0.5200800000000  0.5418440000000 1.0
C      1  0.5994570000000  0.4638920000000  0.5727990000000 1.0
C      1  0.4579030000000  0.4630130000000  0.5934150000000 1.0
C      1  0.5374760000000  0.4208590000000  0.4077720000000 1.0
C      1  0.5231960000000  0.4209400000000  0.5601970000000 1.0
C      1  0.4776250000000  0.4692130000000  0.5729680000000 1.0
C      1  0.4564440000000  0.5707490000000  0.5742760000000 1.0
C      1  0.5383280000000  0.3737060000000  0.5495060000000 1.0
C      1  0.5861640000000  0.5681670000000  0.4606610000000 1.0
C      1  0.4071070000000  0.4698550000000  0.6442070000000 1.0
C      1  0.5333450000000  0.4919590000000  0.4885650000000 1.0
C      1  0.5331770000000  0.6099260000000  0.4899320000000 1.0
C      1  0.5141030000000  0.4982730000000  0.5398000000000 1.0
C      1  0.4652850000000  0.4697370000000  0.5452610000000 1.0
C      1  0.6062400000000  0.5677500000000  0.4810310000000 1.0
C      1  0.5101480000000  0.3675670000000  0.5080440000000 1.0
C      1  0.4581270000000  0.5382740000000  0.4110170000000 1.0
C      1  0.5832410000000  0.5087440000000  0.5317960000000 1.0
C      1  0.5473880000000  0.5482480000000  0.4808330000000 1.0
C      1  0.5982530000000  0.5035220000000  0.4486990000000 1.0
C      1  0.4366280000000  0.3952650000000  0.4748110000000 1.0
C      1  0.4354530000000  0.4591550000000  0.4769880000000 1.0
C      1  0.5045950000000  0.4703420000000  0.5829880000000 1.0
C      1  0.6518790000000  0.4620750000000  0.4783320000000 1.0
C      1  0.5722700000000  0.4235980000000  0.4855830000000 1.0
C      1  0.4716370000000  0.4021020000000  0.4331140000000 1.0
C      1  0.4670990000000  0.4896370000000  0.5245970000000 1.0
C      1  0.4300380000000  0.4439700000000  0.4223800000000 1.0
C      1  0.5246840000000  0.5282270000000  0.4233960000000 1.0
C      1  0.3839160000000  0.4855280000000  0.4847820000000 1.0
C      1  0.5471850000000  0.6090240000000  0.5140310000000 1.0
C      1  0.4128120000000  0.5726370000000  0.5452800000000 1.0
C      1  0.4156780000000  0.5338200000000  0.5776800000000 1.0
C      1  0.4993280000000  0.6278440000000  0.5575290000000 1.0
C      1  0.4096510000000  0.4269510000000  0.5100200000000 1.0
C      1  0.3828790000000  0.4871470000000  0.5457930000000 1.0
C      1  0.6079750000000  0.5233630000000  0.5334540000000 1.0
C      1  0.3811560000000  0.5360270000000  0.4833690000000 1.0
C      1  0.3782900000000  0.5308350000000  0.5103260000000 1.0
C      1  0.4828160000000  0.5504180000000  0.6091850000000 1.0
C      1  0.4885320000000  0.5289430000000  0.3696730000000 1.0
C      1  0.5103760000000  0.5124530000000  0.3679290000000 1.0
C      1  0.5037700000000  0.5840860000000  0.5787450000000 1.0
C      1  0.3924180000000  0.4765060000000  0.4586090000000 1.0
C      1  0.5354940000000  0.5436030000000  0.6027550000000 1.0
C      1  0.6242880000000  0.5272060000000  0.5103640000000 1.0
C      1  0.5300220000000  0.4973690000000  0.3827420000000 1.0
C      1  0.5532350000000  0.5614190000000  0.4082560000000 1.0
C      1  0.4518180000000  0.4804970000000  0.6149780000000 1.0
C      1  0.5099820000000  0.3768570000000  0.4565990000000 1.0
C      1  0.5586880000000  0.5721690000000  0.4683420000000 1.0
C      1  0.4098600000000  0.4535850000000  0.4628670000000 1.0
C      1  0.4793300000000  0.5738850000000  0.5914250000000 1.0
C      1  0.4869900000000  0.4929010000000  0.5038830000000 1.0
C      1  0.5156770000000  0.6090980000000  0.5705830000000 1.0
C      1  0.3865060000000  0.4405490000000  0.5218130000000 1.0
C      1  0.4428670000000  0.6032510000000  0.4725780000000 1.0
C      1  0.4540260000000  0.4608510000000  0.4166040000000 1.0
C      1  0.5160440000000  0.5076220000000  0.4687220000000 1.0
C      1  0.4956700000000  0.4015510000000  0.3925860000000 1.0
C      1  0.6393390000000  0.4398830000000  0.4703190000000 1.0
C      1  0.5297060000000  0.3615320000000  0.5272360000000 1.0
C      1  0.4670660000000  0.5039580000000  0.6214800000000 1.0
C      1  0.5000150000000  0.5636620000000  0.3997410000000 1.0
C      1  0.4352620000000  0.5320350000000  0.5966660000000 1.0
C      1  0.4732550000000  0.4471250000000  0.3714660000000 1.0
C      1  0.4725200000000  0.4131290000000  0.4055450000000 1.0
C      1  0.5921050000000  0.5506800000000  0.4384560000000 1.0
C      1  0.4798620000000  0.4277320000000  0.5008150000000 1.0
C      1  0.4347690000000  0.4391350000000  0.5180670000000 1.0
C      1  0.3859500000000  0.5225980000000  0.5374290000000 1.0
C      1  0.4010480000000  0.4746890000000  0.5644750000000 1.0
C      1  0.4305920000000  0.5822620000000  0.5682250000000 1.0
C      1  0.4612940000000  0.5482660000000  0.5570980000000 1.0
END
