TITL C-3866674-3872-537 -0.0234339405187483 125000 -647.168323804595 0 0 107 (C1) n - 1
REM
REM in /home/nfs/bkarasulu/CARBON/AIRSS/Generating-Clusters/LCBOP/Only-C1/SD-CG/FIRE-CG
REM
REM
REM
REM
REM
REM ./C.cell (11c1c37f851c82e70ff6c80c92926a4b)
REM AIRSS Version 0.9.1 bugfix July 2018 build 013d7b7c2542+ Fri, 06 Jul 2018 19:26:36 +0100
REM compiler GCC version 9.2.1 20190827 (Red Hat 9.2.1-1)
REM options -cpp -mtune=generic -march=x86-64 -g -O0 -fpre-include=/usr/include/finclude/math-vector-fortran.h
REM seed 2033336274 2107262863 -825906728 141656403 412683148 -198250318 -736806104 669442771 -1919069863 -1239859241 421980333 660774530 -293164403 1465974113 -269345536 -561217526 1073157905 -411835050 1783520254 -999618657 -1560125793 -1248535286 -174622914 1842757896 -2094151879 95528141 -1077517477 -1733709102 -1598190997 -1154702067 -1463405043 461372970 -20456438
REM
CELL 1.54180   50.00000   50.00000   50.00000   90.00000   90.00000   90.00000
LATT -1
SFAC C  
C      1  0.4702910000000  0.5409910000000  0.5628370000000 1.0
C      1  0.5595010000000  0.4089400000000  0.4571130000000 1.0
C      1  0.5367530000000  0.5947310000000  0.4796130000000 1.0
C      1  0.4830410000000  0.5667190000000  0.5120940000000 1.0
C      1  0.5942070000000  0.5479240000000  0.4312880000000 1.0
C      1  0.4821100000000  0.4406770000000  0.4726320000000 1.0
C      1  0.4885680000000  0.5812200000000  0.5838260000000 1.0
C      1  0.4587010000000  0.4486970000000  0.5221080000000 1.0
C      1  0.5417930000000  0.4527800000000  0.4027190000000 1.0
C      1  0.3974330000000  0.4354840000000  0.4366790000000 1.0
C      1  0.4851160000000  0.4395340000000  0.5222600000000 1.0
C      1  0.4456530000000  0.4917420000000  0.5016190000000 1.0
C      1  0.5738800000000  0.5353370000000  0.4447290000000 1.0
C      1  0.5459600000000  0.4983650000000  0.4495920000000 1.0
C      1  0.4909040000000  0.4854220000000  0.4709840000000 1.0
C      1  0.5591580000000  0.5751170000000  0.4721630000000 1.0
C      1  0.5883440000000  0.4948760000000  0.5494860000000 1.0
C      1  0.5213310000000  0.4545640000000  0.4950430000000 1.0
C      1  0.4313930000000  0.5054170000000  0.5774640000000 1.0
C      1  0.5357530000000  0.5270880000000  0.5452010000000 1.0
C      1  0.4479350000000  0.4872410000000  0.5903340000000 1.0
C      1  0.5143640000000  0.5144320000000  0.5593970000000 1.0
C      1  0.5468580000000  0.6048460000000  0.5050660000000 1.0
C      1  0.4620020000000  0.4433300000000  0.5771820000000 1.0
C      1  0.4109050000000  0.4999540000000  0.4707910000000 1.0
C      1  0.4318610000000  0.4490850000000  0.4707490000000 1.0
C      1  0.5285460000000  0.5462420000000  0.4990160000000 1.0
C      1  0.5528150000000  0.5511120000000  0.4575740000000 1.0
C      1  0.5374730000000  0.3901840000000  0.4581380000000 1.0
C      1  0.4138880000000  0.5250160000000  0.4853140000000 1.0
C      1  0.5690920000000  0.5896640000000  0.5154860000000 1.0
C      1  0.5167400000000  0.4795560000000  0.4824880000000 1.0
C      1  0.5190430000000  0.4910000000000  0.5749940000000 1.0
C      1  0.4890950000000  0.4507240000000  0.5719930000000 1.0
C      1  0.4849330000000  0.3922250000000  0.4532270000000 1.0
C      1  0.4751990000000  0.4903130000000  0.5987570000000 1.0
C      1  0.4854150000000  0.5202730000000  0.5235790000000 1.0
C      1  0.5425560000000  0.3412020000000  0.4799750000000 1.0
C      1  0.4381770000000  0.5655490000000  0.5008190000000 1.0
C      1  0.5424250000000  0.4796750000000  0.4038340000000 1.0
C      1  0.5529770000000  0.5440240000000  0.5593880000000 1.0
C      1  0.5403640000000  0.3648900000000  0.4693350000000 1.0
C      1  0.4439820000000  0.5421870000000  0.5508040000000 1.0
C      1  0.5769420000000  0.5696320000000  0.4956910000000 1.0
C      1  0.4961970000000  0.5799340000000  0.5327260000000 1.0
C      1  0.4875170000000  0.4868870000000  0.4429880000000 1.0
C      1  0.5109110000000  0.6113460000000  0.4422020000000 1.0
C      1  0.5392860000000  0.4955660000000  0.4774390000000 1.0
C      1  0.5461150000000  0.4836110000000  0.5777760000000 1.0
C      1  0.4426680000000  0.4632730000000  0.5740830000000 1.0
C      1  0.5790230000000  0.4564280000000  0.4453510000000 1.0
C      1  0.4893660000000  0.5988750000000  0.6045790000000 1.0
C      1  0.4000740000000  0.5419610000000  0.5723300000000 1.0
C      1  0.5100710000000  0.6002220000000  0.4682000000000 1.0
C      1  0.5036940000000  0.4970570000000  0.4244030000000 1.0
C      1  0.3900180000000  0.4237040000000  0.4822650000000 1.0
C      1  0.4964610000000  0.4429300000000  0.4480860000000 1.0
C      1  0.5923780000000  0.4944630000000  0.5214330000000 1.0
C      1  0.4447030000000  0.4729080000000  0.5253370000000 1.0
C      1  0.5710580000000  0.4874650000000  0.5686610000000 1.0
C      1  0.5122740000000  0.6206840000000  0.4179110000000 1.0
C      1  0.4973320000000  0.4400670000000  0.4969980000000 1.0
C      1  0.4812620000000  0.5128800000000  0.6144290000000 1.0
C      1  0.5468590000000  0.4460190000000  0.5023480000000 1.0
C      1  0.4593790000000  0.5404410000000  0.4551810000000 1.0
C      1  0.5147410000000  0.4258150000000  0.4356360000000 1.0
C      1  0.4288080000000  0.4774990000000  0.4787250000000 1.0
C      1  0.5730110000000  0.4503230000000  0.5056190000000 1.0
C      1  0.4783080000000  0.5549000000000  0.5864870000000 1.0
C      1  0.4709150000000  0.5004730000000  0.4843690000000 1.0
C      1  0.5804250000000  0.5149220000000  0.5051760000000 1.0
C      1  0.4553450000000  0.4312170000000  0.4692190000000 1.0
C      1  0.4836040000000  0.5399850000000  0.5038320000000 1.0
C      1  0.6172920000000  0.4866000000000  0.4416800000000 1.0
C      1  0.4358990000000  0.5534980000000  0.4543120000000 1.0
C      1  0.4975890000000  0.5878640000000  0.5580900000000 1.0
C      1  0.4605110000000  0.4038260000000  0.4597270000000 1.0
C      1  0.4219150000000  0.5527670000000  0.4788280000000 1.0
C      1  0.5391730000000  0.4357730000000  0.4247890000000 1.0
C      1  0.5727050000000  0.5064250000000  0.4456050000000 1.0
C      1  0.4311780000000  0.5187310000000  0.5087580000000 1.0
C      1  0.5922840000000  0.4684210000000  0.5102140000000 1.0
C      1  0.4073390000000  0.4365530000000  0.4634840000000 1.0
C      1  0.5041180000000  0.5335970000000  0.4612610000000 1.0
C      1  0.4240120000000  0.5300110000000  0.5672010000000 1.0
C      1  0.4326400000000  0.4754510000000  0.5505820000000 1.0
C      1  0.4640160000000  0.5812770000000  0.4958620000000 1.0
C      1  0.4986040000000  0.4409170000000  0.5471930000000 1.0
C      1  0.5526330000000  0.5085530000000  0.4999240000000 1.0
C      1  0.3665220000000  0.4117270000000  0.4751030000000 1.0
C      1  0.4383520000000  0.5437810000000  0.5226450000000 1.0
C      1  0.3583100000000  0.4114810000000  0.4490300000000 1.0
C      1  0.4810370000000  0.5392980000000  0.6096920000000 1.0
C      1  0.5740930000000  0.5857750000000  0.5426030000000 1.0
C      1  0.5282820000000  0.5432900000000  0.4704530000000 1.0
C      1  0.3738650000000  0.4233910000000  0.4299650000000 1.0
C      1  0.5868240000000  0.5429470000000  0.5010800000000 1.0
C      1  0.4888460000000  0.5229230000000  0.5509840000000 1.0
C      1  0.5367320000000  0.5259510000000  0.5167760000000 1.0
C      1  0.4963040000000  0.4761210000000  0.5839890000000 1.0
C      1  0.5124560000000  0.3992830000000  0.4469360000000 1.0
C      1  0.4825690000000  0.5961990000000  0.4784430000000 1.0
C      1  0.5672400000000  0.5665180000000  0.5598430000000 1.0
C      1  0.5901790000000  0.4833140000000  0.4440740000000 1.0
C      1  0.4779090000000  0.5295480000000  0.4760640000000 1.0
C      1  0.5617940000000  0.4335320000000  0.4426780000000 1.0
C      1  0.5314990000000  0.4948240000000  0.4249600000000 1.0
END
