TITL C-3866672-3872-506 -0.0124463314307364 125000 -443.862763042644 0 0 74 (C1) n - 1
REM
REM in /home/nfs/bkarasulu/CARBON/AIRSS/Generating-Clusters/LCBOP/Only-C1/SD-CG/FIRE-CG
REM
REM
REM
REM
REM
REM ./C.cell (11c1c37f851c82e70ff6c80c92926a4b)
REM AIRSS Version 0.9.1 bugfix July 2018 build 013d7b7c2542+ Fri, 06 Jul 2018 19:26:36 +0100
REM compiler GCC version 9.2.1 20190827 (Red Hat 9.2.1-1)
REM options -cpp -mtune=generic -march=x86-64 -g -O0 -fpre-include=/usr/include/finclude/math-vector-fortran.h
REM seed 1558485006 880066077 -371419614 -1009128864 49792223 1479466833 -1884949388 433055924 -1765355053 -1342634000 -1913090589 1486757787 -1072687401 1273252295 475944493 1156655544 741720135 -2018327270 697790471 -2111806253 1869120774 -1430923931 -1289090934 347782437 459810774 1348959123 1139008934 -1940229810 -158538790 -1246228596 23367630 2117483941 -1545868326
REM
CELL 1.54180   50.00000   50.00000   50.00000   90.00000   90.00000   90.00000
LATT -1
SFAC C  
C      1  0.5400220000000  0.5205030000000  0.5451580000000 1.0
C      1  0.5301930000000  0.5304040000000  0.5717340000000 1.0
C      1  0.5599730000000  0.4994290000000  0.5524020000000 1.0
C      1  0.4734720000000  0.5149350000000  0.4409210000000 1.0
C      1  0.4843820000000  0.5674840000000  0.4523540000000 1.0
C      1  0.4526120000000  0.6026530000000  0.5425730000000 1.0
C      1  0.6072620000000  0.3720430000000  0.3956910000000 1.0
C      1  0.5127000000000  0.5633450000000  0.4551660000000 1.0
C      1  0.4477490000000  0.5468700000000  0.5464100000000 1.0
C      1  0.4494460000000  0.5298840000000  0.4509290000000 1.0
C      1  0.4695220000000  0.4915930000000  0.5400230000000 1.0
C      1  0.4192370000000  0.4961650000000  0.5355360000000 1.0
C      1  0.5333490000000  0.4352260000000  0.4413110000000 1.0
C      1  0.5097270000000  0.4421250000000  0.4273690000000 1.0
C      1  0.5523420000000  0.4186490000000  0.4293140000000 1.0
C      1  0.4074920000000  0.5434040000000  0.5242600000000 1.0
C      1  0.5090600000000  0.4635860000000  0.4089960000000 1.0
C      1  0.4709160000000  0.4911380000000  0.4254240000000 1.0
C      1  0.5474190000000  0.5737310000000  0.4924230000000 1.0
C      1  0.5262860000000  0.5388470000000  0.4479600000000 1.0
C      1  0.4768900000000  0.4696310000000  0.6023680000000 1.0
C      1  0.5305310000000  0.4601960000000  0.5565210000000 1.0
C      1  0.4869800000000  0.5123600000000  0.4676510000000 1.0
C      1  0.5177830000000  0.5051700000000  0.5298280000000 1.0
C      1  0.6252820000000  0.3567610000000  0.3846720000000 1.0
C      1  0.4525620000000  0.4828810000000  0.4670830000000 1.0
C      1  0.4136500000000  0.5167680000000  0.5160500000000 1.0
C      1  0.4792130000000  0.4869440000000  0.4789410000000 1.0
C      1  0.4811500000000  0.5397950000000  0.5121010000000 1.0
C      1  0.4559510000000  0.4710450000000  0.4406670000000 1.0
C      1  0.5281060000000  0.4308290000000  0.4901780000000 1.0
C      1  0.4907090000000  0.4832320000000  0.4072040000000 1.0
C      1  0.4359430000000  0.4271940000000  0.4343600000000 1.0
C      1  0.5377720000000  0.4450970000000  0.4675760000000 1.0
C      1  0.4926050000000  0.5552200000000  0.5579310000000 1.0
C      1  0.4788350000000  0.6004930000000  0.5485920000000 1.0
C      1  0.4639850000000  0.5517220000000  0.4652730000000 1.0
C      1  0.4881680000000  0.5159690000000  0.5902850000000 1.0
C      1  0.4254220000000  0.5609140000000  0.5369710000000 1.0
C      1  0.4186000000000  0.5122660000000  0.4887120000000 1.0
C      1  0.4000800000000  0.4767800000000  0.5393770000000 1.0
C      1  0.4969720000000  0.4870850000000  0.5913090000000 1.0
C      1  0.4299360000000  0.5888010000000  0.5371450000000 1.0
C      1  0.5268320000000  0.5794460000000  0.4738640000000 1.0
C      1  0.4361780000000  0.5080510000000  0.4672460000000 1.0
C      1  0.5495490000000  0.5438090000000  0.5298600000000 1.0
C      1  0.5698660000000  0.5371800000000  0.4669550000000 1.0
C      1  0.5706260000000  0.4031140000000  0.4180960000000 1.0
C      1  0.5490310000000  0.4938860000000  0.4592720000000 1.0
C      1  0.5228070000000  0.4279230000000  0.5163230000000 1.0
C      1  0.4594200000000  0.5182890000000  0.5901690000000 1.0
C      1  0.4799410000000  0.5353240000000  0.4847380000000 1.0
C      1  0.5417370000000  0.5690830000000  0.5198980000000 1.0
C      1  0.5680650000000  0.4633610000000  0.5231280000000 1.0
C      1  0.4440410000000  0.4961620000000  0.5799090000000 1.0
C      1  0.5194410000000  0.4920610000000  0.5051760000000 1.0
C      1  0.4579790000000  0.4431100000000  0.4366000000000 1.0
C      1  0.5229070000000  0.4371720000000  0.5415920000000 1.0
C      1  0.5003670000000  0.5820820000000  0.5509200000000 1.0
C      1  0.4506190000000  0.4725040000000  0.5947850000000 1.0
C      1  0.4433730000000  0.4944320000000  0.5510210000000 1.0
C      1  0.4973050000000  0.4926410000000  0.5453960000000 1.0
C      1  0.5482790000000  0.5221630000000  0.4561020000000 1.0
C      1  0.5092840000000  0.4775160000000  0.5669210000000 1.0
C      1  0.5001560000000  0.4766950000000  0.4937930000000 1.0
C      1  0.5697210000000  0.5599930000000  0.4813970000000 1.0
C      1  0.4743210000000  0.5447920000000  0.5388720000000 1.0
C      1  0.5242360000000  0.5844000000000  0.5359190000000 1.0
C      1  0.5889420000000  0.3875810000000  0.4068950000000 1.0
C      1  0.5033700000000  0.5366690000000  0.5770770000000 1.0
C      1  0.4842020000000  0.4326510000000  0.4348450000000 1.0
C      1  0.5530220000000  0.4690460000000  0.4727620000000 1.0
C      1  0.5684320000000  0.4676780000000  0.4965890000000 1.0
C      1  0.5556650000000  0.4720150000000  0.5471320000000 1.0
END
