TITL C-3866670-4165-62 -4.8316417961745e-07 125000 -511.950846930758 0 0 84 (C1) n - 1
REM
REM in /home/nfs/bkarasulu/CARBON/AIRSS/Generating-Clusters/LCBOP/Only-C1/SD-CG/HFTN-CG/FIRE-CG
REM
REM
REM
REM
REM
REM ./C.cell (11c1c37f851c82e70ff6c80c92926a4b)
REM AIRSS Version 0.9.1 bugfix July 2018 build 013d7b7c2542+ Fri, 06 Jul 2018 19:26:36 +0100
REM compiler GCC version 9.2.1 20190827 (Red Hat 9.2.1-1)
REM options -cpp -mtune=generic -march=x86-64 -g -O0 -fpre-include=/usr/include/finclude/math-vector-fortran.h
REM seed 1019221592 395993332 -1874672005 913006858 -97615046 -100873425 824041002 357596917 95443929 -2060352282 2144029832 -179527229 -1850872879 -1390720305 -1992903466 1262688681 -1333650620 613300424 226303109 1198826807 -1995344572 -1458832550 930122023 -1739831097 1002513771 59598371 1730385872 1595449815 -1425618688 -293240455 -119070473 -1312041883 -1678964382
REM
CELL 1.54180   50.00000   50.00000   50.00000   90.00000   90.00000   90.00000
LATT -1
SFAC C  
C      1  0.4933760000000  0.5338600000000  0.4246880000000 1.0
C      1  0.5159950000000  0.5348440000000  0.5401180000000 1.0
C      1  0.5522090000000  0.4579340000000  0.5191660000000 1.0
C      1  0.5051130000000  0.5352140000000  0.5659590000000 1.0
C      1  0.4482220000000  0.5532940000000  0.5567660000000 1.0
C      1  0.4790080000000  0.4796820000000  0.5562070000000 1.0
C      1  0.4311160000000  0.5144740000000  0.4985150000000 1.0
C      1  0.4703760000000  0.5812290000000  0.5204100000000 1.0
C      1  0.4445160000000  0.5126300000000  0.5913520000000 1.0
C      1  0.5355520000000  0.4250870000000  0.4214000000000 1.0
C      1  0.4800330000000  0.5111630000000  0.5142010000000 1.0
C      1  0.5681720000000  0.4626410000000  0.4954000000000 1.0
C      1  0.5391650000000  0.5195610000000  0.4206810000000 1.0
C      1  0.4155870000000  0.5055670000000  0.4760720000000 1.0
C      1  0.5432150000000  0.5665220000000  0.4672990000000 1.0
C      1  0.4835670000000  0.4314160000000  0.4107570000000 1.0
C      1  0.4779780000000  0.5197140000000  0.4047790000000 1.0
C      1  0.5482860000000  0.5935420000000  0.5133520000000 1.0
C      1  0.4766530000000  0.5895630000000  0.5679570000000 1.0
C      1  0.5292890000000  0.4144700000000  0.4474320000000 1.0
C      1  0.5020420000000  0.4854880000000  0.5712160000000 1.0
C      1  0.5499270000000  0.4957700000000  0.4143320000000 1.0
C      1  0.5376600000000  0.4536960000000  0.5672600000000 1.0
C      1  0.4516730000000  0.5118310000000  0.4082320000000 1.0
C      1  0.5735330000000  0.4824930000000  0.5561460000000 1.0
C      1  0.4981520000000  0.4551910000000  0.4165490000000 1.0
C      1  0.5374040000000  0.5520880000000  0.4915300000000 1.0
C      1  0.5561900000000  0.4513810000000  0.4714700000000 1.0
C      1  0.4568140000000  0.5305460000000  0.4506160000000 1.0
C      1  0.5532850000000  0.4968720000000  0.5709240000000 1.0
C      1  0.5132360000000  0.4737920000000  0.4925480000000 1.0
C      1  0.5396730000000  0.5503580000000  0.5380920000000 1.0
C      1  0.5012100000000  0.4079780000000  0.4499560000000 1.0
C      1  0.4215850000000  0.4375400000000  0.5723500000000 1.0
C      1  0.4260650000000  0.4939720000000  0.4519700000000 1.0
C      1  0.5268810000000  0.4516710000000  0.4156130000000 1.0
C      1  0.5172760000000  0.5248300000000  0.4377860000000 1.0
C      1  0.4431790000000  0.5342290000000  0.5751990000000 1.0
C      1  0.4545180000000  0.4725010000000  0.5681910000000 1.0
C      1  0.4869460000000  0.4084610000000  0.4250050000000 1.0
C      1  0.5430720000000  0.4718350000000  0.4270410000000 1.0
C      1  0.4923830000000  0.5780020000000  0.5866430000000 1.0
C      1  0.4443410000000  0.4714550000000  0.4584160000000 1.0
C      1  0.5238250000000  0.4870980000000  0.4699130000000 1.0
C      1  0.4847810000000  0.4150700000000  0.4716930000000 1.0
C      1  0.4843500000000  0.5874950000000  0.4982720000000 1.0
C      1  0.5019130000000  0.5528040000000  0.5860270000000 1.0
C      1  0.5661040000000  0.5548980000000  0.4554100000000 1.0
C      1  0.4844630000000  0.4516190000000  0.6137170000000 1.0
C      1  0.5236120000000  0.4350700000000  0.5830600000000 1.0
C      1  0.5849720000000  0.5104770000000  0.4772820000000 1.0
C      1  0.5266320000000  0.5906500000000  0.4709090000000 1.0
C      1  0.4868640000000  0.4738310000000  0.4346390000000 1.0
C      1  0.4297990000000  0.4561250000000  0.5289690000000 1.0
C      1  0.5589220000000  0.4585220000000  0.5468630000000 1.0
C      1  0.4680640000000  0.5103650000000  0.4681220000000 1.0
C      1  0.5430790000000  0.4715720000000  0.4554480000000 1.0
C      1  0.5293740000000  0.4814050000000  0.5737900000000 1.0
C      1  0.5244510000000  0.4604740000000  0.5131030000000 1.0
C      1  0.4758430000000  0.5494800000000  0.4413790000000 1.0
C      1  0.5465630000000  0.4248480000000  0.4675390000000 1.0
C      1  0.5821760000000  0.4871440000000  0.4906560000000 1.0
C      1  0.4307800000000  0.4537010000000  0.5024660000000 1.0
C      1  0.4597890000000  0.5135710000000  0.4949730000000 1.0
C      1  0.5995890000000  0.4888170000000  0.5525110000000 1.0
C      1  0.5043980000000  0.5257760000000  0.5148940000000 1.0
C      1  0.4978120000000  0.5863660000000  0.4730540000000 1.0
C      1  0.4630040000000  0.5757170000000  0.5472050000000 1.0
C      1  0.4188360000000  0.5227450000000  0.5213990000000 1.0
C      1  0.4351380000000  0.4553830000000  0.5565670000000 1.0
C      1  0.5189640000000  0.5150290000000  0.4657070000000 1.0
C      1  0.4706300000000  0.4840080000000  0.4552640000000 1.0
C      1  0.4625150000000  0.4292420000000  0.4763850000000 1.0
C      1  0.5456490000000  0.5652970000000  0.5155500000000 1.0
C      1  0.4783330000000  0.4888150000000  0.5303480000000 1.0
C      1  0.4514620000000  0.4852300000000  0.5936570000000 1.0
C      1  0.4384260000000  0.5141630000000  0.4336990000000 1.0
C      1  0.5383560000000  0.6068840000000  0.4915440000000 1.0
C      1  0.5803420000000  0.5328810000000  0.4628960000000 1.0
C      1  0.4837220000000  0.5737450000000  0.4522500000000 1.0
C      1  0.4437170000000  0.4503460000000  0.4777010000000 1.0
C      1  0.4653970000000  0.4708950000000  0.6138190000000 1.0
C      1  0.5190680000000  0.5306980000000  0.4902680000000 1.0
C      1  0.5038140000000  0.4373580000000  0.6014530000000 1.0
END
