TITL C-3866669-3764-371 0.28581089996307 125000 -168.751096738648 0 0 30 (C1) n - 1
REM
REM in /home/nfs/bkarasulu/CARBON/AIRSS/Generating-Clusters/LCBOP/Only-C1/SD-CG/FIRE-CG
REM
REM
REM
REM
REM
REM ./C.cell (11c1c37f851c82e70ff6c80c92926a4b)
REM AIRSS Version 0.9.1 bugfix July 2018 build 013d7b7c2542+ Fri, 06 Jul 2018 19:26:36 +0100
REM compiler GCC version 9.2.1 20190827 (Red Hat 9.2.1-1)
REM options -cpp -mtune=generic -march=x86-64 -g -O0 -fpre-include=/usr/include/finclude/math-vector-fortran.h
REM seed 695074882 1855257126 201633386 419178392 -1454761167 -1710945930 1399611001 750288320 -1769463666 -2124995851 -599851520 -1530341895 1899324804 1873356275 922746379 1265046900 -434415514 2031475177 -648690794 775638960 1109741679 -1184120197 853792066 -253090291 2034876188 1626441073 398930408 850618727 -131331336 -683580839 1552986242 -1561531945 -1056455476
REM
CELL 1.54180   50.00000   50.00000   50.00000   90.00000   90.00000   90.00000
LATT -1
SFAC C  
C      1  0.5216830000000  0.4938440000000  0.5685600000000 1.0
C      1  0.5081490000000  0.5307200000000  0.4018660000000 1.0
C      1  0.5331250000000  0.5164980000000  0.5608730000000 1.0
C      1  0.5635290000000  0.6189450000000  0.4239720000000 1.0
C      1  0.5468150000000  0.5537210000000  0.5264450000000 1.0
C      1  0.5532450000000  0.5986770000000  0.4367250000000 1.0
C      1  0.4705730000000  0.3709350000000  0.4850050000000 1.0
C      1  0.5481380000000  0.5661810000000  0.5030840000000 1.0
C      1  0.4773630000000  0.5472350000000  0.5137900000000 1.0
C      1  0.4285110000000  0.3968020000000  0.5274710000000 1.0
C      1  0.4952880000000  0.5234200000000  0.4475650000000 1.0
C      1  0.4792450000000  0.5317970000000  0.4923510000000 1.0
C      1  0.5422110000000  0.5769430000000  0.4503490000000 1.0
C      1  0.4659140000000  0.4423510000000  0.4982800000000 1.0
C      1  0.4771740000000  0.5619220000000  0.5358530000000 1.0
C      1  0.5417910000000  0.5368830000000  0.5462990000000 1.0
C      1  0.4939200000000  0.4503540000000  0.5597650000000 1.0
C      1  0.4752360000000  0.4875520000000  0.4733330000000 1.0
C      1  0.5465450000000  0.5738880000000  0.4777840000000 1.0
C      1  0.4784280000000  0.5758900000000  0.5578280000000 1.0
C      1  0.5100450000000  0.5373360000000  0.4283230000000 1.0
C      1  0.4691950000000  0.4634520000000  0.4825710000000 1.0
C      1  0.4843170000000  0.3633090000000  0.5300180000000 1.0
C      1  0.5082890000000  0.4709560000000  0.5682830000000 1.0
C      1  0.4546560000000  0.4000210000000  0.5200440000000 1.0
C      1  0.4667800000000  0.4256650000000  0.5206960000000 1.0
C      1  0.4701090000000  0.3776980000000  0.5115430000000 1.0
C      1  0.4798170000000  0.4346220000000  0.5437470000000 1.0
C      1  0.5267790000000  0.5581410000000  0.4366240000000 1.0
C      1  0.4831300000000  0.5142440000000  0.4709530000000 1.0
END
