TITL C-3866676-3738-145 -0.151654170769256 125000 -379.183186255549 0 0 64 (C1) n - 1
REM
REM in /home/nfs/bkarasulu/CARBON/AIRSS/Generating-Clusters/LCBOP/Only-C1/SD-CG/HFTN-CG/FIRE-CG
REM
REM
REM
REM
REM
REM ./C.cell (11c1c37f851c82e70ff6c80c92926a4b)
REM AIRSS Version 0.9.1 bugfix July 2018 build 013d7b7c2542+ Fri, 06 Jul 2018 19:26:36 +0100
REM compiler GCC version 9.2.1 20190827 (Red Hat 9.2.1-1)
REM options -cpp -mtune=generic -march=x86-64 -g -O0 -fpre-include=/usr/include/finclude/math-vector-fortran.h
REM seed 537270695 -1670597092 1660497015 -1520735090 1281870776 -1613389337 2053007570 -1674992245 -1268233931 -702329008 -1966279820 1824671328 71690880 -344247413 330071937 1110481670 372982241 1083589937 363466604 -1787543352 -980190064 1662642670 -2133556477 -1486943177 1130422990 600386018 -1729103002 -557812225 503437783 -2137204090 -291834695 -528397913 -1944426806
REM
CELL 1.54180   50.00000   50.00000   50.00000   90.00000   90.00000   90.00000
LATT -1
SFAC C  
C      1  0.4197140000000  0.5150780000000  0.4789780000000 1.0
C      1  0.4975900000000  0.5845520000000  0.4444570000000 1.0
C      1  0.4637230000000  0.4406390000000  0.4538700000000 1.0
C      1  0.5307550000000  0.5426140000000  0.4411990000000 1.0
C      1  0.5799740000000  0.5201280000000  0.4757910000000 1.0
C      1  0.4642910000000  0.5466360000000  0.4648610000000 1.0
C      1  0.4006350000000  0.4948630000000  0.5173690000000 1.0
C      1  0.6146010000000  0.5162810000000  0.5617140000000 1.0
C      1  0.5251680000000  0.4501520000000  0.5398230000000 1.0
C      1  0.4202950000000  0.4471820000000  0.5168640000000 1.0
C      1  0.4522780000000  0.4303360000000  0.5481260000000 1.0
C      1  0.4807550000000  0.5069990000000  0.4884490000000 1.0
C      1  0.4671680000000  0.5172000000000  0.4636000000000 1.0
C      1  0.4580920000000  0.5734670000000  0.4696570000000 1.0
C      1  0.5165970000000  0.5627380000000  0.5070750000000 1.0
C      1  0.5237190000000  0.5451250000000  0.4892210000000 1.0
C      1  0.4370690000000  0.5782480000000  0.4875080000000 1.0
C      1  0.4424300000000  0.5446940000000  0.5585390000000 1.0
C      1  0.4783370000000  0.4402710000000  0.4779550000000 1.0
C      1  0.4739720000000  0.5933100000000  0.4569630000000 1.0
C      1  0.4365840000000  0.4799870000000  0.4484170000000 1.0
C      1  0.4098800000000  0.5183080000000  0.5050920000000 1.0
C      1  0.5909930000000  0.4754880000000  0.5123890000000 1.0
C      1  0.4045780000000  0.4685570000000  0.5189030000000 1.0
C      1  0.5414750000000  0.5301410000000  0.4186550000000 1.0
C      1  0.4700570000000  0.4699540000000  0.4160070000000 1.0
C      1  0.5407690000000  0.5212960000000  0.5546190000000 1.0
C      1  0.5133500000000  0.5173620000000  0.5509160000000 1.0
C      1  0.5512380000000  0.5172720000000  0.3982040000000 1.0
C      1  0.5040510000000  0.4519230000000  0.4779880000000 1.0
C      1  0.4395820000000  0.5043010000000  0.4624180000000 1.0
C      1  0.4670380000000  0.4426270000000  0.5666900000000 1.0
C      1  0.4870440000000  0.4603290000000  0.5663950000000 1.0
C      1  0.5063040000000  0.4691070000000  0.5479210000000 1.0
C      1  0.5933540000000  0.5128240000000  0.5448930000000 1.0
C      1  0.5970120000000  0.5026740000000  0.5186810000000 1.0
C      1  0.5041210000000  0.4947950000000  0.5361330000000 1.0
C      1  0.5162750000000  0.5665350000000  0.4386280000000 1.0
C      1  0.6081650000000  0.4546040000000  0.5190190000000 1.0
C      1  0.5533820000000  0.5108890000000  0.4721540000000 1.0
C      1  0.5527130000000  0.4054830000000  0.5385350000000 1.0
C      1  0.5678090000000  0.4717060000000  0.4967340000000 1.0
C      1  0.5672010000000  0.5191370000000  0.5529790000000 1.0
C      1  0.4534890000000  0.4604300000000  0.4368900000000 1.0
C      1  0.4167290000000  0.5432390000000  0.5474080000000 1.0
C      1  0.4207010000000  0.5659650000000  0.5046110000000 1.0
C      1  0.5245980000000  0.4688750000000  0.4752720000000 1.0
C      1  0.4449720000000  0.4347010000000  0.5213770000000 1.0
C      1  0.3945150000000  0.5426860000000  0.5633390000000 1.0
C      1  0.6136060000000  0.4293910000000  0.5255020000000 1.0
C      1  0.4142790000000  0.5427330000000  0.5190480000000 1.0
C      1  0.4908650000000  0.4989540000000  0.5117220000000 1.0
C      1  0.4667060000000  0.6196290000000  0.4567470000000 1.0
C      1  0.4937320000000  0.5346710000000  0.5609020000000 1.0
C      1  0.5974370000000  0.5197140000000  0.4962270000000 1.0
C      1  0.4828860000000  0.5103010000000  0.4389750000000 1.0
C      1  0.4644330000000  0.4329200000000  0.5011960000000 1.0
C      1  0.5479130000000  0.4837640000000  0.4804600000000 1.0
C      1  0.4685700000000  0.5430230000000  0.5629240000000 1.0
C      1  0.6023900000000  0.4061430000000  0.5322700000000 1.0
C      1  0.5778520000000  0.3967700000000  0.5370980000000 1.0
C      1  0.5344550000000  0.5314840000000  0.4671970000000 1.0
C      1  0.4840460000000  0.4929380000000  0.4185170000000 1.0
C      1  0.5356860000000  0.4258590000000  0.5379320000000 1.0
END
