TITL C-3866669-3764-71 0.0108936451712496 125000 -518.519465162145 0 0 84 (C1) n - 1
REM
REM in /home/nfs/bkarasulu/CARBON/AIRSS/Generating-Clusters/LCBOP/Only-C1/SD-CG/HFTN-CG/FIRE-CG
REM
REM
REM
REM
REM
REM ./C.cell (11c1c37f851c82e70ff6c80c92926a4b)
REM AIRSS Version 0.9.1 bugfix July 2018 build 013d7b7c2542+ Fri, 06 Jul 2018 19:26:36 +0100
REM compiler GCC version 9.2.1 20190827 (Red Hat 9.2.1-1)
REM options -cpp -mtune=generic -march=x86-64 -g -O0 -fpre-include=/usr/include/finclude/math-vector-fortran.h
REM seed 648675948 -352798612 122520431 -1510765215 -688137816 1344289705 -1144311419 -281084803 628689192 -1694494545 1641017698 -1091584377 -1573211496 -2127556006 -2005581484 744272754 127175366 -1404760146 -1820185135 1885267754 -875592110 -1156784307 -535373761 -337079059 1085985868 524950163 -1037923903 -548990325 60155343 -1136126334 -1434298101 179133823 2006785911
REM
CELL 1.54180   50.00000   50.00000   50.00000   90.00000   90.00000   90.00000
LATT -1
SFAC C  
C      1  0.5130840000000  0.5095180000000  0.4210240000000 1.0
C      1  0.4355860000000  0.4571220000000  0.5096520000000 1.0
C      1  0.4809290000000  0.6203720000000  0.4568680000000 1.0
C      1  0.5254290000000  0.5460600000000  0.4786270000000 1.0
C      1  0.5005930000000  0.5315090000000  0.4372970000000 1.0
C      1  0.5080320000000  0.5253970000000  0.4877060000000 1.0
C      1  0.4974580000000  0.5463670000000  0.5267750000000 1.0
C      1  0.5458160000000  0.4605700000000  0.4878490000000 1.0
C      1  0.5231860000000  0.4370660000000  0.5524550000000 1.0
C      1  0.5010420000000  0.4144690000000  0.4771880000000 1.0
C      1  0.5195460000000  0.4806740000000  0.5225880000000 1.0
C      1  0.5660140000000  0.5399310000000  0.5072270000000 1.0
C      1  0.4762550000000  0.4647040000000  0.4826350000000 1.0
C      1  0.5095060000000  0.4989070000000  0.4792990000000 1.0
C      1  0.5060510000000  0.4576500000000  0.5171520000000 1.0
C      1  0.4386740000000  0.4898800000000  0.4642480000000 1.0
C      1  0.4678720000000  0.4447270000000  0.4645550000000 1.0
C      1  0.4517140000000  0.4107540000000  0.4921240000000 1.0
C      1  0.4404030000000  0.5081710000000  0.5100640000000 1.0
C      1  0.4389290000000  0.5128620000000  0.5380500000000 1.0
C      1  0.5151350000000  0.5043540000000  0.5320270000000 1.0
C      1  0.5376160000000  0.5529660000000  0.5531130000000 1.0
C      1  0.5825520000000  0.5185560000000  0.4427220000000 1.0
C      1  0.5118730000000  0.4124130000000  0.5042150000000 1.0
C      1  0.4593640000000  0.5837010000000  0.5168290000000 1.0
C      1  0.4842390000000  0.5941040000000  0.4693820000000 1.0
C      1  0.4775730000000  0.4507470000000  0.5725480000000 1.0
C      1  0.4602620000000  0.5240530000000  0.4951630000000 1.0
C      1  0.4477640000000  0.4790000000000  0.4376200000000 1.0
C      1  0.4624440000000  0.5106600000000  0.4684110000000 1.0
C      1  0.4501620000000  0.5277130000000  0.5597460000000 1.0
C      1  0.4489270000000  0.5558230000000  0.5565150000000 1.0
C      1  0.5129540000000  0.5532180000000  0.4530560000000 1.0
C      1  0.4787570000000  0.4098350000000  0.5514990000000 1.0
C      1  0.5775650000000  0.5149790000000  0.5144810000000 1.0
C      1  0.5687260000000  0.5172830000000  0.5629790000000 1.0
C      1  0.5410070000000  0.5530930000000  0.5026000000000 1.0
C      1  0.4972080000000  0.4298100000000  0.5655820000000 1.0
C      1  0.4721220000000  0.5222910000000  0.4417680000000 1.0
C      1  0.4580230000000  0.4655540000000  0.5275300000000 1.0
C      1  0.5621590000000  0.4736680000000  0.5360420000000 1.0
C      1  0.5640820000000  0.5194400000000  0.4219960000000 1.0
C      1  0.4909310000000  0.4598000000000  0.4260680000000 1.0
C      1  0.4844210000000  0.4894140000000  0.4734200000000 1.0
C      1  0.5318370000000  0.4827980000000  0.4755690000000 1.0
C      1  0.5763460000000  0.5022670000000  0.4656700000000 1.0
C      1  0.4543110000000  0.4223890000000  0.5403840000000 1.0
C      1  0.4642260000000  0.4939310000000  0.5951330000000 1.0
C      1  0.4649940000000  0.4549630000000  0.4385900000000 1.0
C      1  0.4853140000000  0.5356160000000  0.5028570000000 1.0
C      1  0.5091460000000  0.5981890000000  0.4294260000000 1.0
C      1  0.5442850000000  0.5300340000000  0.5696650000000 1.0
C      1  0.5506750000000  0.4928100000000  0.4580460000000 1.0
C      1  0.4691850000000  0.5160470000000  0.5785660000000 1.0
C      1  0.4311560000000  0.6244230000000  0.5689910000000 1.0
C      1  0.4729810000000  0.4685500000000  0.5934350000000 1.0
C      1  0.5249500000000  0.5574160000000  0.5272030000000 1.0
C      1  0.5428230000000  0.4369960000000  0.4727920000000 1.0
C      1  0.5313820000000  0.4827270000000  0.5759320000000 1.0
C      1  0.4995700000000  0.5238060000000  0.5439130000000 1.0
C      1  0.4578710000000  0.4502240000000  0.5514450000000 1.0
C      1  0.4495300000000  0.5806570000000  0.5431360000000 1.0
C      1  0.4401940000000  0.4263600000000  0.5134400000000 1.0
C      1  0.4399930000000  0.6033020000000  0.5565400000000 1.0
C      1  0.4957960000000  0.6221080000000  0.4335220000000 1.0
C      1  0.4653000000000  0.4994650000000  0.4236860000000 1.0
C      1  0.4313870000000  0.4831760000000  0.4936620000000 1.0
C      1  0.5408050000000  0.5039070000000  0.4144580000000 1.0
C      1  0.5456540000000  0.4762010000000  0.4088130000000 1.0
C      1  0.5143330000000  0.4440900000000  0.4332950000000 1.0
C      1  0.4965820000000  0.5194830000000  0.5716200000000 1.0
C      1  0.5030110000000  0.5795240000000  0.4508740000000 1.0
C      1  0.5662660000000  0.4703340000000  0.5057630000000 1.0
C      1  0.5171180000000  0.4324210000000  0.5238340000000 1.0
C      1  0.5236940000000  0.5110000000000  0.5792180000000 1.0
C      1  0.4800530000000  0.4617010000000  0.5099770000000 1.0
C      1  0.5190140000000  0.4289850000000  0.4585660000000 1.0
C      1  0.4924360000000  0.4880660000000  0.4170900000000 1.0
C      1  0.4725760000000  0.4187750000000  0.4744770000000 1.0
C      1  0.5803720000000  0.4949060000000  0.4935920000000 1.0
C      1  0.5728280000000  0.5016210000000  0.5400550000000 1.0
C      1  0.5413370000000  0.4620500000000  0.5568030000000 1.0
C      1  0.4716070000000  0.5872840000000  0.4933170000000 1.0
C      1  0.5370740000000  0.4522110000000  0.4179490000000 1.0
END
