TITL C-3866676-3738-298 2.35912674626077e-05 125000 -479.217764112519 0 0 78 (C1) n - 1
REM
REM in /home/nfs/bkarasulu/CARBON/AIRSS/Generating-Clusters/LCBOP/Only-C1/SD-CG/FIRE-CG
REM
REM
REM
REM
REM
REM ./C.cell (11c1c37f851c82e70ff6c80c92926a4b)
REM AIRSS Version 0.9.1 bugfix July 2018 build 013d7b7c2542+ Fri, 06 Jul 2018 19:26:36 +0100
REM compiler GCC version 9.2.1 20190827 (Red Hat 9.2.1-1)
REM options -cpp -mtune=generic -march=x86-64 -g -O0 -fpre-include=/usr/include/finclude/math-vector-fortran.h
REM seed 1455627719 1259682648 955784418 574552756 382763147 1006076426 -804310791 8720868 1035475901 -758475810 -1296683039 675061188 -298129517 -1170361343 1563290167 -821311276 -1271195169 1674792901 -1770556899 1492452437 1011607360 -1404828575 1639308805 112663705 -969541619 100801933 -1008529879 -2062815651 1256325773 -678358292 -660887518 1357410702 -1291082417
REM
CELL 1.54180   50.00000   50.00000   50.00000   90.00000   90.00000   90.00000
LATT -1
SFAC C  
C      1  0.5122980000000  0.4738940000000  0.4902570000000 1.0
C      1  0.5356990000000  0.5324150000000  0.5758150000000 1.0
C      1  0.5511560000000  0.5224470000000  0.5064480000000 1.0
C      1  0.4351060000000  0.4604480000000  0.4423880000000 1.0
C      1  0.4870780000000  0.4972810000000  0.6019590000000 1.0
C      1  0.4942360000000  0.5486590000000  0.4300200000000 1.0
C      1  0.4952160000000  0.5965550000000  0.5284780000000 1.0
C      1  0.5384490000000  0.5443010000000  0.5498210000000 1.0
C      1  0.5035900000000  0.4505810000000  0.4092720000000 1.0
C      1  0.5059170000000  0.4284350000000  0.4242110000000 1.0
C      1  0.4422900000000  0.5617780000000  0.5207060000000 1.0
C      1  0.5232430000000  0.5629410000000  0.4751900000000 1.0
C      1  0.5129500000000  0.4208550000000  0.4490210000000 1.0
C      1  0.4964000000000  0.5222900000000  0.6044310000000 1.0
C      1  0.5719610000000  0.5609110000000  0.4707410000000 1.0
C      1  0.5173590000000  0.4265120000000  0.5009040000000 1.0
C      1  0.4916240000000  0.5212900000000  0.4674840000000 1.0
C      1  0.5098900000000  0.5255460000000  0.4240650000000 1.0
C      1  0.4532300000000  0.4486070000000  0.4583740000000 1.0
C      1  0.3621020000000  0.4856400000000  0.4728080000000 1.0
C      1  0.5198690000000  0.4830930000000  0.5153190000000 1.0
C      1  0.5379610000000  0.5707510000000  0.5385700000000 1.0
C      1  0.4736330000000  0.5140770000000  0.4455820000000 1.0
C      1  0.4394800000000  0.5374770000000  0.4747580000000 1.0
C      1  0.4690830000000  0.5123590000000  0.5121520000000 1.0
C      1  0.4652690000000  0.4583780000000  0.4816140000000 1.0
C      1  0.5170760000000  0.5345630000000  0.4738110000000 1.0
C      1  0.5527250000000  0.5036590000000  0.4612610000000 1.0
C      1  0.4540570000000  0.4763800000000  0.5494180000000 1.0
C      1  0.3873240000000  0.4914080000000  0.4696950000000 1.0
C      1  0.6041100000000  0.4704940000000  0.4806410000000 1.0
C      1  0.5207590000000  0.4346800000000  0.4722130000000 1.0
C      1  0.4143490000000  0.4970630000000  0.4666430000000 1.0
C      1  0.5266530000000  0.4632360000000  0.4682280000000 1.0
C      1  0.4692410000000  0.4292300000000  0.5183240000000 1.0
C      1  0.5285900000000  0.4559940000000  0.5580670000000 1.0
C      1  0.5017040000000  0.4513220000000  0.5471510000000 1.0
C      1  0.4852470000000  0.4779230000000  0.4837730000000 1.0
C      1  0.5842510000000  0.4368480000000  0.5156320000000 1.0
C      1  0.5411730000000  0.4147370000000  0.5113580000000 1.0
C      1  0.5497720000000  0.4389190000000  0.5506040000000 1.0
C      1  0.4291400000000  0.5124680000000  0.4856260000000 1.0
C      1  0.5800560000000  0.5110660000000  0.4582550000000 1.0
C      1  0.4359450000000  0.5467660000000  0.5420190000000 1.0
C      1  0.5184740000000  0.4967720000000  0.4272500000000 1.0
C      1  0.5363940000000  0.5243210000000  0.5299550000000 1.0
C      1  0.5146580000000  0.5064550000000  0.5303640000000 1.0
C      1  0.5160990000000  0.5879430000000  0.5428300000000 1.0
C      1  0.5151130000000  0.5386890000000  0.5940540000000 1.0
C      1  0.5985410000000  0.4517870000000  0.4988020000000 1.0
C      1  0.5028210000000  0.5790200000000  0.4645730000000 1.0
C      1  0.5604750000000  0.4276920000000  0.5272340000000 1.0
C      1  0.4452160000000  0.4737400000000  0.5220850000000 1.0
C      1  0.4423170000000  0.4991800000000  0.5622410000000 1.0
C      1  0.4360560000000  0.5249980000000  0.5577520000000 1.0
C      1  0.4839590000000  0.4754370000000  0.5867650000000 1.0
C      1  0.5512080000000  0.5750430000000  0.5135080000000 1.0
C      1  0.5990020000000  0.4915870000000  0.4650720000000 1.0
C      1  0.5348420000000  0.4848540000000  0.4492790000000 1.0
C      1  0.5364260000000  0.4794050000000  0.5721070000000 1.0
C      1  0.4577080000000  0.4053500000000  0.5245590000000 1.0
C      1  0.4813690000000  0.5054230000000  0.4879330000000 1.0
C      1  0.5398510000000  0.5191090000000  0.4809520000000 1.0
C      1  0.4973710000000  0.4347260000000  0.5224090000000 1.0
C      1  0.4425040000000  0.5004390000000  0.5087850000000 1.0
C      1  0.5492670000000  0.5697440000000  0.4856190000000 1.0
C      1  0.5842520000000  0.5392250000000  0.4601230000000 1.0
C      1  0.4774370000000  0.5914990000000  0.5091920000000 1.0
C      1  0.5436230000000  0.5047980000000  0.5772730000000 1.0
C      1  0.4789880000000  0.4655550000000  0.5604410000000 1.0
C      1  0.5078220000000  0.4770690000000  0.4097570000000 1.0
C      1  0.4506350000000  0.5048460000000  0.4353500000000 1.0
C      1  0.4588550000000  0.5726140000000  0.5000080000000 1.0
C      1  0.4550160000000  0.4512340000000  0.5071000000000 1.0
C      1  0.4583900000000  0.5593100000000  0.4736980000000 1.0
C      1  0.4879060000000  0.5155320000000  0.5327420000000 1.0
C      1  0.4296880000000  0.4880490000000  0.4441270000000 1.0
C      1  0.4804550000000  0.5642810000000  0.4529570000000 1.0
END
