TITL C-3866676-3738-8 -0.0354971286079645 125000 -158.814278177919 0 0 28 (C1) n - 1
REM
REM in /home/nfs/bkarasulu/CARBON/AIRSS/Generating-Clusters/LCBOP/Only-C1/SD-CG/HFTN-CG/FIRE-CG
REM
REM
REM
REM
REM
REM ./C.cell (11c1c37f851c82e70ff6c80c92926a4b)
REM AIRSS Version 0.9.1 bugfix July 2018 build 013d7b7c2542+ Fri, 06 Jul 2018 19:26:36 +0100
REM compiler GCC version 9.2.1 20190827 (Red Hat 9.2.1-1)
REM options -cpp -mtune=generic -march=x86-64 -g -O0 -fpre-include=/usr/include/finclude/math-vector-fortran.h
REM seed 680065531 1934562323 -1280970882 1811671756 1678182640 -636470346 942368644 662251273 614746144 -1340606591 -1283111888 280542175 -1124848951 1363532940 1368644313 -500925360 -2064122482 142953405 -153101396 792325709 -1159983310 -1803563990 1053825030 222330204 -1579974342 1979517598 -190364611 -167002685 10699504 -906086033 394311986 -1359691767 2050625701
REM
CELL 1.54180   50.00000   50.00000   50.00000   90.00000   90.00000   90.00000
LATT -1
SFAC C  
C      1  0.4679500000000  0.5782410000000  0.5321970000000 1.0
C      1  0.4820360000000  0.4794780000000  0.5278080000000 1.0
C      1  0.5526870000000  0.4825670000000  0.5105840000000 1.0
C      1  0.5408120000000  0.4323430000000  0.5001080000000 1.0
C      1  0.5291340000000  0.4791630000000  0.4946260000000 1.0
C      1  0.5096030000000  0.4998090000000  0.4931220000000 1.0
C      1  0.4748830000000  0.5530410000000  0.5278320000000 1.0
C      1  0.4588100000000  0.4231750000000  0.4637090000000 1.0
C      1  0.4890280000000  0.5093950000000  0.4497330000000 1.0
C      1  0.5393660000000  0.5596010000000  0.4655150000000 1.0
C      1  0.4909540000000  0.5028950000000  0.5147500000000 1.0
C      1  0.4944390000000  0.4446830000000  0.4977250000000 1.0
C      1  0.5300050000000  0.4322520000000  0.5465880000000 1.0
C      1  0.5498900000000  0.4377590000000  0.5270020000000 1.0
C      1  0.4947250000000  0.4881330000000  0.4324970000000 1.0
C      1  0.4475040000000  0.6535610000000  0.5449200000000 1.0
C      1  0.5077660000000  0.5160960000000  0.4700230000000 1.0
C      1  0.4656730000000  0.5234430000000  0.4473650000000 1.0
C      1  0.4887790000000  0.4522690000000  0.5249820000000 1.0
C      1  0.4760090000000  0.4330040000000  0.4806390000000 1.0
C      1  0.5006230000000  0.4671160000000  0.4182610000000 1.0
C      1  0.5036180000000  0.4385870000000  0.5449790000000 1.0
C      1  0.5213740000000  0.4511990000000  0.4904440000000 1.0
C      1  0.5625610000000  0.4634070000000  0.5274680000000 1.0
C      1  0.5242180000000  0.5384660000000  0.4672110000000 1.0
C      1  0.4610970000000  0.6034810000000  0.5364620000000 1.0
C      1  0.4542440000000  0.6287290000000  0.5407260000000 1.0
C      1  0.4822120000000  0.5281070000000  0.5227230000000 1.0
END
