TITL C-3866675-3766-323 0.0513772002887773 125000 -615.844507816937 0 0 103 (C1) n - 1
REM
REM in /home/nfs/bkarasulu/CARBON/AIRSS/Generating-Clusters/LCBOP/Only-C1/SD-CG/FIRE-CG
REM
REM
REM
REM
REM
REM ./C.cell (11c1c37f851c82e70ff6c80c92926a4b)
REM AIRSS Version 0.9.1 bugfix July 2018 build 013d7b7c2542+ Fri, 06 Jul 2018 19:26:36 +0100
REM compiler GCC version 9.2.1 20190827 (Red Hat 9.2.1-1)
REM options -cpp -mtune=generic -march=x86-64 -g -O0 -fpre-include=/usr/include/finclude/math-vector-fortran.h
REM seed -1215818624 756132929 1502581963 1340960049 1406040898 -490431309 57636408 2107150517 864879010 1888703296 -1927137744 -1561859211 -2018987328 -1404873622 720378205 229297560 659728109 -566938847 286821622 1778315453 -1837320366 -1111645849 -1884221411 -2051604815 1187068306 -1429990381 1634707162 -801602688 922140281 -1588536447 -2045700382 94575968 -1588006198
REM
CELL 1.54180   50.00000   50.00000   50.00000   90.00000   90.00000   90.00000
LATT -1
SFAC C  
C      1  0.4768880000000  0.4128510000000  0.5133860000000 1.0
C      1  0.4908530000000  0.5458160000000  0.5550590000000 1.0
C      1  0.4255420000000  0.5612260000000  0.5265470000000 1.0
C      1  0.5939490000000  0.4797250000000  0.5237470000000 1.0
C      1  0.4333900000000  0.4686310000000  0.5291180000000 1.0
C      1  0.6102990000000  0.3331730000000  0.6255950000000 1.0
C      1  0.4411730000000  0.4439700000000  0.5146640000000 1.0
C      1  0.4728380000000  0.4782760000000  0.4983880000000 1.0
C      1  0.4602920000000  0.4200940000000  0.5859620000000 1.0
C      1  0.5416320000000  0.4848800000000  0.4545420000000 1.0
C      1  0.4642650000000  0.4640420000000  0.4473170000000 1.0
C      1  0.4809170000000  0.5902170000000  0.5713450000000 1.0
C      1  0.4033140000000  0.5375930000000  0.4452560000000 1.0
C      1  0.5079070000000  0.5666550000000  0.4685760000000 1.0
C      1  0.4887870000000  0.5166010000000  0.5630660000000 1.0
C      1  0.4567770000000  0.4949840000000  0.4816990000000 1.0
C      1  0.4960920000000  0.5187940000000  0.4640780000000 1.0
C      1  0.4559130000000  0.4227050000000  0.5286900000000 1.0
C      1  0.4960930000000  0.4363330000000  0.4688070000000 1.0
C      1  0.5466670000000  0.5099890000000  0.5168040000000 1.0
C      1  0.4775480000000  0.4251470000000  0.4873370000000 1.0
C      1  0.6118790000000  0.5649490000000  0.4736970000000 1.0
C      1  0.5226950000000  0.5821850000000  0.5501450000000 1.0
C      1  0.5135400000000  0.5575270000000  0.5392870000000 1.0
C      1  0.5380690000000  0.5005130000000  0.5714370000000 1.0
C      1  0.5045460000000  0.5907490000000  0.4549480000000 1.0
C      1  0.5146430000000  0.5487770000000  0.5121220000000 1.0
C      1  0.5347140000000  0.4669400000000  0.4961020000000 1.0
C      1  0.4463630000000  0.4796080000000  0.5539720000000 1.0
C      1  0.4825990000000  0.4775800000000  0.3948150000000 1.0
C      1  0.4932310000000  0.4595130000000  0.4514830000000 1.0
C      1  0.4578910000000  0.5472260000000  0.4137980000000 1.0
C      1  0.4246050000000  0.4337900000000  0.4432440000000 1.0
C      1  0.5142060000000  0.4805780000000  0.4452840000000 1.0
C      1  0.5694990000000  0.3644760000000  0.6146530000000 1.0
C      1  0.4874260000000  0.4673790000000  0.5179720000000 1.0
C      1  0.5675900000000  0.4114590000000  0.4585840000000 1.0
C      1  0.6024230000000  0.5081580000000  0.4513620000000 1.0
C      1  0.4051530000000  0.4238220000000  0.4290540000000 1.0
C      1  0.4821820000000  0.5983070000000  0.4418120000000 1.0
C      1  0.4869940000000  0.4289260000000  0.5916310000000 1.0
C      1  0.5283720000000  0.3960320000000  0.6036210000000 1.0
C      1  0.5965900000000  0.5329910000000  0.4389120000000 1.0
C      1  0.4897630000000  0.4576000000000  0.5898250000000 1.0
C      1  0.4395290000000  0.4367600000000  0.5793360000000 1.0
C      1  0.5712470000000  0.5383570000000  0.4272860000000 1.0
C      1  0.4253850000000  0.5332480000000  0.5315340000000 1.0
C      1  0.4556430000000  0.4898590000000  0.4543960000000 1.0
C      1  0.5835220000000  0.5424530000000  0.5099740000000 1.0
C      1  0.4153450000000  0.4871850000000  0.5165020000000 1.0
C      1  0.5277540000000  0.4940700000000  0.5020460000000 1.0
C      1  0.4521900000000  0.5253660000000  0.5385610000000 1.0
C      1  0.4942100000000  0.5283900000000  0.5082900000000 1.0
C      1  0.4886120000000  0.5461360000000  0.4630540000000 1.0
C      1  0.4445980000000  0.5636400000000  0.4332040000000 1.0
C      1  0.5283440000000  0.5538420000000  0.4852590000000 1.0
C      1  0.4208800000000  0.5141760000000  0.5093410000000 1.0
C      1  0.5447040000000  0.5351890000000  0.4674160000000 1.0
C      1  0.5430720000000  0.4466420000000  0.4803100000000 1.0
C      1  0.4434710000000  0.5929690000000  0.4707590000000 1.0
C      1  0.4569740000000  0.5971600000000  0.5196340000000 1.0
C      1  0.4527160000000  0.5200380000000  0.4069360000000 1.0
C      1  0.5625510000000  0.5403300000000  0.5518220000000 1.0
C      1  0.5068750000000  0.5973280000000  0.5664400000000 1.0
C      1  0.4832730000000  0.5554860000000  0.4041340000000 1.0
C      1  0.5805360000000  0.4814040000000  0.5469290000000 1.0
C      1  0.6017020000000  0.4838770000000  0.4984230000000 1.0
C      1  0.4695460000000  0.5677030000000  0.5571180000000 1.0
C      1  0.4622010000000  0.5049800000000  0.5553180000000 1.0
C      1  0.4503400000000  0.4382910000000  0.4856820000000 1.0
C      1  0.4494840000000  0.5754010000000  0.5365770000000 1.0
C      1  0.4545370000000  0.6044210000000  0.4938530000000 1.0
C      1  0.4221290000000  0.5564630000000  0.4507960000000 1.0
C      1  0.4562280000000  0.5881390000000  0.4452320000000 1.0
C      1  0.4643800000000  0.4971010000000  0.3985880000000 1.0
C      1  0.5024180000000  0.4700750000000  0.5676550000000 1.0
C      1  0.5616050000000  0.4895920000000  0.5641340000000 1.0
C      1  0.5367990000000  0.4363080000000  0.4312680000000 1.0
C      1  0.4143970000000  0.5689510000000  0.5013640000000 1.0
C      1  0.4985330000000  0.4609690000000  0.5413780000000 1.0
C      1  0.5900680000000  0.3486950000000  0.6201690000000 1.0
C      1  0.4443180000000  0.4649490000000  0.5785740000000 1.0
C      1  0.5076630000000  0.5444500000000  0.4063310000000 1.0
C      1  0.5100990000000  0.4977980000000  0.5694310000000 1.0
C      1  0.5214300000000  0.5283940000000  0.4248380000000 1.0
C      1  0.5516110000000  0.5068190000000  0.4681320000000 1.0
C      1  0.6002530000000  0.5583700000000  0.4968210000000 1.0
C      1  0.4665360000000  0.5282720000000  0.5130980000000 1.0
C      1  0.4654790000000  0.4711380000000  0.5970160000000 1.0
C      1  0.5051810000000  0.5088340000000  0.4903250000000 1.0
C      1  0.4465190000000  0.5171540000000  0.4947190000000 1.0
C      1  0.6046540000000  0.4929470000000  0.4733740000000 1.0
C      1  0.6111790000000  0.5550840000000  0.4487370000000 1.0
C      1  0.5640440000000  0.5305370000000  0.5262120000000 1.0
C      1  0.5024670000000  0.4596720000000  0.3983590000000 1.0
C      1  0.5489350000000  0.3802540000000  0.6091380000000 1.0
C      1  0.4226340000000  0.5730250000000  0.4746990000000 1.0
C      1  0.4452850000000  0.4447450000000  0.4581540000000 1.0
C      1  0.5490060000000  0.4315980000000  0.4567020000000 1.0
C      1  0.5064510000000  0.5080960000000  0.4400450000000 1.0
C      1  0.5078670000000  0.4118490000000  0.5980630000000 1.0
C      1  0.5450030000000  0.5391660000000  0.4379610000000 1.0
C      1  0.5214830000000  0.4450680000000  0.4108110000000 1.0
END
