TITL C-3866674-3872-455 5.89879437366361e-05 125000 -607.991972565037 0 0 100 (C1) n - 1
REM
REM in /home/nfs/bkarasulu/CARBON/AIRSS/Generating-Clusters/LCBOP/Only-C1/SD-CG/FIRE-CG
REM
REM
REM
REM
REM
REM ./C.cell (11c1c37f851c82e70ff6c80c92926a4b)
REM AIRSS Version 0.9.1 bugfix July 2018 build 013d7b7c2542+ Fri, 06 Jul 2018 19:26:36 +0100
REM compiler GCC version 9.2.1 20190827 (Red Hat 9.2.1-1)
REM options -cpp -mtune=generic -march=x86-64 -g -O0 -fpre-include=/usr/include/finclude/math-vector-fortran.h
REM seed -417653139 1660357749 -698255652 -744261101 35709691 1083493919 -74302806 1457929577 822204562 1807572708 1398704420 474457879 293003062 1282832064 403812258 399580757 -1998350546 1171038940 -866533223 -58278636 -290955132 661587719 329759429 1721699380 -756245725 -605551858 -1954136252 1389019398 -664612274 -706472168 -616480965 430651659 171813299
REM
CELL 1.54180   50.00000   50.00000   50.00000   90.00000   90.00000   90.00000
LATT -1
SFAC C  
C      1  0.4939820000000  0.5588170000000  0.4856670000000 1.0
C      1  0.4069100000000  0.4655090000000  0.4609830000000 1.0
C      1  0.4423390000000  0.4414870000000  0.5681090000000 1.0
C      1  0.5213340000000  0.5268050000000  0.5161480000000 1.0
C      1  0.5563820000000  0.4155520000000  0.4792690000000 1.0
C      1  0.4857520000000  0.5854130000000  0.4351680000000 1.0
C      1  0.5701620000000  0.4497710000000  0.5180520000000 1.0
C      1  0.5256850000000  0.4924680000000  0.5838540000000 1.0
C      1  0.4887260000000  0.4563180000000  0.4479520000000 1.0
C      1  0.5304450000000  0.4813630000000  0.4335900000000 1.0
C      1  0.4616050000000  0.3953540000000  0.5141060000000 1.0
C      1  0.5585190000000  0.4759600000000  0.4356070000000 1.0
C      1  0.5363200000000  0.5298800000000  0.4069950000000 1.0
C      1  0.5233480000000  0.5010260000000  0.4527950000000 1.0
C      1  0.4455270000000  0.5534260000000  0.4701250000000 1.0
C      1  0.4861030000000  0.3881410000000  0.5047980000000 1.0
C      1  0.5025650000000  0.6203100000000  0.4665980000000 1.0
C      1  0.5484210000000  0.4553680000000  0.5619180000000 1.0
C      1  0.4407720000000  0.4111520000000  0.5255340000000 1.0
C      1  0.4192000000000  0.5235960000000  0.5027000000000 1.0
C      1  0.5893010000000  0.4930480000000  0.5011600000000 1.0
C      1  0.4161030000000  0.4760640000000  0.5503420000000 1.0
C      1  0.4336150000000  0.4797560000000  0.5301320000000 1.0
C      1  0.5155290000000  0.6445730000000  0.4580020000000 1.0
C      1  0.5108830000000  0.6677780000000  0.4982890000000 1.0
C      1  0.5095320000000  0.5290420000000  0.4049680000000 1.0
C      1  0.4794640000000  0.5624260000000  0.4230190000000 1.0
C      1  0.5202700000000  0.6668570000000  0.4727930000000 1.0
C      1  0.5559400000000  0.4238690000000  0.4508580000000 1.0
C      1  0.5145990000000  0.4451460000000  0.4992200000000 1.0
C      1  0.4967670000000  0.4841710000000  0.5354890000000 1.0
C      1  0.4609090000000  0.4651400000000  0.4872570000000 1.0
C      1  0.5182150000000  0.5470480000000  0.4951870000000 1.0
C      1  0.5519560000000  0.5071630000000  0.5844950000000 1.0
C      1  0.5428640000000  0.5530670000000  0.4829520000000 1.0
C      1  0.4042860000000  0.4989120000000  0.4983590000000 1.0
C      1  0.4887010000000  0.6232410000000  0.4928920000000 1.0
C      1  0.4499840000000  0.4709590000000  0.5108910000000 1.0
C      1  0.5144920000000  0.4420750000000  0.5911920000000 1.0
C      1  0.5058200000000  0.4248570000000  0.5715890000000 1.0
C      1  0.5484220000000  0.4448660000000  0.5355790000000 1.0
C      1  0.4631970000000  0.5148740000000  0.4849760000000 1.0
C      1  0.4374180000000  0.4262560000000  0.4461770000000 1.0
C      1  0.4190600000000  0.4457980000000  0.4472110000000 1.0
C      1  0.4622030000000  0.4175280000000  0.4521030000000 1.0
C      1  0.5224380000000  0.4377890000000  0.5258060000000 1.0
C      1  0.4382950000000  0.5288010000000  0.4819380000000 1.0
C      1  0.4032720000000  0.4714080000000  0.4885680000000 1.0
C      1  0.4766200000000  0.5192650000000  0.5096040000000 1.0
C      1  0.5857540000000  0.4850330000000  0.5494570000000 1.0
C      1  0.5068500000000  0.5980180000000  0.4489720000000 1.0
C      1  0.5849170000000  0.4846280000000  0.4742690000000 1.0
C      1  0.4745780000000  0.5413120000000  0.5279110000000 1.0
C      1  0.5370150000000  0.3966170000000  0.4888780000000 1.0
C      1  0.5216540000000  0.4707970000000  0.4914240000000 1.0
C      1  0.5326890000000  0.5881150000000  0.4418130000000 1.0
C      1  0.4866170000000  0.4300900000000  0.4588270000000 1.0
C      1  0.5667820000000  0.4500850000000  0.4458380000000 1.0
C      1  0.4751600000000  0.5162190000000  0.4369350000000 1.0
C      1  0.5735430000000  0.4981490000000  0.4499860000000 1.0
C      1  0.5031400000000  0.5135900000000  0.5873780000000 1.0
C      1  0.5083270000000  0.3992290000000  0.4910380000000 1.0
C      1  0.5714630000000  0.5322480000000  0.5253620000000 1.0
C      1  0.5456890000000  0.5318520000000  0.5978060000000 1.0
C      1  0.4205240000000  0.4254770000000  0.5112360000000 1.0
C      1  0.5231990000000  0.4939090000000  0.4785830000000 1.0
C      1  0.4421140000000  0.4174230000000  0.5532580000000 1.0
C      1  0.5743200000000  0.4980400000000  0.5701170000000 1.0
C      1  0.4185230000000  0.4567490000000  0.5691760000000 1.0
C      1  0.4717780000000  0.5022510000000  0.4609180000000 1.0
C      1  0.5183980000000  0.5350290000000  0.6008610000000 1.0
C      1  0.4654590000000  0.4576540000000  0.5656810000000 1.0
C      1  0.5298340000000  0.4641770000000  0.5819580000000 1.0
C      1  0.4322610000000  0.5289260000000  0.5523050000000 1.0
C      1  0.5637740000000  0.5412890000000  0.4709800000000 1.0
C      1  0.5718320000000  0.4377460000000  0.4922230000000 1.0
C      1  0.5022610000000  0.4258100000000  0.4821500000000 1.0
C      1  0.5845850000000  0.4743930000000  0.5229790000000 1.0
C      1  0.5023940000000  0.4366500000000  0.5457400000000 1.0
C      1  0.4965600000000  0.6466560000000  0.5075930000000 1.0
C      1  0.5541530000000  0.5413770000000  0.4255260000000 1.0
C      1  0.5669540000000  0.5263480000000  0.4470270000000 1.0
C      1  0.5091790000000  0.4632110000000  0.4296170000000 1.0
C      1  0.4356470000000  0.5680380000000  0.5206570000000 1.0
C      1  0.4679780000000  0.6079920000000  0.5049180000000 1.0
C      1  0.4060620000000  0.4474320000000  0.5044370000000 1.0
C      1  0.4507720000000  0.5196600000000  0.5706310000000 1.0
C      1  0.4795950000000  0.5233060000000  0.5733100000000 1.0
C      1  0.4730150000000  0.4744330000000  0.4632630000000 1.0
C      1  0.4665000000000  0.5668980000000  0.4837300000000 1.0
C      1  0.5807460000000  0.4561540000000  0.4713910000000 1.0
C      1  0.4867830000000  0.4607050000000  0.5477080000000 1.0
C      1  0.4863530000000  0.5353470000000  0.4197380000000 1.0
C      1  0.4847430000000  0.5431940000000  0.5530180000000 1.0
C      1  0.5007160000000  0.5067190000000  0.5191430000000 1.0
C      1  0.4557660000000  0.5827190000000  0.5052190000000 1.0
C      1  0.4252090000000  0.5406430000000  0.5265960000000 1.0
C      1  0.5487130000000  0.5691480000000  0.4311880000000 1.0
C      1  0.5895640000000  0.5198750000000  0.5097320000000 1.0
C      1  0.5453030000000  0.5291460000000  0.5304850000000 1.0
END
