TITL C-3866675-3766-580 -0.0787518834001753 125000 -99.3579078600469 0 0 18 (C1) n - 1
REM
REM in /home/nfs/bkarasulu/CARBON/AIRSS/Generating-Clusters/LCBOP/Only-C1/SD-CG/FIRE-CG
REM
REM
REM
REM
REM
REM ./C.cell (11c1c37f851c82e70ff6c80c92926a4b)
REM AIRSS Version 0.9.1 bugfix July 2018 build 013d7b7c2542+ Fri, 06 Jul 2018 19:26:36 +0100
REM compiler GCC version 9.2.1 20190827 (Red Hat 9.2.1-1)
REM options -cpp -mtune=generic -march=x86-64 -g -O0 -fpre-include=/usr/include/finclude/math-vector-fortran.h
REM seed -1883253588 41058150 -1227482146 829838191 -262978339 -1149045071 -343183386 -408188525 1314625561 -716216033 -24493634 -112455679 -1329511193 -2066287140 -250052641 -1972419903 -564894926 -27938328 -1024151942 -1562440581 278023286 1265146673 1146472517 -1317151507 -376460197 -2122525903 187996874 1367640692 -1162612875 256372762 -1052572726 -1675096223 -1851364844
REM
CELL 1.54180   50.00000   50.00000   50.00000   90.00000   90.00000   90.00000
LATT -1
SFAC C  
C      1  0.4806770000000  0.4459430000000  0.4724410000000 1.0
C      1  0.4660960000000  0.5118300000000  0.5604080000000 1.0
C      1  0.4631820000000  0.5058850000000  0.5340130000000 1.0
C      1  0.4845350000000  0.5041750000000  0.5152180000000 1.0
C      1  0.5446520000000  0.5517760000000  0.4787750000000 1.0
C      1  0.4817630000000  0.4204200000000  0.4653700000000 1.0
C      1  0.5110440000000  0.5091890000000  0.5257370000000 1.0
C      1  0.5341580000000  0.5081760000000  0.5094940000000 1.0
C      1  0.4760530000000  0.5186620000000  0.4695930000000 1.0
C      1  0.5494300000000  0.4854990000000  0.5086080000000 1.0
C      1  0.4740230000000  0.5386360000000  0.4529770000000 1.0
C      1  0.4828340000000  0.3953170000000  0.4584170000000 1.0
C      1  0.5410460000000  0.5305800000000  0.4942540000000 1.0
C      1  0.4797550000000  0.4714190000000  0.4796220000000 1.0
C      1  0.4800240000000  0.4980490000000  0.4880170000000 1.0
C      1  0.5124270000000  0.5153020000000  0.5535380000000 1.0
C      1  0.5472800000000  0.5725370000000  0.4632300000000 1.0
C      1  0.4910200000000  0.5166030000000  0.5702890000000 1.0
END
