TITL C-3866669-3764-352 11473.8908063643 125000 -1224.53556705468 0 0 199 (C1) n - 1
REM
REM in /home/nfs/bkarasulu/CARBON/AIRSS/Generating-Clusters/LCBOP/Only-C1/SD-CG/FIRE-CG
REM
REM
REM
REM
REM
REM ./C.cell (11c1c37f851c82e70ff6c80c92926a4b)
REM AIRSS Version 0.9.1 bugfix July 2018 build 013d7b7c2542+ Fri, 06 Jul 2018 19:26:36 +0100
REM compiler GCC version 9.2.1 20190827 (Red Hat 9.2.1-1)
REM options -cpp -mtune=generic -march=x86-64 -g -O0 -fpre-include=/usr/include/finclude/math-vector-fortran.h
REM seed 1413000411 -90470180 -544337396 -2024545535 668820034 -269053571 -880519231 -1044898533 1435366428 -1394557740 -470714636 302917285 -1108191914 -848409738 -1550387112 -1326056708 -416778927 -2145247033 1002618486 939367554 -648060720 -967136747 -1031787747 -520773120 1250839975 -990553673 -777969796 1431024367 -2081410285 -1758116087 1980999385 -1788292573 -781053776
REM
CELL 1.54180   50.00000   50.00000   50.00000   90.00000   90.00000   90.00000
LATT -1
SFAC C  
C      1  0.5447290000000  0.4832530000000  0.5957850000000 1.0
C      1  0.5465320000000  0.5481730000000  0.4048530000000 1.0
C      1  0.4558720000000  0.5264230000000  0.4497340000000 1.0
C      1  0.5215060000000  0.5588170000000  0.5438960000000 1.0
C      1  0.4622850000000  0.5011730000000  0.5005770000000 1.0
C      1  0.5005940000000  0.4746180000000  0.4391530000000 1.0
C      1  0.5344400000000  0.4885490000000  0.3933770000000 1.0
C      1  0.4518060000000  0.5188670000000  0.5975790000000 1.0
C      1  0.5130640000000  0.4106560000000  0.4858290000000 1.0
C      1  0.5636440000000  0.5965140000000  0.5472080000000 1.0
C      1  0.5293880000000  0.5007410000000  0.4638710000000 1.0
C      1  0.5274770000000  0.4696300000000  0.5051020000000 1.0
C      1  0.5134880000000  0.6395070000000  0.5100820000000 1.0
C      1  0.4534390000000  0.4327430000000  0.4682950000000 1.0
C      1  0.5365360000000  0.5255000000000  0.4746410000000 1.0
C      1  0.6133380000000  0.4957640000000  0.4940530000000 1.0
C      1  0.5806600000000  0.5174690000000  0.4309510000000 1.0
C      1  0.3888490000000  0.4809330000000  0.4316180000000 1.0
C      1  0.5047850000000  0.4867780000000  0.3600880000000 1.0
C      1  0.5948010000000  0.5553320000000  0.4655730000000 1.0
C      1  0.5423940000000  0.4632540000000  0.3823510000000 1.0
C      1  0.4309510000000  0.4679680000000  0.3877130000000 1.0
C      1  0.5725250000000  0.4801880000000  0.5896150000000 1.0
C      1  0.4358920000000  0.5195700000000  0.3983140000000 1.0
C      1  0.4382440000000  0.5724090000000  0.5826360000000 1.0
C      1  0.4719640000000  0.5619520000000  0.5357770000000 1.0
C      1  0.4035590000000  0.5327580000000  0.5614140000000 1.0
C      1  0.4559250000000  0.5056720000000  0.5731210000000 1.0
C      1  0.5226400000000  0.4619170000000  0.3605380000000 1.0
C      1  0.5382270000000  0.5517500000000  0.6146210000000 1.0
C      1  0.5715130000000  0.4090380000000  0.5220700000000 1.0
C      1  0.3817890000000  0.4366380000000  0.5154750000000 1.0
C      1  0.5204110000000  0.6197320000000  0.4630580000000 1.0
C      1  0.4837130000000  0.6039030000000  0.5709620000000 1.0
C      1  0.4890360000000  0.5457200000000  0.6104240000000 1.0
C      1  0.5804060000000  0.5978580000000  0.4974290000000 1.0
C      1  0.5381870000000  0.5495520000000  0.4603040000000 1.0
C      1  0.5885300000000  0.5891440000000  0.4306450000000 1.0
C      1  0.3984980000000  0.5538820000000  0.5431230000000 1.0
C      1  0.3950820000000  0.5509390000000  0.4575350000000 1.0
C      1  0.4355670000000  0.5531560000000  0.4880470000000 1.0
C      1  0.5219580000000  0.5068380000000  0.3749720000000 1.0
C      1  0.5582880000000  0.4120610000000  0.5734230000000 1.0
C      1  0.5816780000000  0.4284790000000  0.3992100000000 1.0
C      1  0.5713430000000  0.5435390000000  0.4227860000000 1.0
C      1  0.4748470000000  0.5197210000000  0.5582520000000 1.0
C      1  0.4516840000000  0.4757110000000  0.3713440000000 1.0
C      1  0.5656120000000  0.4528890000000  0.3960490000000 1.0
C      1  0.4369160000000  0.5101180000000  0.5126100000000 1.0
C      1  0.5738580000000  0.5252260000000  0.5945180000000 1.0
C      1  0.4256250000000  0.4329980000000  0.4774900000000 1.0
C      1  0.3871240000000  0.4779570000000  0.5400060000000 1.0
C      1  0.5831250000000  0.4282080000000  0.5035510000000 1.0
C      1  0.5549820000000  0.3869750000000  0.5136020000000 1.0
C      1  0.5122750000000  0.3642540000000  0.4948560000000 1.0
C      1  0.6390840000000  0.4518170000000  0.4589580000000 1.0
C      1  0.4792220000000  0.5877350000000  0.4060670000000 1.0
C      1  0.4125700000000  0.4174870000000  0.5488060000000 1.0
C      1  0.3995850000000  0.5427750000000  0.5168380000000 1.0
C      1  0.4168740000000  0.6385940000000  0.5085190000000 1.0
C      1  0.5710210000000  0.4320850000000  0.4778780000000 1.0
C      1  0.5541950000000  0.5090160000000  0.5213810000000 1.0
C      1  0.4632220000000  0.5547460000000  0.4896750000000 1.0
C      1  0.5241250000000  0.5733610000000  0.5695770000000 1.0
C      1  0.4318850000000  0.4899080000000  0.5317170000000 1.0
C      1  0.4250350000000  0.5357230000000  0.5070180000000 1.0
C      1  0.4578240000000  0.6078490000000  0.5201810000000 1.0
C      1  0.4034530000000  0.4197280000000  0.5213730000000 1.0
C      1  0.5002270000000  0.5852410000000  0.5057410000000 1.0
C      1  0.5412080000000  0.4688280000000  0.5518400000000 1.0
C      1  0.4740800000000  0.5481360000000  0.5608490000000 1.0
C      1  0.5182430000000  0.5295110000000  0.5458870000000 1.0
C      1  0.5628690000000  0.6168050000000  0.5066910000000 1.0
C      1  0.5659710000000  0.4948040000000  0.4249100000000 1.0
C      1  0.5431990000000  0.5630730000000  0.5880830000000 1.0
C      1  0.5002240000000  0.6215250000000  0.5543140000000 1.0
C      1  0.4831410000000  0.5579560000000  0.4699400000000 1.0
C      1  0.5213840000000  0.5728190000000  0.5196370000000 1.0
C      1  0.5388660000000  0.4965050000000  0.4190340000000 1.0
C      1  0.5119920000000  0.5538020000000  0.6247910000000 1.0
C      1  0.4820300000000  0.4582380000000  0.6407500000000 1.0
C      1  0.5486420000000  0.6158340000000  0.5322100000000 1.0
C      1  0.5311620000000  0.4068510000000  0.5795080000000 1.0
C      1  0.4376730000000  0.6241360000000  0.5146720000000 1.0
C      1  0.4829040000000  0.5353020000000  0.4523640000000 1.0
C      1  0.6019320000000  0.5125390000000  0.4488540000000 1.0
C      1  0.3871340000000  0.5054200000000  0.4851280000000 1.0
C      1  0.4391910000000  0.5479010000000  0.4425640000000 1.0
C      1  0.4952400000000  0.5099670000000  0.5381720000000 1.0
C      1  0.3983660000000  0.4619320000000  0.5608160000000 1.0
C      1  0.5593960000000  0.5419490000000  0.5744140000000 1.0
C      1  0.5139920000000  0.4303870000000  0.4426010000000 1.0
C      1  0.5303670000000  0.3722590000000  0.5159330000000 1.0
C      1  0.5159900000000  0.6369310000000  0.4833720000000 1.0
C      1  0.5708270000000  0.5484850000000  0.5488610000000 1.0
C      1  0.5721470000000  0.4134590000000  0.5502160000000 1.0
C      1  0.5889720000000  0.5025450000000  0.5812670000000 1.0
C      1  0.5340170000000  0.4711960000000  0.4748140000000 1.0
C      1  0.4584480000000  0.4852410000000  0.4776850000000 1.0
C      1  0.5347180000000  0.4028650000000  0.4726030000000 1.0
C      1  0.4480690000000  0.3652040000000  0.4556290000000 1.0
C      1  0.4646100000000  0.4485860000000  0.6575560000000 1.0
C      1  0.6001380000000  0.5178700000000  0.5331530000000 1.0
C      1  0.5846430000000  0.5635520000000  0.4396530000000 1.0
C      1  0.4691390000000  0.3807480000000  0.4640520000000 1.0
C      1  0.5181640000000  0.4561000000000  0.4527490000000 1.0
C      1  0.4650140000000  0.4595490000000  0.4669460000000 1.0
C      1  0.3931530000000  0.4755810000000  0.4871260000000 1.0
C      1  0.4460880000000  0.5582450000000  0.4177530000000 1.0
C      1  0.4990580000000  0.5662020000000  0.4059720000000 1.0
C      1  0.4737530000000  0.5443370000000  0.5133350000000 1.0
C      1  0.4928640000000  0.4148890000000  0.5042460000000 1.0
C      1  0.4567140000000  0.4553810000000  0.4217090000000 1.0
C      1  0.3874170000000  0.5064290000000  0.5408280000000 1.0
C      1  0.3842550000000  0.5183600000000  0.5130920000000 1.0
C      1  0.5264180000000  0.5665650000000  0.4164000000000 1.0
C      1  0.5147710000000  0.4502730000000  0.6034830000000 1.0
C      1  0.5301170000000  0.5719770000000  0.4443530000000 1.0
C      1  0.6183710000000  0.4677470000000  0.4505670000000 1.0
C      1  0.5167680000000  0.5921360000000  0.4591610000000 1.0
C      1  0.4023090000000  0.5915770000000  0.4267890000000 1.0
C      1  0.4880470000000  0.4257760000000  0.5748210000000 1.0
C      1  0.4427790000000  0.3972480000000  0.5054670000000 1.0
C      1  0.4120510000000  0.5171720000000  0.4118000000000 1.0
C      1  0.5770480000000  0.5729550000000  0.5374000000000 1.0
C      1  0.4089400000000  0.4559510000000  0.4675830000000 1.0
C      1  0.4354580000000  0.4942870000000  0.5588450000000 1.0
C      1  0.4873390000000  0.5387130000000  0.4066540000000 1.0
C      1  0.4982250000000  0.4163810000000  0.5498200000000 1.0
C      1  0.5213900000000  0.6266000000000  0.5344150000000 1.0
C      1  0.4788620000000  0.5185110000000  0.6125650000000 1.0
C      1  0.6201450000000  0.4785090000000  0.5431100000000 1.0
C      1  0.5047030000000  0.4601220000000  0.5205310000000 1.0
C      1  0.4369940000000  0.4642040000000  0.5227560000000 1.0
C      1  0.4691210000000  0.4092980000000  0.4574280000000 1.0
C      1  0.4736880000000  0.4504420000000  0.5735740000000 1.0
C      1  0.6386620000000  0.4634370000000  0.5564380000000 1.0
C      1  0.4693410000000  0.3996490000000  0.5077580000000 1.0
C      1  0.4582700000000  0.5375150000000  0.4014560000000 1.0
C      1  0.4510190000000  0.5854870000000  0.4125290000000 1.0
C      1  0.4293600000000  0.4594210000000  0.4156070000000 1.0
C      1  0.5326600000000  0.5030530000000  0.6131480000000 1.0
C      1  0.5984980000000  0.5502270000000  0.4940390000000 1.0
C      1  0.4283230000000  0.5431030000000  0.5850370000000 1.0
C      1  0.3887800000000  0.5220640000000  0.4586840000000 1.0
C      1  0.5451590000000  0.4817890000000  0.5259110000000 1.0
C      1  0.6083360000000  0.5230240000000  0.5055050000000 1.0
C      1  0.5144760000000  0.3470790000000  0.5546080000000 1.0
C      1  0.5203260000000  0.3709910000000  0.5427810000000 1.0
C      1  0.6061140000000  0.5005260000000  0.5557280000000 1.0
C      1  0.5153100000000  0.5006620000000  0.4364870000000 1.0
C      1  0.4963160000000  0.4800780000000  0.5400400000000 1.0
C      1  0.5416230000000  0.5238740000000  0.5014580000000 1.0
C      1  0.6122510000000  0.4918660000000  0.4652460000000 1.0
C      1  0.4995530000000  0.5817870000000  0.5802870000000 1.0
C      1  0.4821240000000  0.5175290000000  0.5126760000000 1.0
C      1  0.5514740000000  0.5253670000000  0.6160450000000 1.0
C      1  0.6040190000000  0.4607550000000  0.4267790000000 1.0
C      1  0.4185970000000  0.4418400000000  0.5633550000000 1.0
C      1  0.5353870000000  0.5323650000000  0.3819700000000 1.0
C      1  0.4211330000000  0.4145110000000  0.4996230000000 1.0
C      1  0.6071890000000  0.4369410000000  0.4106510000000 1.0
C      1  0.3844120000000  0.4647590000000  0.5136100000000 1.0
C      1  0.4948750000000  0.4703020000000  0.5664610000000 1.0
C      1  0.5611690000000  0.4581770000000  0.4724580000000 1.0
C      1  0.4550480000000  0.5945970000000  0.5763540000000 1.0
C      1  0.5678280000000  0.4009660000000  0.4381360000000 1.0
C      1  0.3941720000000  0.5085900000000  0.4328350000000 1.0
C      1  0.4840210000000  0.5587860000000  0.5856090000000 1.0
C      1  0.4092380000000  0.4618870000000  0.4377670000000 1.0
C      1  0.4977800000000  0.5243370000000  0.4303980000000 1.0
C      1  0.5598550000000  0.4104290000000  0.4631830000000 1.0
C      1  0.5370080000000  0.5219320000000  0.5657220000000 1.0
C      1  0.3874520000000  0.5726830000000  0.4400990000000 1.0
C      1  0.3916280000000  0.5794740000000  0.5488760000000 1.0
C      1  0.4451270000000  0.4479500000000  0.5731550000000 1.0
C      1  0.4767670000000  0.5876930000000  0.5227650000000 1.0
C      1  0.6024990000000  0.4478470000000  0.5099640000000 1.0
C      1  0.4472340000000  0.5015690000000  0.4574350000000 1.0
C      1  0.5025900000000  0.4977740000000  0.6173350000000 1.0
C      1  0.4992340000000  0.4318630000000  0.5258070000000 1.0
C      1  0.4226030000000  0.5553580000000  0.4635430000000 1.0
C      1  0.5787000000000  0.4712610000000  0.4164440000000 1.0
C      1  0.4992570000000  0.4682890000000  0.6212190000000 1.0
C      1  0.4988410000000  0.5803400000000  0.4774850000000 1.0
C      1  0.4538640000000  0.4447340000000  0.5211400000000 1.0
C      1  0.5170250000000  0.3954220000000  0.5562220000000 1.0
C      1  0.4267100000000  0.5998210000000  0.4172410000000 1.0
C      1  0.4763870000000  0.4833520000000  0.3627550000000 1.0
C      1  0.4746430000000  0.4648590000000  0.4402440000000 1.0
C      1  0.5734000000000  0.5249150000000  0.5343530000000 1.0
C      1  0.5878270000000  0.5731150000000  0.5103510000000 1.0
C      1  0.4146680000000  0.3930620000000  0.5610150000000 1.0
C      1  0.4913870000000  0.4159550000000  0.4408820000000 1.0
C      1  0.5110890000000  0.4236770000000  0.5935820000000 1.0
C      1  0.5709150000000  0.4059090000000  0.4119540000000 1.0
C      1  0.4914080000000  0.3679700000000  0.4776160000000 1.0
C      1  0.6135040000000  0.4736920000000  0.5147620000000 1.0
C      1  0.5246620000000  0.4675590000000  0.5794410000000 1.0
END
