TITL C-3866672-3872-316 1894.68139540904 125000 -791.674496629333 0 0 130 (C1) n - 1
REM
REM in /home/nfs/bkarasulu/CARBON/AIRSS/Generating-Clusters/LCBOP/Only-C1/SD-CG/FIRE-CG
REM
REM
REM
REM
REM
REM ./C.cell (11c1c37f851c82e70ff6c80c92926a4b)
REM AIRSS Version 0.9.1 bugfix July 2018 build 013d7b7c2542+ Fri, 06 Jul 2018 19:26:36 +0100
REM compiler GCC version 9.2.1 20190827 (Red Hat 9.2.1-1)
REM options -cpp -mtune=generic -march=x86-64 -g -O0 -fpre-include=/usr/include/finclude/math-vector-fortran.h
REM seed -1304284466 -1533587905 -824512424 893925547 486480012 770708371 -376045403 -63200527 181227977 935432872 544315531 847512118 -1817936023 643275774 -955173200 -82779691 -2060319365 -1886727234 -863401606 773560017 1421091947 2031255678 -431114523 1560358269 807968813 491621745 630687768 -1096020905 530507372 -1595683598 -682081852 -1762457289 -1445806905
REM
CELL 1.54180   50.00000   50.00000   50.00000   90.00000   90.00000   90.00000
LATT -1
SFAC C  
C      1  0.5303920000000  0.5497510000000  0.4671460000000 1.0
C      1  0.6012080000000  0.4860670000000  0.4766490000000 1.0
C      1  0.4972270000000  0.4131530000000  0.4319720000000 1.0
C      1  0.4584570000000  0.5209280000000  0.4658920000000 1.0
C      1  0.5409380000000  0.5918360000000  0.5517540000000 1.0
C      1  0.5130940000000  0.4073090000000  0.4825150000000 1.0
C      1  0.5194570000000  0.5528160000000  0.4392140000000 1.0
C      1  0.4627990000000  0.5490420000000  0.4221590000000 1.0
C      1  0.5448350000000  0.4662040000000  0.4984920000000 1.0
C      1  0.5915200000000  0.4768420000000  0.5018290000000 1.0
C      1  0.4415610000000  0.4629760000000  0.4176960000000 1.0
C      1  0.4290050000000  0.4616610000000  0.5979840000000 1.0
C      1  0.4777460000000  0.5303020000000  0.4054810000000 1.0
C      1  0.5824380000000  0.4961210000000  0.4163150000000 1.0
C      1  0.4448050000000  0.4340400000000  0.5060590000000 1.0
C      1  0.5524200000000  0.4227010000000  0.5192560000000 1.0
C      1  0.4384760000000  0.4210100000000  0.4442870000000 1.0
C      1  0.5387410000000  0.4453060000000  0.4495940000000 1.0
C      1  0.5033490000000  0.4890900000000  0.6046490000000 1.0
C      1  0.4638040000000  0.5929540000000  0.5304460000000 1.0
C      1  0.4212520000000  0.5124360000000  0.5431730000000 1.0
C      1  0.4543360000000  0.5655580000000  0.5718280000000 1.0
C      1  0.4873710000000  0.5452420000000  0.5278010000000 1.0
C      1  0.4759300000000  0.4736190000000  0.4550310000000 1.0
C      1  0.5812530000000  0.4429340000000  0.4731500000000 1.0
C      1  0.4115840000000  0.5399190000000  0.5443720000000 1.0
C      1  0.5413080000000  0.4961070000000  0.5594850000000 1.0
C      1  0.5531420000000  0.5735470000000  0.5333540000000 1.0
C      1  0.3568560000000  0.5305510000000  0.3745320000000 1.0
C      1  0.5715850000000  0.5245110000000  0.5162440000000 1.0
C      1  0.5023030000000  0.5759430000000  0.4420980000000 1.0
C      1  0.4323860000000  0.4339570000000  0.5323760000000 1.0
C      1  0.4888890000000  0.5062960000000  0.3978480000000 1.0
C      1  0.5872130000000  0.5018330000000  0.5580830000000 1.0
C      1  0.5887540000000  0.5317880000000  0.5358940000000 1.0
C      1  0.4845280000000  0.5961790000000  0.4813950000000 1.0
C      1  0.5024940000000  0.4625220000000  0.5147700000000 1.0
C      1  0.5481710000000  0.5040370000000  0.4525380000000 1.0
C      1  0.4636650000000  0.5305460000000  0.5214510000000 1.0
C      1  0.5671490000000  0.4829270000000  0.4382470000000 1.0
C      1  0.4780860000000  0.4280560000000  0.4201680000000 1.0
C      1  0.4577450000000  0.4586080000000  0.5010460000000 1.0
C      1  0.4814530000000  0.5334030000000  0.6083100000000 1.0
C      1  0.5209050000000  0.5283110000000  0.4247920000000 1.0
C      1  0.4490690000000  0.4443490000000  0.5916620000000 1.0
C      1  0.5791100000000  0.5551010000000  0.5495200000000 1.0
C      1  0.4866420000000  0.4078000000000  0.4950630000000 1.0
C      1  0.5099490000000  0.4039080000000  0.4538760000000 1.0
C      1  0.4200880000000  0.4595080000000  0.5425260000000 1.0
C      1  0.5280200000000  0.4701960000000  0.4063870000000 1.0
C      1  0.4033000000000  0.5219860000000  0.3984670000000 1.0
C      1  0.4276420000000  0.5120380000000  0.4962570000000 1.0
C      1  0.5367870000000  0.4161340000000  0.5417470000000 1.0
C      1  0.5503240000000  0.4676770000000  0.5641230000000 1.0
C      1  0.5131600000000  0.4868220000000  0.5246380000000 1.0
C      1  0.4846690000000  0.5255890000000  0.4741140000000 1.0
C      1  0.5557890000000  0.4303230000000  0.4682990000000 1.0
C      1  0.5455090000000  0.5142130000000  0.5833570000000 1.0
C      1  0.5818050000000  0.5463530000000  0.5774750000000 1.0
C      1  0.5098170000000  0.5336050000000  0.6156930000000 1.0
C      1  0.6211310000000  0.5040930000000  0.4699700000000 1.0
C      1  0.5184960000000  0.5837670000000  0.5648980000000 1.0
C      1  0.5201010000000  0.4261660000000  0.5620740000000 1.0
C      1  0.4765220000000  0.5041170000000  0.6050400000000 1.0
C      1  0.4468670000000  0.5749800000000  0.5450820000000 1.0
C      1  0.5346400000000  0.5783240000000  0.4803660000000 1.0
C      1  0.4783660000000  0.6005850000000  0.5088830000000 1.0
C      1  0.4563420000000  0.4981210000000  0.5855340000000 1.0
C      1  0.4249060000000  0.5622220000000  0.4994700000000 1.0
C      1  0.4251220000000  0.5617850000000  0.5297700000000 1.0
C      1  0.4340660000000  0.4889580000000  0.4167270000000 1.0
C      1  0.4730600000000  0.5710730000000  0.4402340000000 1.0
C      1  0.4957660000000  0.5394970000000  0.5538880000000 1.0
C      1  0.5287330000000  0.4508410000000  0.5750260000000 1.0
C      1  0.6313320000000  0.5183440000000  0.4497490000000 1.0
C      1  0.5102040000000  0.5917210000000  0.4675910000000 1.0
C      1  0.5861690000000  0.4688820000000  0.4580920000000 1.0
C      1  0.4370240000000  0.5378950000000  0.4300060000000 1.0
C      1  0.4694180000000  0.4065210000000  0.5575020000000 1.0
C      1  0.4658000000000  0.5525790000000  0.5932230000000 1.0
C      1  0.4195030000000  0.4863970000000  0.5563970000000 1.0
C      1  0.5905570000000  0.4472260000000  0.5016250000000 1.0
C      1  0.5758190000000  0.4669610000000  0.5510800000000 1.0
C      1  0.5141410000000  0.5559810000000  0.5674300000000 1.0
C      1  0.4966530000000  0.5027320000000  0.4848750000000 1.0
C      1  0.5516720000000  0.5282760000000  0.4685120000000 1.0
C      1  0.5328180000000  0.5294790000000  0.3999310000000 1.0
C      1  0.5699800000000  0.5310540000000  0.4894380000000 1.0
C      1  0.4622660000000  0.5839590000000  0.4658800000000 1.0
C      1  0.5034650000000  0.5454090000000  0.4822130000000 1.0
C      1  0.3330860000000  0.5341150000000  0.3644350000000 1.0
C      1  0.4658060000000  0.4495740000000  0.5708370000000 1.0
C      1  0.4576280000000  0.4737950000000  0.4769690000000 1.0
C      1  0.4579230000000  0.4127810000000  0.4914140000000 1.0
C      1  0.4446180000000  0.4140330000000  0.5491140000000 1.0
C      1  0.4446810000000  0.4982280000000  0.4783420000000 1.0
C      1  0.5468660000000  0.4621340000000  0.4272280000000 1.0
C      1  0.6034660000000  0.5115190000000  0.4103520000000 1.0
C      1  0.5249680000000  0.5094920000000  0.6065290000000 1.0
C      1  0.5641880000000  0.4822060000000  0.5094850000000 1.0
C      1  0.5120010000000  0.4638080000000  0.5946500000000 1.0
C      1  0.4398920000000  0.5145330000000  0.5215290000000 1.0
C      1  0.5764660000000  0.5170090000000  0.5813150000000 1.0
C      1  0.4350950000000  0.5371300000000  0.4581950000000 1.0
C      1  0.4758170000000  0.4625640000000  0.5226040000000 1.0
C      1  0.5755760000000  0.4408230000000  0.5255400000000 1.0
C      1  0.4386740000000  0.5807050000000  0.4819580000000 1.0
C      1  0.5411470000000  0.4168300000000  0.4911050000000 1.0
C      1  0.4705830000000  0.4954410000000  0.5608540000000 1.0
C      1  0.5073800000000  0.5545650000000  0.5098880000000 1.0
C      1  0.5205730000000  0.5031600000000  0.4411080000000 1.0
C      1  0.4250950000000  0.5161620000000  0.4150220000000 1.0
C      1  0.3806290000000  0.5266220000000  0.3855770000000 1.0
C      1  0.5149260000000  0.4968200000000  0.5497910000000 1.0
C      1  0.4452230000000  0.4075640000000  0.4666510000000 1.0
C      1  0.5366590000000  0.5421450000000  0.5764030000000 1.0
C      1  0.4948470000000  0.4130460000000  0.5642240000000 1.0
C      1  0.4933810000000  0.5115760000000  0.5584430000000 1.0
C      1  0.5153140000000  0.5043530000000  0.5036700000000 1.0
C      1  0.5067790000000  0.4853400000000  0.3975010000000 1.0
C      1  0.4517290000000  0.4374420000000  0.4253350000000 1.0
C      1  0.5573100000000  0.5026830000000  0.5264690000000 1.0
C      1  0.4703740000000  0.4686510000000  0.5501740000000 1.0
C      1  0.5169070000000  0.4576430000000  0.4632750000000 1.0
C      1  0.5034430000000  0.4792950000000  0.4493630000000 1.0
C      1  0.4202920000000  0.5379140000000  0.4840930000000 1.0
C      1  0.4301970000000  0.4863300000000  0.5838890000000 1.0
C      1  0.6242560000000  0.5215740000000  0.4240390000000 1.0
C      1  0.5188400000000  0.4578530000000  0.4916190000000 1.0
C      1  0.5341150000000  0.5700560000000  0.5099200000000 1.0
END
