TITL C-3866674-3872-126 0.0832625777544701 125000 -816.992749143177 0 0 132 (C1) n - 1
REM
REM in /home/nfs/bkarasulu/CARBON/AIRSS/Generating-Clusters/LCBOP/Only-C1/SD-CG/HFTN-CG/FIRE-CG
REM
REM
REM
REM
REM
REM ./C.cell (11c1c37f851c82e70ff6c80c92926a4b)
REM AIRSS Version 0.9.1 bugfix July 2018 build 013d7b7c2542+ Fri, 06 Jul 2018 19:26:36 +0100
REM compiler GCC version 9.2.1 20190827 (Red Hat 9.2.1-1)
REM options -cpp -mtune=generic -march=x86-64 -g -O0 -fpre-include=/usr/include/finclude/math-vector-fortran.h
REM seed -1128549308 -285187876 862682675 1056521738 -1046027762 -19334641 1115776378 -55458129 -969318411 1930797124 2050382560 -2139963819 1073573349 434560360 -204964845 1856267957 1396486097 -699106884 15721683 704849512 239365756 257613288 -1694646192 -1517132869 1568100748 1566306452 -252133773 -348508570 -230960788 -639215347 -1986821026 208850692 -410659998
REM
CELL 1.54180   50.00000   50.00000   50.00000   90.00000   90.00000   90.00000
LATT -1
SFAC C  
C      1  0.4503600000000  0.4387770000000  0.4107090000000 1.0
C      1  0.5456720000000  0.5340230000000  0.4797260000000 1.0
C      1  0.5183630000000  0.6140050000000  0.4482970000000 1.0
C      1  0.4748010000000  0.5889950000000  0.4445540000000 1.0
C      1  0.4132260000000  0.4926760000000  0.5691670000000 1.0
C      1  0.4116670000000  0.5198590000000  0.4670700000000 1.0
C      1  0.4381950000000  0.4394590000000  0.4364810000000 1.0
C      1  0.4960630000000  0.5287120000000  0.6182150000000 1.0
C      1  0.4486760000000  0.4197600000000  0.4540950000000 1.0
C      1  0.4312280000000  0.4894200000000  0.4322680000000 1.0
C      1  0.6205070000000  0.4235660000000  0.5210050000000 1.0
C      1  0.4709710000000  0.4484460000000  0.5862450000000 1.0
C      1  0.4447380000000  0.4754560000000  0.4853830000000 1.0
C      1  0.4377600000000  0.5596370000000  0.4225360000000 1.0
C      1  0.6322910000000  0.4705750000000  0.5382520000000 1.0
C      1  0.5659790000000  0.4801610000000  0.4362710000000 1.0
C      1  0.4385460000000  0.5714600000000  0.5636470000000 1.0
C      1  0.5367390000000  0.5359340000000  0.4528950000000 1.0
C      1  0.4864010000000  0.5904270000000  0.5343660000000 1.0
C      1  0.4191300000000  0.5144940000000  0.4402310000000 1.0
C      1  0.4221600000000  0.5375690000000  0.4238130000000 1.0
C      1  0.6001440000000  0.5399590000000  0.4776310000000 1.0
C      1  0.4953520000000  0.4005900000000  0.4624250000000 1.0
C      1  0.6508860000000  0.3487950000000  0.5165230000000 1.0
C      1  0.4537920000000  0.5548040000000  0.5797670000000 1.0
C      1  0.4159480000000  0.4552810000000  0.5403210000000 1.0
C      1  0.4702090000000  0.5231760000000  0.6113880000000 1.0
C      1  0.5187580000000  0.4308310000000  0.5722280000000 1.0
C      1  0.5344210000000  0.4268550000000  0.5482000000000 1.0
C      1  0.5954340000000  0.4296750000000  0.5100880000000 1.0
C      1  0.4869180000000  0.5863070000000  0.5962800000000 1.0
C      1  0.3936110000000  0.5069940000000  0.4867750000000 1.0
C      1  0.5127180000000  0.5882460000000  0.5417610000000 1.0
C      1  0.5103540000000  0.5887010000000  0.6096820000000 1.0
C      1  0.5548670000000  0.5834200000000  0.4510960000000 1.0
C      1  0.3966830000000  0.5489380000000  0.5459560000000 1.0
C      1  0.4280070000000  0.5119190000000  0.5844240000000 1.0
C      1  0.4973950000000  0.4453350000000  0.4964300000000 1.0
C      1  0.5195550000000  0.4145220000000  0.4667420000000 1.0
C      1  0.4430660000000  0.4926000000000  0.5068440000000 1.0
C      1  0.5402930000000  0.4503380000000  0.4080620000000 1.0
C      1  0.4237830000000  0.5421240000000  0.4821830000000 1.0
C      1  0.5012720000000  0.4934080000000  0.3973650000000 1.0
C      1  0.5178220000000  0.5734100000000  0.4234640000000 1.0
C      1  0.5722870000000  0.5015810000000  0.5067050000000 1.0
C      1  0.5619340000000  0.4374030000000  0.4755400000000 1.0
C      1  0.4807610000000  0.5633410000000  0.5808150000000 1.0
C      1  0.4596230000000  0.5890970000000  0.5225600000000 1.0
C      1  0.5194310000000  0.5425990000000  0.6151790000000 1.0
C      1  0.5611510000000  0.5773000000000  0.5343920000000 1.0
C      1  0.4488800000000  0.5296690000000  0.5929360000000 1.0
C      1  0.4617020000000  0.4621810000000  0.5406530000000 1.0
C      1  0.5479590000000  0.4133380000000  0.4662700000000 1.0
C      1  0.4878620000000  0.5389910000000  0.5207270000000 1.0
C      1  0.5031690000000  0.5226910000000  0.5037830000000 1.0
C      1  0.5562260000000  0.4612130000000  0.4577870000000 1.0
C      1  0.6409950000000  0.3733340000000  0.5180280000000 1.0
C      1  0.5289940000000  0.5677050000000  0.6045500000000 1.0
C      1  0.4004100000000  0.4751070000000  0.5247080000000 1.0
C      1  0.4190810000000  0.4673910000000  0.4749940000000 1.0
C      1  0.4731090000000  0.4282470000000  0.4947050000000 1.0
C      1  0.4423110000000  0.4516550000000  0.5835750000000 1.0
C      1  0.6161060000000  0.4911570000000  0.5334930000000 1.0
C      1  0.4118490000000  0.5651470000000  0.5261860000000 1.0
C      1  0.4245970000000  0.4639050000000  0.4460540000000 1.0
C      1  0.5049360000000  0.4606350000000  0.5200960000000 1.0
C      1  0.4886690000000  0.5157360000000  0.4809710000000 1.0
C      1  0.5091590000000  0.4991210000000  0.5541810000000 1.0
C      1  0.5288480000000  0.4499700000000  0.5912460000000 1.0
C      1  0.4599460000000  0.5340230000000  0.5180910000000 1.0
C      1  0.5169060000000  0.4858620000000  0.5289970000000 1.0
C      1  0.6344240000000  0.4444420000000  0.5334710000000 1.0
C      1  0.5388230000000  0.5800800000000  0.5520350000000 1.0
C      1  0.5219950000000  0.4453420000000  0.4274350000000 1.0
C      1  0.4649620000000  0.5988130000000  0.4693220000000 1.0
C      1  0.4771780000000  0.4783400000000  0.4023010000000 1.0
C      1  0.4051310000000  0.5516840000000  0.5016280000000 1.0
C      1  0.5481630000000  0.5110570000000  0.4966420000000 1.0
C      1  0.4707260000000  0.4128700000000  0.4703050000000 1.0
C      1  0.4628750000000  0.4902340000000  0.5481630000000 1.0
C      1  0.4501400000000  0.4283960000000  0.5111590000000 1.0
C      1  0.4207250000000  0.4641320000000  0.5687420000000 1.0
C      1  0.4863740000000  0.4733390000000  0.5889260000000 1.0
C      1  0.6705100000000  0.3001100000000  0.5135370000000 1.0
C      1  0.5386060000000  0.5622480000000  0.4406610000000 1.0
C      1  0.4529270000000  0.5078370000000  0.5278970000000 1.0
C      1  0.5938390000000  0.5568960000000  0.4981410000000 1.0
C      1  0.5183980000000  0.5161100000000  0.4435190000000 1.0
C      1  0.3995610000000  0.4795330000000  0.4944910000000 1.0
C      1  0.5939550000000  0.5000740000000  0.5219170000000 1.0
C      1  0.4683000000000  0.4742610000000  0.4708050000000 1.0
C      1  0.5685140000000  0.4352340000000  0.5040420000000 1.0
C      1  0.5122340000000  0.4695720000000  0.6005780000000 1.0
C      1  0.4897450000000  0.4270150000000  0.5777740000000 1.0
C      1  0.5477590000000  0.5582910000000  0.4937340000000 1.0
C      1  0.4709120000000  0.4511360000000  0.3980290000000 1.0
C      1  0.3880920000000  0.5272570000000  0.5067590000000 1.0
C      1  0.4966270000000  0.5222950000000  0.4019740000000 1.0
C      1  0.5136160000000  0.4886930000000  0.4531930000000 1.0
C      1  0.4625970000000  0.5650800000000  0.4346470000000 1.0
C      1  0.5152560000000  0.5258880000000  0.5607260000000 1.0
C      1  0.5694520000000  0.5663960000000  0.5097180000000 1.0
C      1  0.4952540000000  0.5275470000000  0.4297330000000 1.0
C      1  0.5510080000000  0.4769680000000  0.4099960000000 1.0
C      1  0.6607790000000  0.3242500000000  0.5150180000000 1.0
C      1  0.4902140000000  0.4908190000000  0.4688740000000 1.0
C      1  0.5321990000000  0.4935240000000  0.3948220000000 1.0
C      1  0.4358530000000  0.5776050000000  0.5360820000000 1.0
C      1  0.5138000000000  0.4423290000000  0.4739520000000 1.0
C      1  0.5017900000000  0.5941540000000  0.4361110000000 1.0
C      1  0.4869860000000  0.4506510000000  0.5393000000000 1.0
C      1  0.5175880000000  0.5649380000000  0.3966590000000 1.0
C      1  0.4506570000000  0.5405890000000  0.4904490000000 1.0
C      1  0.5442280000000  0.6083050000000  0.4550730000000 1.0
C      1  0.5250110000000  0.4612380000000  0.4536890000000 1.0
C      1  0.4407310000000  0.4465160000000  0.5300250000000 1.0
C      1  0.5242680000000  0.5051460000000  0.5099210000000 1.0
C      1  0.5834670000000  0.5013780000000  0.4442170000000 1.0
C      1  0.5952220000000  0.5209340000000  0.4588740000000 1.0
C      1  0.4704190000000  0.5343340000000  0.4709220000000 1.0
C      1  0.4547150000000  0.4908970000000  0.4157490000000 1.0
C      1  0.3976110000000  0.4979560000000  0.5445170000000 1.0
C      1  0.5495290000000  0.4315220000000  0.5258130000000 1.0
C      1  0.3885710000000  0.5231380000000  0.5355600000000 1.0
C      1  0.4754960000000  0.5417240000000  0.4442270000000 1.0
C      1  0.4582920000000  0.5972030000000  0.4952790000000 1.0
C      1  0.5377100000000  0.5196910000000  0.3830340000000 1.0
C      1  0.4847280000000  0.4911780000000  0.5665850000000 1.0
C      1  0.6311050000000  0.3978600000000  0.5195300000000 1.0
C      1  0.5002250000000  0.5468810000000  0.5684710000000 1.0
C      1  0.5163120000000  0.5384870000000  0.3877900000000 1.0
C      1  0.5421490000000  0.5715470000000  0.5793730000000 1.0
END
