TITL C-3866673-4222-218 1.51059843244497 125000 -156.621021552342 0 0 27 (C1) n - 1
REM
REM in /home/nfs/bkarasulu/CARBON/AIRSS/Generating-Clusters/LCBOP/Only-C1/SD-CG/HFTN-CG/FIRE-CG
REM
REM
REM
REM
REM
REM ./C.cell (11c1c37f851c82e70ff6c80c92926a4b)
REM AIRSS Version 0.9.1 bugfix July 2018 build 013d7b7c2542+ Fri, 06 Jul 2018 19:26:36 +0100
REM compiler GCC version 9.2.1 20190827 (Red Hat 9.2.1-1)
REM options -cpp -mtune=generic -march=x86-64 -g -O0 -fpre-include=/usr/include/finclude/math-vector-fortran.h
REM seed 2002592745 604172432 -288621384 1615227829 -610714813 -1324603422 -1324974412 -1874297167 890076784 -87278023 82273027 447432284 1958755785 -755931564 1119530885 1031614090 567599393 765512334 1115574919 -591796658 1025994143 161735489 -1309693090 230520179 2058319820 676647391 -539326932 793852011 775654307 1293603790 2141625844 -1573748919 -1149720715
REM
CELL 1.54180   50.00000   50.00000   50.00000   90.00000   90.00000   90.00000
LATT -1
SFAC C  
C      1  0.4994120000000  0.4788690000000  0.4863200000000 1.0
C      1  0.3984790000000  0.4374920000000  0.5877340000000 1.0
C      1  0.5546680000000  0.5517700000000  0.4745250000000 1.0
C      1  0.5198630000000  0.4884730000000  0.4721390000000 1.0
C      1  0.4401910000000  0.4585530000000  0.5627260000000 1.0
C      1  0.5430450000000  0.5039410000000  0.4745640000000 1.0
C      1  0.5563020000000  0.5767370000000  0.4623080000000 1.0
C      1  0.5594980000000  0.5486290000000  0.5023840000000 1.0
C      1  0.3567610000000  0.4164280000000  0.6127450000000 1.0
C      1  0.5418560000000  0.5312770000000  0.3525390000000 1.0
C      1  0.5018260000000  0.4955250000000  0.5510670000000 1.0
C      1  0.4193350000000  0.4480230000000  0.5752300000000 1.0
C      1  0.5403580000000  0.5323910000000  0.3265360000000 1.0
C      1  0.3776220000000  0.4269610000000  0.6002380000000 1.0
C      1  0.3362420000000  0.4060680000000  0.6250460000000 1.0
C      1  0.5478770000000  0.5279590000000  0.4596600000000 1.0
C      1  0.5449040000000  0.5290180000000  0.4054080000000 1.0
C      1  0.5570990000000  0.5021450000000  0.4992060000000 1.0
C      1  0.5238590000000  0.5103030000000  0.5532240000000 1.0
C      1  0.5451290000000  0.5215720000000  0.5417110000000 1.0
C      1  0.4866940000000  0.4761810000000  0.5095430000000 1.0
C      1  0.5574290000000  0.5244180000000  0.5168350000000 1.0
C      1  0.4610380000000  0.4690800000000  0.5502270000000 1.0
C      1  0.5433800000000  0.5301450000000  0.3789770000000 1.0
C      1  0.5577200000000  0.5997740000000  0.4502040000000 1.0
C      1  0.5464330000000  0.5281090000000  0.4318340000000 1.0
C      1  0.4829800000000  0.4801580000000  0.5370700000000 1.0
END
