TITL C-3866670-4165-663 0.114374328262323 125000 -202.092507063162 0 0 34 (C1) n - 1
REM
REM in /home/nfs/bkarasulu/CARBON/AIRSS/Generating-Clusters/LCBOP/Only-C1/SD-CG/FIRE-CG
REM
REM
REM
REM
REM
REM ./C.cell (11c1c37f851c82e70ff6c80c92926a4b)
REM AIRSS Version 0.9.1 bugfix July 2018 build 013d7b7c2542+ Fri, 06 Jul 2018 19:26:36 +0100
REM compiler GCC version 9.2.1 20190827 (Red Hat 9.2.1-1)
REM options -cpp -mtune=generic -march=x86-64 -g -O0 -fpre-include=/usr/include/finclude/math-vector-fortran.h
REM seed 1549417353 -527705429 1132404130 -987753592 1873359224 1304528292 319571417 -811980492 -38168672 1588997836 -222937120 133337180 1761349927 410744478 -1490803594 -1472896399 171017720 -602581938 -1941387785 -1175501039 -2104303749 -879881642 1873310337 1750094153 -1032603068 352173959 -1463202326 -1741636473 1520576787 642458924 -2069388140 -233112134 1403294022
REM
CELL 1.54180   50.00000   50.00000   50.00000   90.00000   90.00000   90.00000
LATT -1
SFAC C  
C      1  0.4747310000000  0.5026430000000  0.5877940000000 1.0
C      1  0.4932760000000  0.5574700000000  0.4541510000000 1.0
C      1  0.4916170000000  0.4749790000000  0.4796780000000 1.0
C      1  0.4782370000000  0.5599310000000  0.4975300000000 1.0
C      1  0.4469320000000  0.5262580000000  0.5539420000000 1.0
C      1  0.5379530000000  0.5197600000000  0.4971670000000 1.0
C      1  0.5257830000000  0.4957820000000  0.4569740000000 1.0
C      1  0.4915060000000  0.5459230000000  0.5503710000000 1.0
C      1  0.5006420000000  0.5087280000000  0.4507210000000 1.0
C      1  0.5714040000000  0.5114550000000  0.4629430000000 1.0
C      1  0.5074590000000  0.5259780000000  0.5368190000000 1.0
C      1  0.5167130000000  0.4694380000000  0.4657630000000 1.0
C      1  0.5458090000000  0.5090490000000  0.4721060000000 1.0
C      1  0.4914040000000  0.4681120000000  0.5066400000000 1.0
C      1  0.5007870000000  0.4988320000000  0.5455320000000 1.0
C      1  0.4490650000000  0.5239930000000  0.5054200000000 1.0
C      1  0.5195460000000  0.5349810000000  0.5122110000000 1.0
C      1  0.4432690000000  0.5091320000000  0.5300070000000 1.0
C      1  0.5654850000000  0.3753300000000  0.4505920000000 1.0
C      1  0.4522620000000  0.5152160000000  0.5793480000000 1.0
C      1  0.5149510000000  0.5634600000000  0.4705470000000 1.0
C      1  0.5775040000000  0.3524720000000  0.4470250000000 1.0
C      1  0.4593060000000  0.5502450000000  0.5161110000000 1.0
C      1  0.4969290000000  0.4958900000000  0.5737270000000 1.0
C      1  0.5079590000000  0.5576910000000  0.4983770000000 1.0
C      1  0.4712860000000  0.5478390000000  0.4703580000000 1.0
C      1  0.4840450000000  0.4812450000000  0.5298710000000 1.0
C      1  0.4637920000000  0.5481240000000  0.5442480000000 1.0
C      1  0.4792290000000  0.4998220000000  0.4690480000000 1.0
C      1  0.4559130000000  0.4841290000000  0.5326500000000 1.0
C      1  0.5289090000000  0.4450570000000  0.4615080000000 1.0
C      1  0.5410490000000  0.4218040000000  0.4578460000000 1.0
C      1  0.5532650000000  0.3985700000000  0.4542190000000 1.0
C      1  0.4619830000000  0.5206620000000  0.4787570000000 1.0
END
