TITL C-3866670-4165-724 17.4669849700081 125000 -950.866232240835 0 0 155 (C1) n - 1
REM
REM in /home/nfs/bkarasulu/CARBON/AIRSS/Generating-Clusters/LCBOP/Only-C1/SD-CG/FIRE-CG
REM
REM
REM
REM
REM
REM ./C.cell (11c1c37f851c82e70ff6c80c92926a4b)
REM AIRSS Version 0.9.1 bugfix July 2018 build 013d7b7c2542+ Fri, 06 Jul 2018 19:26:36 +0100
REM compiler GCC version 9.2.1 20190827 (Red Hat 9.2.1-1)
REM options -cpp -mtune=generic -march=x86-64 -g -O0 -fpre-include=/usr/include/finclude/math-vector-fortran.h
REM seed -1377176004 -136616392 -1328026263 -1996643947 1287838591 -1696677113 -1670014106 -1877718491 -122629821 -493664526 608361657 -1989417208 -1007405392 1788707935 -380264969 1172338910 996273244 897654955 1859596512 -1432701388 884904747 -121078713 708615780 720220078 -332329168 -1056146359 -1914143194 -1709000936 153313361 -646644454 -1076538086 1051268036 565306069
REM
CELL 1.54180   50.00000   50.00000   50.00000   90.00000   90.00000   90.00000
LATT -1
SFAC C  
C      1  0.5811950000000  0.4834370000000  0.4782210000000 1.0
C      1  0.4412890000000  0.5525570000000  0.4242810000000 1.0
C      1  0.5312850000000  0.4753140000000  0.4833950000000 1.0
C      1  0.5355080000000  0.4461520000000  0.5197620000000 1.0
C      1  0.4774320000000  0.5827070000000  0.4469130000000 1.0
C      1  0.4911180000000  0.4833170000000  0.6200520000000 1.0
C      1  0.5115690000000  0.4444680000000  0.5923460000000 1.0
C      1  0.4558620000000  0.5453670000000  0.5876180000000 1.0
C      1  0.3890660000000  0.5655670000000  0.4741010000000 1.0
C      1  0.4041170000000  0.5147800000000  0.4403370000000 1.0
C      1  0.5582250000000  0.5413930000000  0.4700680000000 1.0
C      1  0.5185390000000  0.4315150000000  0.4705010000000 1.0
C      1  0.5870700000000  0.4893870000000  0.5762320000000 1.0
C      1  0.5847970000000  0.5144360000000  0.4146290000000 1.0
C      1  0.4756650000000  0.5307530000000  0.6054610000000 1.0
C      1  0.5885880000000  0.4140620000000  0.5201640000000 1.0
C      1  0.4669010000000  0.5911840000000  0.5990040000000 1.0
C      1  0.5321640000000  0.4473240000000  0.4902640000000 1.0
C      1  0.5148500000000  0.4369880000000  0.4223330000000 1.0
C      1  0.4415210000000  0.4500740000000  0.5897540000000 1.0
C      1  0.4460280000000  0.5106130000000  0.4629640000000 1.0
C      1  0.4641900000000  0.4911910000000  0.5826920000000 1.0
C      1  0.4283720000000  0.5482940000000  0.4960300000000 1.0
C      1  0.5121460000000  0.5521020000000  0.5140490000000 1.0
C      1  0.4132940000000  0.4442160000000  0.4815070000000 1.0
C      1  0.5289280000000  0.5064060000000  0.3887300000000 1.0
C      1  0.4340680000000  0.5366940000000  0.4677750000000 1.0
C      1  0.5393340000000  0.4137720000000  0.5617990000000 1.0
C      1  0.5272970000000  0.5215930000000  0.5644750000000 1.0
C      1  0.5791860000000  0.4849720000000  0.5235760000000 1.0
C      1  0.5878880000000  0.4605460000000  0.5359260000000 1.0
C      1  0.4439130000000  0.4366430000000  0.4317770000000 1.0
C      1  0.6180970000000  0.5298050000000  0.4812140000000 1.0
C      1  0.5051890000000  0.4442460000000  0.4477590000000 1.0
C      1  0.4512010000000  0.5783130000000  0.4343350000000 1.0
C      1  0.4405110000000  0.4766620000000  0.5856460000000 1.0
C      1  0.4945000000000  0.6099300000000  0.5308890000000 1.0
C      1  0.4978310000000  0.5360860000000  0.4950110000000 1.0
C      1  0.5427920000000  0.6136680000000  0.4884450000000 1.0
C      1  0.3726480000000  0.4185670000000  0.4803300000000 1.0
C      1  0.5436960000000  0.4215670000000  0.5340000000000 1.0
C      1  0.6012330000000  0.5135420000000  0.5604300000000 1.0
C      1  0.4956820000000  0.4205090000000  0.5508440000000 1.0
C      1  0.6048400000000  0.4462670000000  0.4881680000000 1.0
C      1  0.5065370000000  0.4958480000000  0.3754960000000 1.0
C      1  0.4718520000000  0.5932770000000  0.5279490000000 1.0
C      1  0.6068210000000  0.5248060000000  0.5308910000000 1.0
C      1  0.5158540000000  0.4709560000000  0.6092030000000 1.0
C      1  0.3839110000000  0.3968870000000  0.4362640000000 1.0
C      1  0.5723620000000  0.3326300000000  0.5197840000000 1.0
C      1  0.5386010000000  0.3875430000000  0.5695840000000 1.0
C      1  0.4252090000000  0.5894670000000  0.4442320000000 1.0
C      1  0.4592450000000  0.5029150000000  0.4395190000000 1.0
C      1  0.5350100000000  0.5962760000000  0.5092690000000 1.0
C      1  0.5790130000000  0.4640850000000  0.5640910000000 1.0
C      1  0.5237940000000  0.4314600000000  0.3980190000000 1.0
C      1  0.5836610000000  0.5434070000000  0.5241870000000 1.0
C      1  0.5137150000000  0.4962470000000  0.5694290000000 1.0
C      1  0.5622710000000  0.4044380000000  0.5203590000000 1.0
C      1  0.5301130000000  0.5692000000000  0.5009380000000 1.0
C      1  0.4820140000000  0.5322970000000  0.5440870000000 1.0
C      1  0.4073490000000  0.5689250000000  0.4957370000000 1.0
C      1  0.5306340000000  0.5082240000000  0.4398440000000 1.0
C      1  0.5246720000000  0.5194700000000  0.6170730000000 1.0
C      1  0.4802480000000  0.4916090000000  0.3776460000000 1.0
C      1  0.4585030000000  0.4359810000000  0.5725680000000 1.0
C      1  0.4611800000000  0.4354130000000  0.5201410000000 1.0
C      1  0.4006260000000  0.5215690000000  0.5325230000000 1.0
C      1  0.4178610000000  0.5424110000000  0.4423280000000 1.0
C      1  0.5211790000000  0.4037190000000  0.4725840000000 1.0
C      1  0.3813460000000  0.5155930000000  0.4867710000000 1.0
C      1  0.5842380000000  0.5365150000000  0.5713780000000 1.0
C      1  0.5385610000000  0.4937320000000  0.6092090000000 1.0
C      1  0.4380230000000  0.4604080000000  0.4772130000000 1.0
C      1  0.3711760000000  0.4025560000000  0.4590320000000 1.0
C      1  0.5326580000000  0.4274310000000  0.3738380000000 1.0
C      1  0.5348640000000  0.3851050000000  0.4858810000000 1.0
C      1  0.3874940000000  0.4393780000000  0.4917970000000 1.0
C      1  0.4002990000000  0.5016600000000  0.4682630000000 1.0
C      1  0.5538850000000  0.4957800000000  0.5298800000000 1.0
C      1  0.4850950000000  0.4926180000000  0.4444870000000 1.0
C      1  0.4831970000000  0.4669670000000  0.4913300000000 1.0
C      1  0.5049060000000  0.5131300000000  0.4502740000000 1.0
C      1  0.4576140000000  0.4925560000000  0.3917370000000 1.0
C      1  0.4879790000000  0.4336860000000  0.5758110000000 1.0
C      1  0.5316140000000  0.4750300000000  0.5325610000000 1.0
C      1  0.5967280000000  0.4632260000000  0.4658670000000 1.0
C      1  0.4039810000000  0.5691270000000  0.4495380000000 1.0
C      1  0.3803050000000  0.5081580000000  0.5156630000000 1.0
C      1  0.5954180000000  0.4904730000000  0.4218480000000 1.0
C      1  0.5488720000000  0.5196010000000  0.5453700000000 1.0
C      1  0.5375480000000  0.5332150000000  0.3844480000000 1.0
C      1  0.6013800000000  0.4698430000000  0.4386530000000 1.0
C      1  0.5173010000000  0.5688850000000  0.4123200000000 1.0
C      1  0.5495010000000  0.5129200000000  0.4605330000000 1.0
C      1  0.5797030000000  0.5469930000000  0.4492360000000 1.0
C      1  0.5085440000000  0.5697080000000  0.3854020000000 1.0
C      1  0.5536250000000  0.3813610000000  0.5063750000000 1.0
C      1  0.4629770000000  0.5061800000000  0.5129110000000 1.0
C      1  0.4054660000000  0.4036420000000  0.4220810000000 1.0
C      1  0.5206280000000  0.5509340000000  0.3693980000000 1.0
C      1  0.5378710000000  0.6073130000000  0.4625780000000 1.0
C      1  0.6126210000000  0.5138480000000  0.5043790000000 1.0
C      1  0.5666500000000  0.4998820000000  0.5976810000000 1.0
C      1  0.3765110000000  0.4568090000000  0.5108690000000 1.0
C      1  0.4551150000000  0.4536240000000  0.4510780000000 1.0
C      1  0.5030700000000  0.5501850000000  0.5406630000000 1.0
C      1  0.4291670000000  0.4905950000000  0.4791020000000 1.0
C      1  0.4732940000000  0.5018280000000  0.6071370000000 1.0
C      1  0.4857020000000  0.4213740000000  0.5255020000000 1.0
C      1  0.4480180000000  0.4354000000000  0.5454480000000 1.0
C      1  0.4441210000000  0.4975120000000  0.4156910000000 1.0
C      1  0.4849030000000  0.4916100000000  0.5633920000000 1.0
C      1  0.5054880000000  0.5785970000000  0.4362380000000 1.0
C      1  0.5713760000000  0.5390320000000  0.4224170000000 1.0
C      1  0.5308050000000  0.4744390000000  0.5620510000000 1.0
C      1  0.5541930000000  0.4894650000000  0.4747690000000 1.0
C      1  0.5463880000000  0.5477030000000  0.4088860000000 1.0
C      1  0.5069350000000  0.5343550000000  0.4694030000000 1.0
C      1  0.4819610000000  0.5029320000000  0.5359040000000 1.0
C      1  0.4104440000000  0.5272440000000  0.5591520000000 1.0
C      1  0.4715810000000  0.5317180000000  0.5016030000000 1.0
C      1  0.5056630000000  0.4830610000000  0.4946870000000 1.0
C      1  0.5267500000000  0.5825120000000  0.4550030000000 1.0
C      1  0.5073490000000  0.4903020000000  0.5220600000000 1.0
C      1  0.5677550000000  0.5408680000000  0.5478010000000 1.0
C      1  0.5303490000000  0.5739570000000  0.5719960000000 1.0
C      1  0.4272990000000  0.4188510000000  0.4211380000000 1.0
C      1  0.5340290000000  0.5592310000000  0.4719090000000 1.0
C      1  0.5196430000000  0.5494940000000  0.5637570000000 1.0
C      1  0.5729520000000  0.5288030000000  0.5964460000000 1.0
C      1  0.5717940000000  0.5441330000000  0.4982130000000 1.0
C      1  0.5323440000000  0.5971480000000  0.5583160000000 1.0
C      1  0.6059910000000  0.5426500000000  0.4603620000000 1.0
C      1  0.3727020000000  0.4814480000000  0.5205810000000 1.0
C      1  0.4592880000000  0.4535540000000  0.4983090000000 1.0
C      1  0.5343570000000  0.4969560000000  0.4146730000000 1.0
C      1  0.4666770000000  0.5813900000000  0.5020430000000 1.0
C      1  0.4158860000000  0.4992070000000  0.4192090000000 1.0
C      1  0.4311950000000  0.5340670000000  0.5759990000000 1.0
C      1  0.4358960000000  0.5012360000000  0.5069730000000 1.0
C      1  0.5520370000000  0.4576000000000  0.5721090000000 1.0
C      1  0.5972870000000  0.4406360000000  0.5160620000000 1.0
C      1  0.5373430000000  0.4349060000000  0.5807280000000 1.0
C      1  0.5632310000000  0.3560400000000  0.5128740000000 1.0
C      1  0.5028150000000  0.5359140000000  0.6142490000000 1.0
C      1  0.4610880000000  0.5820790000000  0.5521770000000 1.0
C      1  0.4832490000000  0.4633660000000  0.4478870000000 1.0
C      1  0.3730810000000  0.5419130000000  0.4779880000000 1.0
C      1  0.5223000000000  0.6051180000000  0.5331460000000 1.0
C      1  0.5930520000000  0.4935460000000  0.5011100000000 1.0
C      1  0.4613970000000  0.5727730000000  0.5792820000000 1.0
C      1  0.4558340000000  0.5553070000000  0.5032810000000 1.0
C      1  0.4751070000000  0.5890870000000  0.4755550000000 1.0
C      1  0.4212650000000  0.5249190000000  0.5134800000000 1.0
END
