TITL C-3866669-3764-354 1.32032430311433 125000 -192.40588802291 0 0 33 (C1) n - 1
REM
REM in /home/nfs/bkarasulu/CARBON/AIRSS/Generating-Clusters/LCBOP/Only-C1/SD-CG/FIRE-CG
REM
REM
REM
REM
REM
REM ./C.cell (11c1c37f851c82e70ff6c80c92926a4b)
REM AIRSS Version 0.9.1 bugfix July 2018 build 013d7b7c2542+ Fri, 06 Jul 2018 19:26:36 +0100
REM compiler GCC version 9.2.1 20190827 (Red Hat 9.2.1-1)
REM options -cpp -mtune=generic -march=x86-64 -g -O0 -fpre-include=/usr/include/finclude/math-vector-fortran.h
REM seed 1685535244 -1940653111 -1016004755 -1886590668 125559907 586228795 715096442 -730800392 1822688564 1799734004 -1087051498 2023651256 2019387253 -347087086 1916675463 -513109934 1899094373 154005003 2111533971 794990576 -347225123 2071571497 -1500767454 -985159453 -557089388 -1519628371 138369641 1383348124 -1792597013 -1594627683 -1628491296 -384411123 2118761103
REM
CELL 1.54180   50.00000   50.00000   50.00000   90.00000   90.00000   90.00000
LATT -1
SFAC C  
C      1  0.4852490000000  0.5855620000000  0.5154340000000 1.0
C      1  0.5900910000000  0.5260230000000  0.4507130000000 1.0
C      1  0.4878880000000  0.5457950000000  0.4232300000000 1.0
C      1  0.5784530000000  0.5732400000000  0.5107330000000 1.0
C      1  0.5937480000000  0.5417830000000  0.4717190000000 1.0
C      1  0.5591490000000  0.5854760000000  0.5242340000000 1.0
C      1  0.4711830000000  0.5435830000000  0.4958060000000 1.0
C      1  0.4713010000000  0.4952630000000  0.5004820000000 1.0
C      1  0.4734060000000  0.5679370000000  0.4267100000000 1.0
C      1  0.5901060000000  0.5580130000000  0.4923870000000 1.0
C      1  0.5009990000000  0.5248720000000  0.4365670000000 1.0
C      1  0.5794470000000  0.5109500000000  0.4296600000000 1.0
C      1  0.5342870000000  0.5925300000000  0.5303330000000 1.0
C      1  0.4800100000000  0.3889000000000  0.5683520000000 1.0
C      1  0.4630390000000  0.5832050000000  0.4460200000000 1.0
C      1  0.4648040000000  0.3497930000000  0.5933800000000 1.0
C      1  0.5078940000000  0.5926970000000  0.5273470000000 1.0
C      1  0.5517280000000  0.5109440000000  0.4257560000000 1.0
C      1  0.5958230000000  0.4965020000000  0.4132160000000 1.0
C      1  0.4269320000000  0.4208450000000  0.5481720000000 1.0
C      1  0.4618840000000  0.5846380000000  0.4726670000000 1.0
C      1  0.4534670000000  0.4289160000000  0.5429120000000 1.0
C      1  0.4595700000000  0.4517420000000  0.5283150000000 1.0
C      1  0.4901930000000  0.5161250000000  0.4609270000000 1.0
C      1  0.5063230000000  0.3824730000000  0.5723490000000 1.0
C      1  0.4711710000000  0.5716420000000  0.4957460000000 1.0
C      1  0.4732400000000  0.4119680000000  0.5536520000000 1.0
C      1  0.4591140000000  0.3723540000000  0.5790000000000 1.0
C      1  0.4185000000000  0.3993120000000  0.5619530000000 1.0
C      1  0.4775150000000  0.5181720000000  0.4858350000000 1.0
C      1  0.4323930000000  0.3799430000000  0.5742630000000 1.0
C      1  0.4654350000000  0.4735030000000  0.5143980000000 1.0
C      1  0.5256560000000  0.5152990000000  0.4277310000000 1.0
END
