TITL C-3866669-3764-80 0.923027880354102 125000 -416.842105753107 0 0 72 (C1) n - 1
REM
REM in /home/nfs/bkarasulu/CARBON/AIRSS/Generating-Clusters/LCBOP/Only-C1/SD-CG/HFTN-CG/FIRE-CG
REM
REM
REM
REM
REM
REM ./C.cell (11c1c37f851c82e70ff6c80c92926a4b)
REM AIRSS Version 0.9.1 bugfix July 2018 build 013d7b7c2542+ Fri, 06 Jul 2018 19:26:36 +0100
REM compiler GCC version 9.2.1 20190827 (Red Hat 9.2.1-1)
REM options -cpp -mtune=generic -march=x86-64 -g -O0 -fpre-include=/usr/include/finclude/math-vector-fortran.h
REM seed -305862411 917239601 -1125617877 62044066 925708564 1172652092 888014429 164587256 -266349625 164344878 1257166631 -593007647 387922478 2065407112 -1325472530 -296212878 1573892506 -97050562 1609454301 979890974 1639469161 -1890615033 1294336346 -2031312796 -839819912 602798212 -1980830888 565433295 663314517 392053318 1833247347 1269051024 -1910599050
REM
CELL 1.54180   50.00000   50.00000   50.00000   90.00000   90.00000   90.00000
LATT -1
SFAC C  
C      1  0.4278530000000  0.5020440000000  0.4995110000000 1.0
C      1  0.4005870000000  0.5589640000000  0.4968380000000 1.0
C      1  0.5348660000000  0.4433440000000  0.4662350000000 1.0
C      1  0.6163880000000  0.4569460000000  0.5801340000000 1.0
C      1  0.5014150000000  0.4955730000000  0.5875860000000 1.0
C      1  0.5510420000000  0.4655060000000  0.4717270000000 1.0
C      1  0.5160050000000  0.4219060000000  0.5103590000000 1.0
C      1  0.4898130000000  0.4702040000000  0.5305370000000 1.0
C      1  0.4651730000000  0.4825420000000  0.5243180000000 1.0
C      1  0.5257980000000  0.4210640000000  0.5590560000000 1.0
C      1  0.4875530000000  0.5611170000000  0.5123800000000 1.0
C      1  0.4457230000000  0.5398440000000  0.3918410000000 1.0
C      1  0.5287640000000  0.4362590000000  0.4384600000000 1.0
C      1  0.5397410000000  0.5373590000000  0.4882630000000 1.0
C      1  0.3913190000000  0.5396860000000  0.4529740000000 1.0
C      1  0.4065020000000  0.5400880000000  0.4764060000000 1.0
C      1  0.4877910000000  0.4444410000000  0.5424280000000 1.0
C      1  0.5442410000000  0.4414280000000  0.4161800000000 1.0
C      1  0.4508880000000  0.5230880000000  0.4636900000000 1.0
C      1  0.4986210000000  0.6429790000000  0.4696620000000 1.0
C      1  0.4965150000000  0.5018130000000  0.4726650000000 1.0
C      1  0.5650240000000  0.5313250000000  0.5536150000000 1.0
C      1  0.4988130000000  0.5319110000000  0.5497810000000 1.0
C      1  0.5034200000000  0.4227100000000  0.4393530000000 1.0
C      1  0.4963100000000  0.5163180000000  0.5713630000000 1.0
C      1  0.4664350000000  0.4376900000000  0.5590500000000 1.0
C      1  0.4941220000000  0.6173970000000  0.4677200000000 1.0
C      1  0.5651490000000  0.4899920000000  0.4714490000000 1.0
C      1  0.5535130000000  0.5452390000000  0.5341740000000 1.0
C      1  0.5405740000000  0.4784680000000  0.5298400000000 1.0
C      1  0.5084490000000  0.4257230000000  0.5372080000000 1.0
C      1  0.4462270000000  0.4322140000000  0.5745630000000 1.0
C      1  0.4032660000000  0.6123020000000  0.4318360000000 1.0
C      1  0.5670280000000  0.4398120000000  0.5450040000000 1.0
C      1  0.4279390000000  0.5219920000000  0.4797680000000 1.0
C      1  0.5906690000000  0.4903770000000  0.4614200000000 1.0
C      1  0.6106110000000  0.4360100000000  0.5646710000000 1.0
C      1  0.4465670000000  0.5598580000000  0.4085110000000 1.0
C      1  0.4464740000000  0.4328450000000  0.4857670000000 1.0
C      1  0.4934380000000  0.4203950000000  0.4662030000000 1.0
C      1  0.4136700000000  0.5830200000000  0.4971980000000 1.0
C      1  0.5594970000000  0.4574540000000  0.5237120000000 1.0
C      1  0.5877970000000  0.4985550000000  0.5810030000000 1.0
C      1  0.5464390000000  0.4392660000000  0.5656260000000 1.0
C      1  0.4669550000000  0.4201790000000  0.4744280000000 1.0
C      1  0.4464050000000  0.5801330000000  0.4277240000000 1.0
C      1  0.5060130000000  0.5448340000000  0.5257390000000 1.0
C      1  0.4680090000000  0.5830450000000  0.4451460000000 1.0
C      1  0.5662140000000  0.5058400000000  0.5647560000000 1.0
C      1  0.5328030000000  0.5430110000000  0.5154980000000 1.0
C      1  0.5141300000000  0.5733450000000  0.4592000000000 1.0
C      1  0.5470660000000  0.4863780000000  0.5569930000000 1.0
C      1  0.4417940000000  0.4797130000000  0.5089370000000 1.0
C      1  0.4759300000000  0.5143390000000  0.4614580000000 1.0
C      1  0.5595340000000  0.4472620000000  0.3959010000000 1.0
C      1  0.5388790000000  0.4655770000000  0.5754720000000 1.0
C      1  0.5913660000000  0.4256630000000  0.5470700000000 1.0
C      1  0.3795570000000  0.5412960000000  0.4292910000000 1.0
C      1  0.5099530000000  0.4914780000000  0.4931390000000 1.0
C      1  0.4245350000000  0.5974110000000  0.4295900000000 1.0
C      1  0.6070570000000  0.4810630000000  0.5866270000000 1.0
C      1  0.5157160000000  0.4289830000000  0.4833230000000 1.0
C      1  0.5314840000000  0.5553980000000  0.4684420000000 1.0
C      1  0.5539690000000  0.5140630000000  0.4811050000000 1.0
C      1  0.3694560000000  0.5440280000000  0.4054150000000 1.0
C      1  0.4366870000000  0.4542800000000  0.4981740000000 1.0
C      1  0.3818670000000  0.5528160000000  0.5158640000000 1.0
C      1  0.5958940000000  0.4029280000000  0.5326580000000 1.0
C      1  0.5141200000000  0.4804100000000  0.5186600000000 1.0
C      1  0.4805440000000  0.5770930000000  0.4922950000000 1.0
C      1  0.5172770000000  0.4740390000000  0.5914550000000 1.0
C      1  0.4887560000000  0.5883280000000  0.4655550000000 1.0
END
