TITL C-3866676-3738-267 0.450298238809056 125000 -388.481092306454 0 0 66 (C1) n - 1
REM
REM in /home/nfs/bkarasulu/CARBON/AIRSS/Generating-Clusters/LCBOP/Only-C1/SD-CG/HFTN-CG/FIRE-CG
REM
REM
REM
REM
REM
REM ./C.cell (11c1c37f851c82e70ff6c80c92926a4b)
REM AIRSS Version 0.9.1 bugfix July 2018 build 013d7b7c2542+ Fri, 06 Jul 2018 19:26:36 +0100
REM compiler GCC version 9.2.1 20190827 (Red Hat 9.2.1-1)
REM options -cpp -mtune=generic -march=x86-64 -g -O0 -fpre-include=/usr/include/finclude/math-vector-fortran.h
REM seed -538331142 1994784987 7269454 -244685627 -790583635 2130222826 -1197172343 -1171112008 930112486 1926051311 -1442073822 838654235 1173031218 413686268 -1342431850 745818114 813520844 2129119026 4484858 1175421811 -1105450553 -1691093430 -253526778 1847473434 1466229098 120088227 522893076 666496090 -417739741 840014966 886247213 -100605438 196225866
REM
CELL 1.54180   50.00000   50.00000   50.00000   90.00000   90.00000   90.00000
LATT -1
SFAC C  
C      1  0.4359920000000  0.5168850000000  0.5483340000000 1.0
C      1  0.5529960000000  0.5638970000000  0.4899190000000 1.0
C      1  0.5588180000000  0.4683490000000  0.5112060000000 1.0
C      1  0.5286090000000  0.5094300000000  0.5105620000000 1.0
C      1  0.5144660000000  0.4574450000000  0.4690330000000 1.0
C      1  0.5304520000000  0.5795440000000  0.4822760000000 1.0
C      1  0.4609700000000  0.3916180000000  0.4941240000000 1.0
C      1  0.5372510000000  0.4649710000000  0.4542290000000 1.0
C      1  0.5740290000000  0.4961710000000  0.4560460000000 1.0
C      1  0.4801780000000  0.5016930000000  0.4197610000000 1.0
C      1  0.4478160000000  0.4330340000000  0.4341910000000 1.0
C      1  0.4678610000000  0.5664500000000  0.4603870000000 1.0
C      1  0.4575780000000  0.5786980000000  0.5073700000000 1.0
C      1  0.4394900000000  0.4919590000000  0.5577210000000 1.0
C      1  0.5489950000000  0.5719230000000  0.5380780000000 1.0
C      1  0.4541240000000  0.5069330000000  0.4832270000000 1.0
C      1  0.5650190000000  0.5688870000000  0.5153040000000 1.0
C      1  0.5039870000000  0.4746130000000  0.4887510000000 1.0
C      1  0.6452660000000  0.5733410000000  0.5191970000000 1.0
C      1  0.5045380000000  0.5733280000000  0.4911790000000 1.0
C      1  0.5078320000000  0.4304050000000  0.4688990000000 1.0
C      1  0.5065430000000  0.5046440000000  0.4898980000000 1.0
C      1  0.5638990000000  0.5448250000000  0.4723720000000 1.0
C      1  0.4415260000000  0.5406130000000  0.5370390000000 1.0
C      1  0.4843410000000  0.5261830000000  0.4293320000000 1.0
C      1  0.4182610000000  0.5635210000000  0.4596300000000 1.0
C      1  0.5328290000000  0.4280470000000  0.5344040000000 1.0
C      1  0.6192330000000  0.5722350000000  0.5183640000000 1.0
C      1  0.4682390000000  0.4475360000000  0.5618520000000 1.0
C      1  0.4446470000000  0.4003230000000  0.4747650000000 1.0
C      1  0.5635710000000  0.4708540000000  0.4625190000000 1.0
C      1  0.4511810000000  0.4682400000000  0.5623840000000 1.0
C      1  0.5032890000000  0.3442070000000  0.5509340000000 1.0
C      1  0.4780780000000  0.4964980000000  0.5243180000000 1.0
C      1  0.4533990000000  0.5659140000000  0.5327260000000 1.0
C      1  0.5035770000000  0.4075280000000  0.4815540000000 1.0
C      1  0.5706790000000  0.4585450000000  0.4874150000000 1.0
C      1  0.4412900000000  0.4152830000000  0.4529410000000 1.0
C      1  0.5342310000000  0.6012320000000  0.4659280000000 1.0
C      1  0.4988050000000  0.3924490000000  0.5272690000000 1.0
C      1  0.4147220000000  0.5414750000000  0.4745810000000 1.0
C      1  0.4589500000000  0.5810700000000  0.5550930000000 1.0
C      1  0.5012080000000  0.3675230000000  0.5394810000000 1.0
C      1  0.5176300000000  0.4719810000000  0.5349000000000 1.0
C      1  0.5082780000000  0.5546290000000  0.5647740000000 1.0
C      1  0.4780630000000  0.5107350000000  0.4982300000000 1.0
C      1  0.4935130000000  0.5108360000000  0.5447210000000 1.0
C      1  0.4593070000000  0.4534700000000  0.4215680000000 1.0
C      1  0.4813400000000  0.5485060000000  0.4435270000000 1.0
C      1  0.4880160000000  0.4305030000000  0.5556490000000 1.0
C      1  0.4426570000000  0.6015140000000  0.5028350000000 1.0
C      1  0.4710980000000  0.4768490000000  0.4167130000000 1.0
C      1  0.5197360000000  0.5011820000000  0.5380190000000 1.0
C      1  0.4926190000000  0.5332860000000  0.5609320000000 1.0
C      1  0.4314090000000  0.5232490000000  0.4847310000000 1.0
C      1  0.5395410000000  0.4549250000000  0.5284620000000 1.0
C      1  0.5927870000000  0.5710100000000  0.5173720000000 1.0
C      1  0.5293600000000  0.5680540000000  0.5555620000000 1.0
C      1  0.4512060000000  0.4833940000000  0.4693860000000 1.0
C      1  0.5074290000000  0.4162190000000  0.5405880000000 1.0
C      1  0.4879300000000  0.3951160000000  0.5011950000000 1.0
C      1  0.4938350000000  0.4703960000000  0.5167210000000 1.0
C      1  0.5544830000000  0.4970360000000  0.5089130000000 1.0
C      1  0.5723290000000  0.5224860000000  0.4604880000000 1.0
C      1  0.4418660000000  0.5746120000000  0.4529130000000 1.0
C      1  0.4768070000000  0.5716930000000  0.4872040000000 1.0
END
