TITL C-3866670-4165-468 1721.56657959878 125000 -956.12579063224 0 0 156 (C1) n - 1
REM
REM in /home/nfs/bkarasulu/CARBON/AIRSS/Generating-Clusters/LCBOP/Only-C1/SD-CG/FIRE-CG
REM
REM
REM
REM
REM
REM ./C.cell (11c1c37f851c82e70ff6c80c92926a4b)
REM AIRSS Version 0.9.1 bugfix July 2018 build 013d7b7c2542+ Fri, 06 Jul 2018 19:26:36 +0100
REM compiler GCC version 9.2.1 20190827 (Red Hat 9.2.1-1)
REM options -cpp -mtune=generic -march=x86-64 -g -O0 -fpre-include=/usr/include/finclude/math-vector-fortran.h
REM seed 1505480261 -848658968 -81040680 -1103348307 1794222098 -634109639 1987607734 1840822322 -1514158771 -340149148 -1551891143 -1464749259 469730106 -527526456 2137706954 -996333564 1101801638 815586149 -1698434381 1287501328 -453882900 -1856631483 510983429 -1126005375 416189769 -438020937 1178922696 864920532 -942070277 205563740 1712989234 -1747563925 -124835898
REM
CELL 1.54180   50.00000   50.00000   50.00000   90.00000   90.00000   90.00000
LATT -1
SFAC C  
C      1  0.4649430000000  0.5201630000000  0.6056340000000 1.0
C      1  0.3823940000000  0.4960680000000  0.4372230000000 1.0
C      1  0.4458090000000  0.4740310000000  0.3724120000000 1.0
C      1  0.5093640000000  0.4903050000000  0.4885860000000 1.0
C      1  0.4923450000000  0.5215590000000  0.5239910000000 1.0
C      1  0.6107220000000  0.5389940000000  0.4817980000000 1.0
C      1  0.4912400000000  0.4785820000000  0.5499460000000 1.0
C      1  0.5190620000000  0.5011110000000  0.6025750000000 1.0
C      1  0.5712400000000  0.4712090000000  0.4057280000000 1.0
C      1  0.4776030000000  0.4727060000000  0.5968520000000 1.0
C      1  0.5089500000000  0.5904640000000  0.5762380000000 1.0
C      1  0.5550840000000  0.5180930000000  0.5117440000000 1.0
C      1  0.3921520000000  0.5039470000000  0.4871490000000 1.0
C      1  0.3923730000000  0.4872930000000  0.4629770000000 1.0
C      1  0.5711020000000  0.4751600000000  0.4688680000000 1.0
C      1  0.3873910000000  0.4102240000000  0.4986880000000 1.0
C      1  0.4277230000000  0.4712960000000  0.5825440000000 1.0
C      1  0.3915510000000  0.5373200000000  0.5631710000000 1.0
C      1  0.4651750000000  0.5455350000000  0.4456980000000 1.0
C      1  0.5033220000000  0.4516370000000  0.5457120000000 1.0
C      1  0.5956830000000  0.5553660000000  0.4663650000000 1.0
C      1  0.4205570000000  0.4388290000000  0.4671230000000 1.0
C      1  0.4840850000000  0.4307620000000  0.5535380000000 1.0
C      1  0.4961790000000  0.5852360000000  0.5186040000000 1.0
C      1  0.5570810000000  0.4303800000000  0.5329620000000 1.0
C      1  0.6247260000000  0.3967420000000  0.4851500000000 1.0
C      1  0.5562220000000  0.4019910000000  0.5362860000000 1.0
C      1  0.4137590000000  0.4662350000000  0.4602480000000 1.0
C      1  0.4006660000000  0.4927430000000  0.4152270000000 1.0
C      1  0.4788170000000  0.5010950000000  0.4465480000000 1.0
C      1  0.5014220000000  0.5515910000000  0.4753960000000 1.0
C      1  0.5669310000000  0.5436770000000  0.4286770000000 1.0
C      1  0.4234090000000  0.5866130000000  0.5103930000000 1.0
C      1  0.4007500000000  0.5326340000000  0.4921890000000 1.0
C      1  0.5118780000000  0.5671290000000  0.4540100000000 1.0
C      1  0.4569220000000  0.5299510000000  0.4890900000000 1.0
C      1  0.6033010000000  0.4438390000000  0.5013460000000 1.0
C      1  0.4539530000000  0.4930250000000  0.4579500000000 1.0
C      1  0.5559810000000  0.5876710000000  0.4591710000000 1.0
C      1  0.4367460000000  0.4343470000000  0.5481540000000 1.0
C      1  0.4748000000000  0.5428230000000  0.4724030000000 1.0
C      1  0.4076070000000  0.4850800000000  0.5647880000000 1.0
C      1  0.4034190000000  0.4238140000000  0.4832780000000 1.0
C      1  0.5294980000000  0.4429760000000  0.5308890000000 1.0
C      1  0.5305870000000  0.4919290000000  0.4136610000000 1.0
C      1  0.4448390000000  0.4263370000000  0.4562620000000 1.0
C      1  0.4864530000000  0.6041740000000  0.4677530000000 1.0
C      1  0.5518530000000  0.4899040000000  0.5177470000000 1.0
C      1  0.5190810000000  0.5926120000000  0.4599790000000 1.0
C      1  0.4640920000000  0.4529590000000  0.4130950000000 1.0
C      1  0.4841380000000  0.5334150000000  0.6214320000000 1.0
C      1  0.5782340000000  0.5189690000000  0.4174100000000 1.0
C      1  0.5412980000000  0.5271180000000  0.5631050000000 1.0
C      1  0.4980980000000  0.4592290000000  0.4492000000000 1.0
C      1  0.5413680000000  0.5301890000000  0.5351310000000 1.0
C      1  0.4983580000000  0.5576840000000  0.4095680000000 1.0
C      1  0.5038140000000  0.3996040000000  0.4336020000000 1.0
C      1  0.5523420000000  0.6095330000000  0.5380720000000 1.0
C      1  0.5457360000000  0.4794550000000  0.5692010000000 1.0
C      1  0.4462180000000  0.5047250000000  0.4822930000000 1.0
C      1  0.5428960000000  0.5924540000000  0.5206720000000 1.0
C      1  0.4895470000000  0.3995570000000  0.5148450000000 1.0
C      1  0.5165000000000  0.4650250000000  0.4073560000000 1.0
C      1  0.5398720000000  0.5383510000000  0.4350220000000 1.0
C      1  0.5373650000000  0.5054820000000  0.5807630000000 1.0
C      1  0.4061420000000  0.4748990000000  0.5369800000000 1.0
C      1  0.3978970000000  0.5534070000000  0.5398140000000 1.0
C      1  0.4271280000000  0.4826970000000  0.4170960000000 1.0
C      1  0.5973400000000  0.5481830000000  0.5522630000000 1.0
C      1  0.4863830000000  0.5318800000000  0.4048920000000 1.0
C      1  0.5888120000000  0.4961780000000  0.5495110000000 1.0
C      1  0.4795460000000  0.5602210000000  0.6280860000000 1.0
C      1  0.5137780000000  0.3934430000000  0.5565900000000 1.0
C      1  0.4330070000000  0.5254810000000  0.5291800000000 1.0
C      1  0.4888720000000  0.4952670000000  0.5084730000000 1.0
C      1  0.4207220000000  0.5910900000000  0.5598220000000 1.0
C      1  0.3574190000000  0.5065870000000  0.4340000000000 1.0
C      1  0.4587450000000  0.5896460000000  0.4631750000000 1.0
C      1  0.6167380000000  0.4897230000000  0.4415710000000 1.0
C      1  0.4590350000000  0.4370650000000  0.5655690000000 1.0
C      1  0.4385830000000  0.5888040000000  0.5795250000000 1.0
C      1  0.5917740000000  0.5228030000000  0.5588510000000 1.0
C      1  0.5989450000000  0.5882850000000  0.5177470000000 1.0
C      1  0.4618050000000  0.5730650000000  0.4385470000000 1.0
C      1  0.4798230000000  0.5827150000000  0.6114160000000 1.0
C      1  0.5701500000000  0.6039760000000  0.4773690000000 1.0
C      1  0.5221070000000  0.5783790000000  0.5087540000000 1.0
C      1  0.5525110000000  0.4700300000000  0.4494550000000 1.0
C      1  0.5340880000000  0.4412810000000  0.4150800000000 1.0
C      1  0.5435880000000  0.5297790000000  0.4856120000000 1.0
C      1  0.5881440000000  0.6017340000000  0.4972330000000 1.0
C      1  0.5033860000000  0.4872300000000  0.4586830000000 1.0
C      1  0.5313530000000  0.4313760000000  0.5871480000000 1.0
C      1  0.4136380000000  0.5544950000000  0.4767250000000 1.0
C      1  0.4515130000000  0.4332740000000  0.4293500000000 1.0
C      1  0.4463520000000  0.5080060000000  0.5472130000000 1.0
C      1  0.4906420000000  0.4599130000000  0.4203400000000 1.0
C      1  0.5296400000000  0.4036760000000  0.4879700000000 1.0
C      1  0.5318250000000  0.3876920000000  0.5345290000000 1.0
C      1  0.5598180000000  0.4982600000000  0.4058970000000 1.0
C      1  0.4856340000000  0.5191070000000  0.3810170000000 1.0
C      1  0.4460040000000  0.4694870000000  0.5149600000000 1.0
C      1  0.6210460000000  0.4730750000000  0.4625540000000 1.0
C      1  0.5056740000000  0.5934540000000  0.6035250000000 1.0
C      1  0.4782070000000  0.5782030000000  0.4153090000000 1.0
C      1  0.6185340000000  0.4913410000000  0.5072400000000 1.0
C      1  0.5171400000000  0.3903110000000  0.5094130000000 1.0
C      1  0.4458260000000  0.4705590000000  0.3994110000000 1.0
C      1  0.4695860000000  0.4994360000000  0.5878500000000 1.0
C      1  0.4041750000000  0.4893110000000  0.5098970000000 1.0
C      1  0.5324310000000  0.4776130000000  0.5002080000000 1.0
C      1  0.5151480000000  0.4378940000000  0.4568750000000 1.0
C      1  0.5741120000000  0.5642280000000  0.4489750000000 1.0
C      1  0.4751160000000  0.5236860000000  0.4296520000000 1.0
C      1  0.5387080000000  0.5200880000000  0.4575560000000 1.0
C      1  0.5809570000000  0.4973170000000  0.4782550000000 1.0
C      1  0.4312140000000  0.5784850000000  0.4831730000000 1.0
C      1  0.4825600000000  0.5701600000000  0.5383070000000 1.0
C      1  0.3963710000000  0.5111640000000  0.5701380000000 1.0
C      1  0.5217600000000  0.5498490000000  0.4971890000000 1.0
C      1  0.6029280000000  0.5080730000000  0.4272410000000 1.0
C      1  0.5213330000000  0.4220180000000  0.4330280000000 1.0
C      1  0.5624800000000  0.4837240000000  0.5452450000000 1.0
C      1  0.5805370000000  0.4413160000000  0.5192980000000 1.0
C      1  0.4827380000000  0.3957550000000  0.4506610000000 1.0
C      1  0.6198270000000  0.5177200000000  0.4959080000000 1.0
C      1  0.4112130000000  0.5791800000000  0.5361610000000 1.0
C      1  0.4073610000000  0.5347450000000  0.5207110000000 1.0
C      1  0.4845380000000  0.5802640000000  0.5642290000000 1.0
C      1  0.4764320000000  0.4164900000000  0.4953420000000 1.0
C      1  0.4648320000000  0.5821800000000  0.5858830000000 1.0
C      1  0.5166700000000  0.5351110000000  0.5227640000000 1.0
C      1  0.4731600000000  0.4695550000000  0.5095000000000 1.0
C      1  0.5072200000000  0.4736300000000  0.5996670000000 1.0
C      1  0.4898610000000  0.4047040000000  0.5440240000000 1.0
C      1  0.4321290000000  0.4888730000000  0.5007620000000 1.0
C      1  0.5093190000000  0.5206040000000  0.6203730000000 1.0
C      1  0.5266490000000  0.4311790000000  0.4816620000000 1.0
C      1  0.4656300000000  0.4099790000000  0.4691450000000 1.0
C      1  0.6106370000000  0.4877130000000  0.5339370000000 1.0
C      1  0.6158820000000  0.4680830000000  0.4903710000000 1.0
C      1  0.5188460000000  0.5557800000000  0.4293980000000 1.0
C      1  0.4544520000000  0.4568170000000  0.5862900000000 1.0
C      1  0.4280020000000  0.4553400000000  0.5321080000000 1.0
C      1  0.6149700000000  0.4195110000000  0.4932430000000 1.0
C      1  0.5580950000000  0.4545300000000  0.4250560000000 1.0
C      1  0.4698690000000  0.4972690000000  0.5593530000000 1.0
C      1  0.6008430000000  0.5698860000000  0.5370650000000 1.0
C      1  0.5310660000000  0.4928460000000  0.4457890000000 1.0
C      1  0.5293030000000  0.4500140000000  0.5027190000000 1.0
C      1  0.4806980000000  0.4442670000000  0.4996940000000 1.0
C      1  0.4341740000000  0.4791030000000  0.4444130000000 1.0
C      1  0.5238640000000  0.4066510000000  0.5794990000000 1.0
C      1  0.4523250000000  0.5393360000000  0.5147820000000 1.0
C      1  0.4747470000000  0.5440680000000  0.5301370000000 1.0
C      1  0.5292930000000  0.4594290000000  0.5850800000000 1.0
END
