TITL C-3866673-4222-636 309258.958446841 125000 -1228.71273608484 0 0 200 (C1) n - 1
REM
REM in /home/nfs/bkarasulu/CARBON/AIRSS/Generating-Clusters/LCBOP/Only-C1/SD-CG/FIRE-CG
REM
REM
REM
REM
REM
REM ./C.cell (11c1c37f851c82e70ff6c80c92926a4b)
REM AIRSS Version 0.9.1 bugfix July 2018 build 013d7b7c2542+ Fri, 06 Jul 2018 19:26:36 +0100
REM compiler GCC version 9.2.1 20190827 (Red Hat 9.2.1-1)
REM options -cpp -mtune=generic -march=x86-64 -g -O0 -fpre-include=/usr/include/finclude/math-vector-fortran.h
REM seed 1873925523 991911162 -1821052788 594470613 1281872850 988058330 -662514455 -903938485 -1853594688 4326449 -444806676 2126087575 1792800217 -119272072 1567705307 1357604823 894479593 1088056372 -1108636497 2086168767 1808963246 1965852330 -1847696550 -501724527 -793125436 1161122192 567808740 1524920030 1768454111 1320761458 364356772 -319720967 -1701479471
REM
CELL 1.54180   50.00000   50.00000   50.00000   90.00000   90.00000   90.00000
LATT -1
SFAC C  
C      1  0.5055940000000  0.5883580000000  0.4554040000000 1.0
C      1  0.6105450000000  0.4457030000000  0.5071920000000 1.0
C      1  0.4655380000000  0.4622410000000  0.6011330000000 1.0
C      1  0.3983500000000  0.5027940000000  0.4202200000000 1.0
C      1  0.5495410000000  0.5441520000000  0.4074970000000 1.0
C      1  0.4821160000000  0.4890460000000  0.4796870000000 1.0
C      1  0.5681950000000  0.4177510000000  0.4649990000000 1.0
C      1  0.5250250000000  0.4387740000000  0.6113040000000 1.0
C      1  0.5091560000000  0.4626310000000  0.6193200000000 1.0
C      1  0.4433830000000  0.4813200000000  0.4274410000000 1.0
C      1  0.4829490000000  0.5522930000000  0.4366500000000 1.0
C      1  0.5355330000000  0.5294640000000  0.5472370000000 1.0
C      1  0.4142830000000  0.4007680000000  0.5186310000000 1.0
C      1  0.4349450000000  0.3803830000000  0.5619700000000 1.0
C      1  0.4665230000000  0.4326550000000  0.4213850000000 1.0
C      1  0.4818730000000  0.5712260000000  0.4593790000000 1.0
C      1  0.5867570000000  0.5439600000000  0.5402980000000 1.0
C      1  0.3888800000000  0.4817180000000  0.5458170000000 1.0
C      1  0.4074980000000  0.5280500000000  0.5492270000000 1.0
C      1  0.4727730000000  0.5661120000000  0.5946960000000 1.0
C      1  0.4711500000000  0.5499300000000  0.3856820000000 1.0
C      1  0.4128800000000  0.4801540000000  0.4303970000000 1.0
C      1  0.4372120000000  0.4072830000000  0.4770360000000 1.0
C      1  0.4011560000000  0.4275700000000  0.5207090000000 1.0
C      1  0.4508700000000  0.4931060000000  0.5670870000000 1.0
C      1  0.4540070000000  0.5826040000000  0.4206510000000 1.0
C      1  0.4750590000000  0.4039280000000  0.5228780000000 1.0
C      1  0.5695600000000  0.5042710000000  0.5143160000000 1.0
C      1  0.5611880000000  0.5485780000000  0.5004530000000 1.0
C      1  0.5571210000000  0.5054550000000  0.4510070000000 1.0
C      1  0.4899350000000  0.6331790000000  0.5117320000000 1.0
C      1  0.5346600000000  0.3985410000000  0.4265890000000 1.0
C      1  0.4778700000000  0.3805220000000  0.5905160000000 1.0
C      1  0.5292310000000  0.5004870000000  0.3874790000000 1.0
C      1  0.4581820000000  0.4253500000000  0.4806830000000 1.0
C      1  0.4300050000000  0.5065450000000  0.4754570000000 1.0
C      1  0.4731980000000  0.4383350000000  0.5883540000000 1.0
C      1  0.5159260000000  0.5738780000000  0.5102550000000 1.0
C      1  0.4568830000000  0.4490520000000  0.4662680000000 1.0
C      1  0.5134150000000  0.4378970000000  0.5616000000000 1.0
C      1  0.4743600000000  0.4062660000000  0.5510860000000 1.0
C      1  0.4456640000000  0.5542210000000  0.5931240000000 1.0
C      1  0.5305440000000  0.5783080000000  0.4657540000000 1.0
C      1  0.4494320000000  0.5098780000000  0.4471710000000 1.0
C      1  0.5325480000000  0.5028140000000  0.4649260000000 1.0
C      1  0.5182170000000  0.5820760000000  0.4109160000000 1.0
C      1  0.5100160000000  0.4640180000000  0.5513490000000 1.0
C      1  0.4586750000000  0.4843320000000  0.4003440000000 1.0
C      1  0.4644120000000  0.4699880000000  0.4823600000000 1.0
C      1  0.5746870000000  0.5226090000000  0.4649700000000 1.0
C      1  0.5057270000000  0.3882310000000  0.5903390000000 1.0
C      1  0.3463480000000  0.4984400000000  0.4078280000000 1.0
C      1  0.4986810000000  0.5548260000000  0.6004980000000 1.0
C      1  0.4463450000000  0.5047570000000  0.4982230000000 1.0
C      1  0.5482230000000  0.4426180000000  0.5934630000000 1.0
C      1  0.5509200000000  0.5195330000000  0.3916960000000 1.0
C      1  0.5235400000000  0.5541870000000  0.5533260000000 1.0
C      1  0.4307640000000  0.3892420000000  0.4975190000000 1.0
C      1  0.5311770000000  0.5737380000000  0.5340170000000 1.0
C      1  0.5133850000000  0.4888640000000  0.5653790000000 1.0
C      1  0.4023120000000  0.4629700000000  0.4506660000000 1.0
C      1  0.4544370000000  0.4526310000000  0.4381080000000 1.0
C      1  0.5808990000000  0.6050310000000  0.5036700000000 1.0
C      1  0.5010540000000  0.5049180000000  0.3821220000000 1.0
C      1  0.5867020000000  0.4329740000000  0.5147120000000 1.0
C      1  0.4925610000000  0.4806820000000  0.4366190000000 1.0
C      1  0.5772490000000  0.4425250000000  0.4194730000000 1.0
C      1  0.5273560000000  0.3915880000000  0.5133310000000 1.0
C      1  0.5693190000000  0.6043920000000  0.5297540000000 1.0
C      1  0.5165130000000  0.4092490000000  0.4670540000000 1.0
C      1  0.4986930000000  0.5145240000000  0.5266280000000 1.0
C      1  0.4759870000000  0.4253230000000  0.5037150000000 1.0
C      1  0.5145560000000  0.4430050000000  0.3701020000000 1.0
C      1  0.5351400000000  0.4712280000000  0.4252770000000 1.0
C      1  0.5455860000000  0.6219360000000  0.5305550000000 1.0
C      1  0.4406710000000  0.5930700000000  0.4868760000000 1.0
C      1  0.5743980000000  0.4543880000000  0.5912370000000 1.0
C      1  0.4918200000000  0.4611060000000  0.5293710000000 1.0
C      1  0.4531790000000  0.3706130000000  0.5006620000000 1.0
C      1  0.4694330000000  0.5589860000000  0.4121930000000 1.0
C      1  0.4614020000000  0.3868270000000  0.5681270000000 1.0
C      1  0.5880730000000  0.5558150000000  0.5124160000000 1.0
C      1  0.4937750000000  0.5081560000000  0.5545800000000 1.0
C      1  0.6286030000000  0.4651170000000  0.5094650000000 1.0
C      1  0.4453500000000  0.5269600000000  0.6060480000000 1.0
C      1  0.5343350000000  0.4858180000000  0.4878010000000 1.0
C      1  0.5603360000000  0.6094760000000  0.4831610000000 1.0
C      1  0.5422150000000  0.4949890000000  0.5132930000000 1.0
C      1  0.3856800000000  0.4566590000000  0.5587440000000 1.0
C      1  0.5868330000000  0.4529960000000  0.5649080000000 1.0
C      1  0.5125500000000  0.6340140000000  0.4969480000000 1.0
C      1  0.5019670000000  0.5983580000000  0.4281350000000 1.0
C      1  0.3909950000000  0.4328150000000  0.5471640000000 1.0
C      1  0.4736110000000  0.5817060000000  0.5717870000000 1.0
C      1  0.3721410000000  0.5001550000000  0.4111790000000 1.0
C      1  0.5295740000000  0.5584560000000  0.4887870000000 1.0
C      1  0.4876380000000  0.4263910000000  0.5668330000000 1.0
C      1  0.4260560000000  0.5896070000000  0.5187380000000 1.0
C      1  0.5815020000000  0.4716750000000  0.4227210000000 1.0
C      1  0.5088290000000  0.5363470000000  0.4840640000000 1.0
C      1  0.5575780000000  0.5882630000000  0.4612040000000 1.0
C      1  0.4898980000000  0.5302860000000  0.3790340000000 1.0
C      1  0.6266990000000  0.5318320000000  0.4826170000000 1.0
C      1  0.4800630000000  0.3806620000000  0.5051370000000 1.0
C      1  0.5934100000000  0.5256990000000  0.4169070000000 1.0
C      1  0.4453650000000  0.4768030000000  0.5888530000000 1.0
C      1  0.3956740000000  0.5053900000000  0.5614290000000 1.0
C      1  0.3974730000000  0.4520020000000  0.5038250000000 1.0
C      1  0.5085980000000  0.4358480000000  0.4546500000000 1.0
C      1  0.5720700000000  0.5618900000000  0.5599590000000 1.0
C      1  0.4375500000000  0.5005470000000  0.5238950000000 1.0
C      1  0.4839250000000  0.5034970000000  0.4539500000000 1.0
C      1  0.5181880000000  0.3794160000000  0.5653450000000 1.0
C      1  0.4458280000000  0.4811900000000  0.5417620000000 1.0
C      1  0.5255210000000  0.5663470000000  0.5814130000000 1.0
C      1  0.4739180000000  0.6037380000000  0.4216860000000 1.0
C      1  0.5682080000000  0.4202840000000  0.4953130000000 1.0
C      1  0.5086650000000  0.5398360000000  0.4344880000000 1.0
C      1  0.4644560000000  0.4628940000000  0.5340630000000 1.0
C      1  0.4052590000000  0.5561430000000  0.5486320000000 1.0
C      1  0.4686990000000  0.5160310000000  0.5637510000000 1.0
C      1  0.5251610000000  0.5982510000000  0.5747420000000 1.0
C      1  0.4676320000000  0.5681910000000  0.5473100000000 1.0
C      1  0.5261690000000  0.5134630000000  0.5261040000000 1.0
C      1  0.4765920000000  0.5093380000000  0.6142040000000 1.0
C      1  0.4027280000000  0.5675040000000  0.4736160000000 1.0
C      1  0.5397620000000  0.4307450000000  0.5684210000000 1.0
C      1  0.4876720000000  0.5782650000000  0.5057960000000 1.0
C      1  0.5686970000000  0.5221400000000  0.4923760000000 1.0
C      1  0.5560400000000  0.5575600000000  0.5862380000000 1.0
C      1  0.5144710000000  0.4107100000000  0.6078090000000 1.0
C      1  0.4202360000000  0.5138320000000  0.6059940000000 1.0
C      1  0.4499320000000  0.5492370000000  0.4906250000000 1.0
C      1  0.4167170000000  0.3866960000000  0.5433360000000 1.0
C      1  0.5752710000000  0.5675670000000  0.4465320000000 1.0
C      1  0.5096380000000  0.5208470000000  0.4580990000000 1.0
C      1  0.5414020000000  0.4162250000000  0.5062100000000 1.0
C      1  0.4860480000000  0.4152030000000  0.4142790000000 1.0
C      1  0.4107580000000  0.5282120000000  0.4220800000000 1.0
C      1  0.4897120000000  0.5271850000000  0.5036010000000 1.0
C      1  0.6108150000000  0.5082860000000  0.4351320000000 1.0
C      1  0.4968240000000  0.5295220000000  0.6129920000000 1.0
C      1  0.4094260000000  0.5649980000000  0.5203380000000 1.0
C      1  0.6079910000000  0.4539530000000  0.4533330000000 1.0
C      1  0.5244760000000  0.4386470000000  0.5017490000000 1.0
C      1  0.6057500000000  0.5514440000000  0.4881320000000 1.0
C      1  0.5590120000000  0.5808190000000  0.5415830000000 1.0
C      1  0.5801720000000  0.4353050000000  0.5430550000000 1.0
C      1  0.5349300000000  0.4585570000000  0.4855780000000 1.0
C      1  0.5328250000000  0.3818740000000  0.5404300000000 1.0
C      1  0.5608550000000  0.4352640000000  0.3968150000000 1.0
C      1  0.4350800000000  0.5700860000000  0.4390990000000 1.0
C      1  0.5342210000000  0.4740230000000  0.3970270000000 1.0
C      1  0.4748370000000  0.5884600000000  0.5282860000000 1.0
C      1  0.5255770000000  0.5547340000000  0.4166180000000 1.0
C      1  0.6378280000000  0.5154240000000  0.5023850000000 1.0
C      1  0.3989950000000  0.4525510000000  0.4753050000000 1.0
C      1  0.4916390000000  0.4579200000000  0.3719830000000 1.0
C      1  0.4630680000000  0.5272160000000  0.4972580000000 1.0
C      1  0.3889970000000  0.5018390000000  0.5000660000000 1.0
C      1  0.6380360000000  0.4899800000000  0.5104040000000 1.0
C      1  0.5602210000000  0.4180800000000  0.5533250000000 1.0
C      1  0.6264220000000  0.5208700000000  0.4557720000000 1.0
C      1  0.4114720000000  0.5482780000000  0.4944570000000 1.0
C      1  0.5389910000000  0.4977150000000  0.5781110000000 1.0
C      1  0.5125300000000  0.4604460000000  0.4390550000000 1.0
C      1  0.5388070000000  0.6242880000000  0.5008990000000 1.0
C      1  0.5861860000000  0.4329200000000  0.4470210000000 1.0
C      1  0.6054970000000  0.4788830000000  0.4369280000000 1.0
C      1  0.4656090000000  0.5739540000000  0.4846980000000 1.0
C      1  0.4294830000000  0.5959850000000  0.5492970000000 1.0
C      1  0.4333560000000  0.5249670000000  0.5375420000000 1.0
C      1  0.5431960000000  0.4046470000000  0.4536370000000 1.0
C      1  0.5104140000000  0.4031940000000  0.4146780000000 1.0
C      1  0.5576800000000  0.5351050000000  0.6041330000000 1.0
C      1  0.5065740000000  0.3874630000000  0.4930350000000 1.0
C      1  0.3906050000000  0.4785250000000  0.5166120000000 1.0
C      1  0.4005590000000  0.5048980000000  0.5895860000000 1.0
C      1  0.5588800000000  0.4841830000000  0.4332510000000 1.0
C      1  0.5589040000000  0.3908180000000  0.5478680000000 1.0
C      1  0.4545000000000  0.5599320000000  0.3664030000000 1.0
C      1  0.5874890000000  0.4652090000000  0.6126310000000 1.0
C      1  0.4760780000000  0.6168250000000  0.5282980000000 1.0
C      1  0.5747430000000  0.5507330000000  0.4215400000000 1.0
C      1  0.4305120000000  0.6210430000000  0.5596340000000 1.0
C      1  0.5775300000000  0.5155640000000  0.5404970000000 1.0
C      1  0.5883650000000  0.5489530000000  0.4640610000000 1.0
C      1  0.4823400000000  0.4823770000000  0.3837780000000 1.0
C      1  0.4242480000000  0.5830790000000  0.4631910000000 1.0
C      1  0.5386530000000  0.4489320000000  0.3841750000000 1.0
C      1  0.5460530000000  0.5101950000000  0.6030460000000 1.0
C      1  0.5305620000000  0.6175340000000  0.5553820000000 1.0
C      1  0.4063840000000  0.5195330000000  0.4861660000000 1.0
C      1  0.4244870000000  0.5702850000000  0.5674040000000 1.0
C      1  0.4569240000000  0.5389020000000  0.5488760000000 1.0
C      1  0.4848170000000  0.4792500000000  0.6146720000000 1.0
C      1  0.5557120000000  0.5123210000000  0.5591790000000 1.0
C      1  0.5794360000000  0.5128460000000  0.3938230000000 1.0
C      1  0.4978490000000  0.4425070000000  0.5092720000000 1.0
C      1  0.4329470000000  0.5396070000000  0.4352720000000 1.0
END
