TITL C-3866670-4165-611 -5.51783840858642e-07 125000 -699.408307837495 0 0 114 (C1) n - 1
REM
REM in /home/nfs/bkarasulu/CARBON/AIRSS/Generating-Clusters/LCBOP/Only-C1/SD-CG/FIRE-CG
REM
REM
REM
REM
REM
REM ./C.cell (11c1c37f851c82e70ff6c80c92926a4b)
REM AIRSS Version 0.9.1 bugfix July 2018 build 013d7b7c2542+ Fri, 06 Jul 2018 19:26:36 +0100
REM compiler GCC version 9.2.1 20190827 (Red Hat 9.2.1-1)
REM options -cpp -mtune=generic -march=x86-64 -g -O0 -fpre-include=/usr/include/finclude/math-vector-fortran.h
REM seed 469408731 -829515833 174434880 492903545 798461463 -457943525 -1889002464 2028493886 -1802939691 -1354023338 1595605151 2013862445 -1295848788 -1656955019 -1743134564 -1762001906 -1155898106 -135277810 -45698312 -553372945 -1891709543 -821927123 1526285172 818399638 -1514280146 574145093 1536548186 -340644116 -672508647 -2096700393 -1145588307 -1237852097 -296453216
REM
CELL 1.54180   50.00000   50.00000   50.00000   90.00000   90.00000   90.00000
LATT -1
SFAC C  
C      1  0.5164050000000  0.5615550000000  0.5673590000000 1.0
C      1  0.5301700000000  0.5048550000000  0.5795080000000 1.0
C      1  0.3946170000000  0.4932480000000  0.4621120000000 1.0
C      1  0.4894740000000  0.5205460000000  0.5232820000000 1.0
C      1  0.5008890000000  0.5737680000000  0.6310020000000 1.0
C      1  0.5118940000000  0.5841400000000  0.6522260000000 1.0
C      1  0.4237620000000  0.5499100000000  0.5455540000000 1.0
C      1  0.5593990000000  0.4825140000000  0.4932230000000 1.0
C      1  0.4306840000000  0.5315890000000  0.6159380000000 1.0
C      1  0.5144640000000  0.4373180000000  0.4389850000000 1.0
C      1  0.4731140000000  0.5006150000000  0.5654930000000 1.0
C      1  0.4447450000000  0.5098260000000  0.6231700000000 1.0
C      1  0.5866260000000  0.5208530000000  0.4521840000000 1.0
C      1  0.5098510000000  0.4420470000000  0.5400570000000 1.0
C      1  0.5368440000000  0.5822850000000  0.4713030000000 1.0
C      1  0.5204180000000  0.5786080000000  0.4459540000000 1.0
C      1  0.5651460000000  0.5526520000000  0.5064150000000 1.0
C      1  0.4415200000000  0.4883520000000  0.4174860000000 1.0
C      1  0.4340440000000  0.5692850000000  0.5275200000000 1.0
C      1  0.4319480000000  0.5430850000000  0.4476310000000 1.0
C      1  0.4979470000000  0.5332110000000  0.4577260000000 1.0
C      1  0.5848180000000  0.4331420000000  0.4546100000000 1.0
C      1  0.4103520000000  0.3842050000000  0.5135880000000 1.0
C      1  0.5865480000000  0.5138300000000  0.4246860000000 1.0
C      1  0.5238810000000  0.4948500000000  0.5541520000000 1.0
C      1  0.5376690000000  0.4756430000000  0.4492090000000 1.0
C      1  0.5632590000000  0.5026400000000  0.4129320000000 1.0
C      1  0.5595140000000  0.4337820000000  0.5458480000000 1.0
C      1  0.5221720000000  0.5957850000000  0.4923380000000 1.0
C      1  0.4843530000000  0.5763670000000  0.5235500000000 1.0
C      1  0.5162330000000  0.5318020000000  0.4782130000000 1.0
C      1  0.5081770000000  0.4854910000000  0.4511640000000 1.0
C      1  0.5790390000000  0.5045550000000  0.5672540000000 1.0
C      1  0.5670450000000  0.5237550000000  0.5108530000000 1.0
C      1  0.5352600000000  0.3838110000000  0.5078420000000 1.0
C      1  0.4484950000000  0.3790880000000  0.4824700000000 1.0
C      1  0.4916980000000  0.4205390000000  0.5398550000000 1.0
C      1  0.4721270000000  0.5040800000000  0.5377920000000 1.0
C      1  0.5732820000000  0.5671590000000  0.5288980000000 1.0
C      1  0.4585780000000  0.5648170000000  0.5140450000000 1.0
C      1  0.5210300000000  0.5652380000000  0.4195270000000 1.0
C      1  0.5831280000000  0.5322610000000  0.5614900000000 1.0
C      1  0.4326230000000  0.5381760000000  0.4197340000000 1.0
C      1  0.5931860000000  0.5113760000000  0.5004040000000 1.0
C      1  0.5061570000000  0.5283640000000  0.5040750000000 1.0
C      1  0.4800930000000  0.4932960000000  0.4476810000000 1.0
C      1  0.5734590000000  0.4417140000000  0.5224300000000 1.0
C      1  0.4162920000000  0.5249350000000  0.5352150000000 1.0
C      1  0.5089620000000  0.4527260000000  0.4139780000000 1.0
C      1  0.5228110000000  0.4948450000000  0.3896600000000 1.0
C      1  0.4731110000000  0.5200450000000  0.4574140000000 1.0
C      1  0.5254290000000  0.4870420000000  0.5273180000000 1.0
C      1  0.4670780000000  0.4802640000000  0.4257050000000 1.0
C      1  0.5341560000000  0.4376100000000  0.5534060000000 1.0
C      1  0.5076800000000  0.4641030000000  0.5212310000000 1.0
C      1  0.4525810000000  0.5387550000000  0.4664170000000 1.0
C      1  0.5692700000000  0.5563490000000  0.5548060000000 1.0
C      1  0.5352440000000  0.5427410000000  0.4093850000000 1.0
C      1  0.5058320000000  0.5476270000000  0.5899950000000 1.0
C      1  0.5111290000000  0.3802280000000  0.5187430000000 1.0
C      1  0.4265820000000  0.5023770000000  0.5252720000000 1.0
C      1  0.4340620000000  0.3933550000000  0.5016740000000 1.0
C      1  0.4677480000000  0.4997160000000  0.6137020000000 1.0
C      1  0.5537620000000  0.4904550000000  0.4675690000000 1.0
C      1  0.3876520000000  0.3961980000000  0.5214510000000 1.0
C      1  0.3792990000000  0.4216790000000  0.5206040000000 1.0
C      1  0.5315510000000  0.4686150000000  0.4024600000000 1.0
C      1  0.4621660000000  0.5649380000000  0.6028680000000 1.0
C      1  0.4105690000000  0.4571130000000  0.4982260000000 1.0
C      1  0.4583740000000  0.4666240000000  0.5094500000000 1.0
C      1  0.4939700000000  0.4279700000000  0.4564100000000 1.0
C      1  0.4599480000000  0.5602460000000  0.4846940000000 1.0
C      1  0.5467350000000  0.5002060000000  0.5127500000000 1.0
C      1  0.4926870000000  0.5851380000000  0.4522890000000 1.0
C      1  0.6035940000000  0.5205650000000  0.4750920000000 1.0
C      1  0.4945750000000  0.4900390000000  0.3873550000000 1.0
C      1  0.5426870000000  0.5364250000000  0.4707440000000 1.0
C      1  0.4410620000000  0.4203850000000  0.5056850000000 1.0
C      1  0.4374450000000  0.5524110000000  0.5981310000000 1.0
C      1  0.4819620000000  0.4030330000000  0.4532890000000 1.0
C      1  0.4371730000000  0.4481390000000  0.5040370000000 1.0
C      1  0.5406170000000  0.5165290000000  0.3996820000000 1.0
C      1  0.4796970000000  0.5804390000000  0.4766260000000 1.0
C      1  0.5596080000000  0.5170470000000  0.4610330000000 1.0
C      1  0.5881760000000  0.4824650000000  0.5508160000000 1.0
C      1  0.5384350000000  0.4455980000000  0.4541550000000 1.0
C      1  0.4836450000000  0.5046680000000  0.5912090000000 1.0
C      1  0.5880670000000  0.4668470000000  0.5261190000000 1.0
C      1  0.5444700000000  0.5631670000000  0.5661690000000 1.0
C      1  0.4892800000000  0.4436930000000  0.4795980000000 1.0
C      1  0.4250630000000  0.5544130000000  0.5731540000000 1.0
C      1  0.5541830000000  0.4016140000000  0.5019720000000 1.0
C      1  0.4929100000000  0.3950310000000  0.5316470000000 1.0
C      1  0.4200680000000  0.5924220000000  0.5230260000000 1.0
C      1  0.5614600000000  0.4359650000000  0.4693010000000 1.0
C      1  0.4054490000000  0.4759110000000  0.4782690000000 1.0
C      1  0.5506290000000  0.4779620000000  0.4217900000000 1.0
C      1  0.4663420000000  0.3839180000000  0.4632380000000 1.0
C      1  0.5528010000000  0.5605940000000  0.4814550000000 1.0
C      1  0.4287360000000  0.5113330000000  0.4121400000000 1.0
C      1  0.5084470000000  0.5190650000000  0.5914820000000 1.0
C      1  0.3890830000000  0.4449330000000  0.5117200000000 1.0
C      1  0.4718650000000  0.5665450000000  0.3987550000000 1.0
C      1  0.4977290000000  0.5710270000000  0.4038230000000 1.0
C      1  0.4990260000000  0.5713340000000  0.5470800000000 1.0
C      1  0.4896170000000  0.5623360000000  0.6082040000000 1.0
C      1  0.5871510000000  0.4827100000000  0.5027310000000 1.0
C      1  0.4480790000000  0.5554670000000  0.4038020000000 1.0
C      1  0.5637120000000  0.4281090000000  0.4975270000000 1.0
C      1  0.4858060000000  0.4603630000000  0.5022930000000 1.0
C      1  0.4958440000000  0.5884290000000  0.4997790000000 1.0
C      1  0.4853910000000  0.4697320000000  0.4064750000000 1.0
C      1  0.4518840000000  0.4904140000000  0.5234250000000 1.0
C      1  0.5574130000000  0.5009960000000  0.5857120000000 1.0
END
