TITL C-3866669-3764-698 0.315258134323048 125000 -1107.72993809528 0 0 181 (C1) n - 1
REM
REM in /home/nfs/bkarasulu/CARBON/AIRSS/Generating-Clusters/LCBOP/Only-C1/SD-CG/FIRE-CG
REM
REM
REM
REM
REM
REM ./C.cell (11c1c37f851c82e70ff6c80c92926a4b)
REM AIRSS Version 0.9.1 bugfix July 2018 build 013d7b7c2542+ Fri, 06 Jul 2018 19:26:36 +0100
REM compiler GCC version 9.2.1 20190827 (Red Hat 9.2.1-1)
REM options -cpp -mtune=generic -march=x86-64 -g -O0 -fpre-include=/usr/include/finclude/math-vector-fortran.h
REM seed -235614947 -681626273 -1787656967 -142174232 1918615638 -361455632 10727151 2043037388 -168025941 -237441591 605792605 2138866819 -1055894299 2132933851 1167416162 1000458906 -1481519809 1764788684 428439176 -126766524 -269915405 -125356681 12241214 -1078537295 -1670909290 487443864 -1220367080 -1991418180 2126687241 -859456349 1475793195 -1057260713 -1760249095
REM
CELL 1.54180   50.00000   50.00000   50.00000   90.00000   90.00000   90.00000
LATT -1
SFAC C  
C      1  0.5723840000000  0.4545470000000  0.4441600000000 1.0
C      1  0.6361460000000  0.4673770000000  0.4993710000000 1.0
C      1  0.6179240000000  0.5280910000000  0.4591050000000 1.0
C      1  0.5235140000000  0.5159640000000  0.6119030000000 1.0
C      1  0.4766060000000  0.4966220000000  0.3897880000000 1.0
C      1  0.5571700000000  0.4729100000000  0.4623860000000 1.0
C      1  0.4368230000000  0.5189060000000  0.4465440000000 1.0
C      1  0.5772300000000  0.5183210000000  0.5144800000000 1.0
C      1  0.5184510000000  0.5042460000000  0.4459340000000 1.0
C      1  0.3985370000000  0.4673210000000  0.5055860000000 1.0
C      1  0.5053560000000  0.4529780000000  0.4392950000000 1.0
C      1  0.5446850000000  0.4991800000000  0.4580860000000 1.0
C      1  0.6137360000000  0.4809620000000  0.4875820000000 1.0
C      1  0.4847490000000  0.4530640000000  0.6003320000000 1.0
C      1  0.5258290000000  0.4271340000000  0.5551050000000 1.0
C      1  0.5127790000000  0.4755540000000  0.5050740000000 1.0
C      1  0.4854060000000  0.4089580000000  0.4123020000000 1.0
C      1  0.4387280000000  0.4194570000000  0.6053290000000 1.0
C      1  0.3704570000000  0.5249570000000  0.5264690000000 1.0
C      1  0.5613240000000  0.4515380000000  0.5361360000000 1.0
C      1  0.5904770000000  0.5767000000000  0.4890010000000 1.0
C      1  0.6230490000000  0.4542510000000  0.5481840000000 1.0
C      1  0.4307780000000  0.4615320000000  0.4002550000000 1.0
C      1  0.5408490000000  0.4246260000000  0.4529490000000 1.0
C      1  0.4436850000000  0.6617740000000  0.4974730000000 1.0
C      1  0.4733560000000  0.5416950000000  0.3919080000000 1.0
C      1  0.6046810000000  0.5774620000000  0.5140710000000 1.0
C      1  0.5965430000000  0.4731950000000  0.4066340000000 1.0
C      1  0.5201290000000  0.5816040000000  0.5577560000000 1.0
C      1  0.4763980000000  0.4724030000000  0.5312540000000 1.0
C      1  0.5033390000000  0.5351420000000  0.6186080000000 1.0
C      1  0.4806470000000  0.5351180000000  0.4206140000000 1.0
C      1  0.5497450000000  0.5008310000000  0.4018310000000 1.0
C      1  0.3696260000000  0.5509970000000  0.4852860000000 1.0
C      1  0.4984640000000  0.5262080000000  0.4441620000000 1.0
C      1  0.6313960000000  0.5734980000000  0.5170460000000 1.0
C      1  0.4814190000000  0.4976210000000  0.5686550000000 1.0
C      1  0.4909540000000  0.4777860000000  0.6148400000000 1.0
C      1  0.4840830000000  0.5219340000000  0.6351170000000 1.0
C      1  0.5086080000000  0.4897500000000  0.5740270000000 1.0
C      1  0.6005860000000  0.4591260000000  0.5650770000000 1.0
C      1  0.4200940000000  0.6653780000000  0.5079620000000 1.0
C      1  0.5310630000000  0.4294800000000  0.5830500000000 1.0
C      1  0.5237050000000  0.4158240000000  0.4948230000000 1.0
C      1  0.3929360000000  0.5348780000000  0.5399650000000 1.0
C      1  0.4709790000000  0.3674290000000  0.5075460000000 1.0
C      1  0.5034600000000  0.6040320000000  0.5523650000000 1.0
C      1  0.5389860000000  0.5425780000000  0.5302090000000 1.0
C      1  0.4613410000000  0.4932950000000  0.4141390000000 1.0
C      1  0.5136250000000  0.5679660000000  0.5820400000000 1.0
C      1  0.4644840000000  0.3831420000000  0.4849580000000 1.0
C      1  0.4550420000000  0.6009860000000  0.5346710000000 1.0
C      1  0.5510010000000  0.4575170000000  0.4864340000000 1.0
C      1  0.4629930000000  0.4754760000000  0.5585580000000 1.0
C      1  0.4452000000000  0.4955700000000  0.6264130000000 1.0
C      1  0.4388490000000  0.4364260000000  0.5835390000000 1.0
C      1  0.4823480000000  0.5747590000000  0.4600780000000 1.0
C      1  0.4608370000000  0.5183600000000  0.3768640000000 1.0
C      1  0.3704590000000  0.5260900000000  0.4979930000000 1.0
C      1  0.4732460000000  0.4958350000000  0.6289840000000 1.0
C      1  0.6121070000000  0.5053690000000  0.5442520000000 1.0
C      1  0.3711550000000  0.5023990000000  0.4822620000000 1.0
C      1  0.5972080000000  0.5005030000000  0.4059890000000 1.0
C      1  0.5686910000000  0.4593680000000  0.5094960000000 1.0
C      1  0.4718650000000  0.3825530000000  0.5318820000000 1.0
C      1  0.3710250000000  0.5742190000000  0.4735440000000 1.0
C      1  0.5804510000000  0.5182240000000  0.4854440000000 1.0
C      1  0.5093320000000  0.4799850000000  0.4348720000000 1.0
C      1  0.5726080000000  0.4606910000000  0.4161380000000 1.0
C      1  0.4754690000000  0.4021480000000  0.4374660000000 1.0
C      1  0.4352440000000  0.5311210000000  0.5175920000000 1.0
C      1  0.5922860000000  0.4749310000000  0.5069830000000 1.0
C      1  0.4869520000000  0.5574160000000  0.5285510000000 1.0
C      1  0.4828800000000  0.4470900000000  0.4552300000000 1.0
C      1  0.5629590000000  0.5200950000000  0.4622420000000 1.0
C      1  0.4816950000000  0.4260780000000  0.5109800000000 1.0
C      1  0.5139120000000  0.4912630000000  0.6019830000000 1.0
C      1  0.5859670000000  0.5834090000000  0.5354950000000 1.0
C      1  0.5887190000000  0.5763510000000  0.5624740000000 1.0
C      1  0.4686520000000  0.4675570000000  0.4676890000000 1.0
C      1  0.5752820000000  0.5305030000000  0.4377900000000 1.0
C      1  0.4083910000000  0.4751950000000  0.4604490000000 1.0
C      1  0.5035940000000  0.5969110000000  0.4155180000000 1.0
C      1  0.4676650000000  0.6563490000000  0.4875690000000 1.0
C      1  0.5136650000000  0.6351270000000  0.4726470000000 1.0
C      1  0.4278140000000  0.5135290000000  0.6165040000000 1.0
C      1  0.5174330000000  0.5491290000000  0.4873750000000 1.0
C      1  0.4217500000000  0.4707770000000  0.5230950000000 1.0
C      1  0.4944450000000  0.4551420000000  0.5161700000000 1.0
C      1  0.4918470000000  0.4039500000000  0.5308000000000 1.0
C      1  0.6380280000000  0.5130980000000  0.5422940000000 1.0
C      1  0.5240360000000  0.4761210000000  0.5553830000000 1.0
C      1  0.5230580000000  0.4577130000000  0.3926690000000 1.0
C      1  0.4070250000000  0.4213940000000  0.5179780000000 1.0
C      1  0.5732310000000  0.5145720000000  0.4134010000000 1.0
C      1  0.4274520000000  0.5361040000000  0.6020320000000 1.0
C      1  0.5073480000000  0.4350980000000  0.5981330000000 1.0
C      1  0.4577600000000  0.5184950000000  0.4268080000000 1.0
C      1  0.5632260000000  0.5883560000000  0.4957050000000 1.0
C      1  0.4781870000000  0.6118810000000  0.5471560000000 1.0
C      1  0.4712590000000  0.5443470000000  0.5833630000000 1.0
C      1  0.4841340000000  0.5756900000000  0.5076450000000 1.0
C      1  0.4315090000000  0.5599960000000  0.5587030000000 1.0
C      1  0.5336320000000  0.6181800000000  0.4686240000000 1.0
C      1  0.5178990000000  0.6052310000000  0.3948180000000 1.0
C      1  0.5698870000000  0.4264970000000  0.4538070000000 1.0
C      1  0.4912470000000  0.6476670000000  0.4791590000000 1.0
C      1  0.4602470000000  0.5186370000000  0.5212140000000 1.0
C      1  0.4418030000000  0.3831850000000  0.4676650000000 1.0
C      1  0.4297770000000  0.4007240000000  0.4506850000000 1.0
C      1  0.5199420000000  0.5021210000000  0.5057290000000 1.0
C      1  0.5326880000000  0.6129720000000  0.3747950000000 1.0
C      1  0.4021500000000  0.4387860000000  0.4938700000000 1.0
C      1  0.5832910000000  0.4765350000000  0.6063820000000 1.0
C      1  0.4236830000000  0.4922420000000  0.4436340000000 1.0
C      1  0.4454170000000  0.3920040000000  0.5378230000000 1.0
C      1  0.4786330000000  0.4086020000000  0.4846440000000 1.0
C      1  0.5960990000000  0.5074090000000  0.5679460000000 1.0
C      1  0.5764270000000  0.5283630000000  0.5634180000000 1.0
C      1  0.4429730000000  0.4372160000000  0.4110500000000 1.0
C      1  0.3930540000000  0.4847180000000  0.4832760000000 1.0
C      1  0.4340880000000  0.4123300000000  0.5215080000000 1.0
C      1  0.4623940000000  0.4534090000000  0.5804780000000 1.0
C      1  0.4957640000000  0.4494640000000  0.3909140000000 1.0
C      1  0.4371850000000  0.5032260000000  0.3685630000000 1.0
C      1  0.3491800000000  0.5145680000000  0.5401080000000 1.0
C      1  0.5275850000000  0.5115680000000  0.3885300000000 1.0
C      1  0.3996910000000  0.4289340000000  0.5452310000000 1.0
C      1  0.5248740000000  0.5305640000000  0.5077520000000 1.0
C      1  0.4776770000000  0.5330840000000  0.5375070000000 1.0
C      1  0.5654520000000  0.4008080000000  0.5020320000000 1.0
C      1  0.5631610000000  0.5294050000000  0.5369030000000 1.0
C      1  0.5700100000000  0.5880530000000  0.4499260000000 1.0
C      1  0.4124730000000  0.4449900000000  0.4631290000000 1.0
C      1  0.4299690000000  0.5359930000000  0.4907660000000 1.0
C      1  0.5667290000000  0.4550410000000  0.6083790000000 1.0
C      1  0.4980070000000  0.5693990000000  0.4835830000000 1.0
C      1  0.5530830000000  0.5986960000000  0.4708240000000 1.0
C      1  0.4436620000000  0.5863760000000  0.4853740000000 1.0
C      1  0.4570520000000  0.4766850000000  0.4910320000000 1.0
C      1  0.4721290000000  0.4325650000000  0.4011420000000 1.0
C      1  0.4786370000000  0.5274860000000  0.4670910000000 1.0
C      1  0.4369920000000  0.4800700000000  0.4208370000000 1.0
C      1  0.4481660000000  0.5381900000000  0.4674090000000 1.0
C      1  0.4598690000000  0.5910970000000  0.5083210000000 1.0
C      1  0.6364900000000  0.4567910000000  0.5246930000000 1.0
C      1  0.4156980000000  0.4352150000000  0.5665720000000 1.0
C      1  0.5586360000000  0.4395220000000  0.5858430000000 1.0
C      1  0.4917590000000  0.5871140000000  0.4370970000000 1.0
C      1  0.3497670000000  0.4964500000000  0.4661530000000 1.0
C      1  0.5036910000000  0.5003240000000  0.3840890000000 1.0
C      1  0.4365640000000  0.5865350000000  0.5503600000000 1.0
C      1  0.4330130000000  0.4796330000000  0.5484040000000 1.0
C      1  0.6078530000000  0.5076790000000  0.4769000000000 1.0
C      1  0.4541380000000  0.5686960000000  0.4649700000000 1.0
C      1  0.5944740000000  0.4977400000000  0.5237400000000 1.0
C      1  0.4430730000000  0.5502450000000  0.5833340000000 1.0
C      1  0.5817000000000  0.5535870000000  0.5750800000000 1.0
C      1  0.5483960000000  0.4710000000000  0.4029510000000 1.0
C      1  0.4268980000000  0.4280130000000  0.4421820000000 1.0
C      1  0.5915570000000  0.5710030000000  0.4601790000000 1.0
C      1  0.5772700000000  0.4107850000000  0.4782930000000 1.0
C      1  0.4422790000000  0.4578900000000  0.5066710000000 1.0
C      1  0.5587610000000  0.5860380000000  0.5242350000000 1.0
C      1  0.4672800000000  0.4933170000000  0.5120350000000 1.0
C      1  0.4284310000000  0.4776040000000  0.3758960000000 1.0
C      1  0.5137560000000  0.4117680000000  0.4136750000000 1.0
C      1  0.4775350000000  0.5248150000000  0.5639850000000 1.0
C      1  0.4200660000000  0.5417650000000  0.5394210000000 1.0
C      1  0.5983370000000  0.5461550000000  0.4475150000000 1.0
C      1  0.5339950000000  0.4524670000000  0.5438710000000 1.0
C      1  0.5964270000000  0.4828130000000  0.5821360000000 1.0
C      1  0.4784910000000  0.4198450000000  0.4594110000000 1.0
C      1  0.4949130000000  0.5529030000000  0.5975000000000 1.0
C      1  0.5227750000000  0.4306280000000  0.4328820000000 1.0
C      1  0.5378340000000  0.5709250000000  0.5372440000000 1.0
C      1  0.5755960000000  0.4451650000000  0.5610650000000 1.0
C      1  0.5342050000000  0.4352250000000  0.4788510000000 1.0
C      1  0.4522410000000  0.4326980000000  0.5141340000000 1.0
C      1  0.5201680000000  0.4056550000000  0.5377710000000 1.0
C      1  0.5386440000000  0.4022940000000  0.5149290000000 1.0
END
