TITL C-3866669-3764-91 1.14391747204541e-07 125000 -437.443229964683 0 0 72 (C1) n - 1
REM
REM in /home/nfs/bkarasulu/CARBON/AIRSS/Generating-Clusters/LCBOP/Only-C1/SD-CG/HFTN-CG/FIRE-CG
REM
REM
REM
REM
REM
REM ./C.cell (11c1c37f851c82e70ff6c80c92926a4b)
REM AIRSS Version 0.9.1 bugfix July 2018 build 013d7b7c2542+ Fri, 06 Jul 2018 19:26:36 +0100
REM compiler GCC version 9.2.1 20190827 (Red Hat 9.2.1-1)
REM options -cpp -mtune=generic -march=x86-64 -g -O0 -fpre-include=/usr/include/finclude/math-vector-fortran.h
REM seed 1086775839 773892843 -2124252084 1681510323 -61930579 545706305 766181911 2029295255 744608886 -1887079727 -98095836 1485686971 1989696421 786430265 1147436229 -1680514170 -1219048301 1033759757 1434352918 -629646549 -492889693 -1247557726 -325925633 -2108550185 -2105096023 789809802 728801641 611931575 -829397237 -395461889 377922819 -1360063146 66875753
REM
CELL 1.54180   50.00000   50.00000   50.00000   90.00000   90.00000   90.00000
LATT -1
SFAC C  
C      1  0.4980780000000  0.5017380000000  0.4228280000000 1.0
C      1  0.5176820000000  0.4967710000000  0.4836690000000 1.0
C      1  0.5605330000000  0.4876920000000  0.5450980000000 1.0
C      1  0.4911160000000  0.4586760000000  0.5732090000000 1.0
C      1  0.4892490000000  0.5531660000000  0.5114740000000 1.0
C      1  0.5011020000000  0.6272000000000  0.5404280000000 1.0
C      1  0.4684380000000  0.4379670000000  0.4575940000000 1.0
C      1  0.5121460000000  0.3914960000000  0.4456620000000 1.0
C      1  0.5280380000000  0.4117660000000  0.5048270000000 1.0
C      1  0.4963610000000  0.4374350000000  0.4524160000000 1.0
C      1  0.5013060000000  0.5552960000000  0.5743380000000 1.0
C      1  0.5104010000000  0.3683840000000  0.4337490000000 1.0
C      1  0.4325150000000  0.4753780000000  0.4795990000000 1.0
C      1  0.4773480000000  0.4787930000000  0.5055930000000 1.0
C      1  0.5073690000000  0.4799060000000  0.5737910000000 1.0
C      1  0.5054840000000  0.5300720000000  0.5169640000000 1.0
C      1  0.4451920000000  0.5354360000000  0.4966920000000 1.0
C      1  0.4580740000000  0.4674330000000  0.4886050000000 1.0
C      1  0.4111350000000  0.4708880000000  0.4972170000000 1.0
C      1  0.5054790000000  0.4783630000000  0.5021740000000 1.0
C      1  0.5244680000000  0.5048220000000  0.4348680000000 1.0
C      1  0.5087960000000  0.5650710000000  0.4290800000000 1.0
C      1  0.4836140000000  0.4788590000000  0.4322720000000 1.0
C      1  0.6110090000000  0.5424400000000  0.5163590000000 1.0
C      1  0.4370760000000  0.4839970000000  0.4525830000000 1.0
C      1  0.4628390000000  0.4805260000000  0.5306910000000 1.0
C      1  0.5227670000000  0.5224050000000  0.4954650000000 1.0
C      1  0.4262650000000  0.4507820000000  0.5407510000000 1.0
C      1  0.5455190000000  0.5080920000000  0.5576510000000 1.0
C      1  0.4762660000000  0.5205120000000  0.5530800000000 1.0
C      1  0.5248080000000  0.4650730000000  0.5179660000000 1.0
C      1  0.4613380000000  0.4389760000000  0.4849330000000 1.0
C      1  0.4946290000000  0.5780790000000  0.5228960000000 1.0
C      1  0.5136620000000  0.4160900000000  0.4585870000000 1.0
C      1  0.5807560000000  0.5273390000000  0.4660530000000 1.0
C      1  0.4089840000000  0.4604650000000  0.5221000000000 1.0
C      1  0.5684590000000  0.5250040000000  0.4421370000000 1.0
C      1  0.4316220000000  0.5117380000000  0.4514310000000 1.0
C      1  0.4397360000000  0.5280130000000  0.5242470000000 1.0
C      1  0.4875290000000  0.5683030000000  0.4448440000000 1.0
C      1  0.4565360000000  0.4497870000000  0.5375210000000 1.0
C      1  0.5016300000000  0.5159940000000  0.5416810000000 1.0
C      1  0.4334640000000  0.5496850000000  0.5423680000000 1.0
C      1  0.5425240000000  0.5417010000000  0.4894200000000 1.0
C      1  0.5502540000000  0.4664760000000  0.4618650000000 1.0
C      1  0.5518300000000  0.4416010000000  0.4725020000000 1.0
C      1  0.5182180000000  0.5010420000000  0.5589370000000 1.0
C      1  0.4503350000000  0.5584810000000  0.5622020000000 1.0
C      1  0.4793760000000  0.4402820000000  0.5553330000000 1.0
C      1  0.4687820000000  0.5511250000000  0.4918530000000 1.0
C      1  0.4583210000000  0.4687760000000  0.4403460000000 1.0
C      1  0.5049140000000  0.4637860000000  0.4464070000000 1.0
C      1  0.4976490000000  0.6029810000000  0.5314330000000 1.0
C      1  0.5836850000000  0.5412750000000  0.5154200000000 1.0
C      1  0.4751490000000  0.5455050000000  0.5672810000000 1.0
C      1  0.5488790000000  0.4686620000000  0.5296550000000 1.0
C      1  0.5136250000000  0.4106090000000  0.5273490000000 1.0
C      1  0.5494330000000  0.5365960000000  0.5575690000000 1.0
C      1  0.5361830000000  0.5682150000000  0.4829970000000 1.0
C      1  0.4734130000000  0.5628900000000  0.4667580000000 1.0
C      1  0.4593780000000  0.4300050000000  0.5119570000000 1.0
C      1  0.5684750000000  0.5458320000000  0.5389590000000 1.0
C      1  0.5280570000000  0.5520940000000  0.5693770000000 1.0
C      1  0.5264320000000  0.4839980000000  0.4573040000000 1.0
C      1  0.5332410000000  0.4211870000000  0.4788360000000 1.0
C      1  0.5306940000000  0.5506880000000  0.4237180000000 1.0
C      1  0.4312990000000  0.5279380000000  0.4732150000000 1.0
C      1  0.5425010000000  0.5262440000000  0.4311530000000 1.0
C      1  0.4958340000000  0.4193670000000  0.5453570000000 1.0
C      1  0.4555910000000  0.5073780000000  0.5381040000000 1.0
C      1  0.5368560000000  0.5938550000000  0.4782750000000 1.0
C      1  0.5702530000000  0.5355030000000  0.4909300000000 1.0
END
