TITL C-3866672-3872-748 6.21512801280416e-07 125000 -480.23676650315 0 0 80 (C1) n - 1
REM
REM in /home/nfs/bkarasulu/CARBON/AIRSS/Generating-Clusters/LCBOP/Only-C1/SD-CG/FIRE-CG
REM
REM
REM
REM
REM
REM ./C.cell (11c1c37f851c82e70ff6c80c92926a4b)
REM AIRSS Version 0.9.1 bugfix July 2018 build 013d7b7c2542+ Fri, 06 Jul 2018 19:26:36 +0100
REM compiler GCC version 9.2.1 20190827 (Red Hat 9.2.1-1)
REM options -cpp -mtune=generic -march=x86-64 -g -O0 -fpre-include=/usr/include/finclude/math-vector-fortran.h
REM seed -633962712 1188297152 -800308578 1964087049 2039269675 -1782910072 -1696472094 -807080796 2143747033 -1503007406 -1099546284 -1278458267 118737260 -1916504906 475863566 -869292567 -576975177 147316995 -2000550240 -351081152 -1266992062 858519446 1969007224 -1842145497 1706982714 82749197 369997456 1215560029 -1831363852 277323899 -761871808 -965503452 1086893977
REM
CELL 1.54180   50.00000   50.00000   50.00000   90.00000   90.00000   90.00000
LATT -1
SFAC C  
C      1  0.4426210000000  0.5230970000000  0.4689050000000 1.0
C      1  0.5196080000000  0.5125910000000  0.4057870000000 1.0
C      1  0.5067790000000  0.4756700000000  0.5443520000000 1.0
C      1  0.5102670000000  0.4666540000000  0.4822060000000 1.0
C      1  0.4874670000000  0.4872920000000  0.5270560000000 1.0
C      1  0.5876040000000  0.5140910000000  0.5119270000000 1.0
C      1  0.4703060000000  0.5584030000000  0.5113870000000 1.0
C      1  0.4781960000000  0.4780160000000  0.4065740000000 1.0
C      1  0.4790770000000  0.5138470000000  0.5228550000000 1.0
C      1  0.5126490000000  0.5724040000000  0.4499060000000 1.0
C      1  0.5386940000000  0.5260230000000  0.5440920000000 1.0
C      1  0.4302680000000  0.5050860000000  0.4843060000000 1.0
C      1  0.4024080000000  0.4518970000000  0.5202720000000 1.0
C      1  0.5248670000000  0.4849820000000  0.4134110000000 1.0
C      1  0.4912860000000  0.5584280000000  0.5693620000000 1.0
C      1  0.5583640000000  0.5085910000000  0.5547260000000 1.0
C      1  0.3836070000000  0.4338610000000  0.5208590000000 1.0
C      1  0.5517380000000  0.4876240000000  0.4946890000000 1.0
C      1  0.5730410000000  0.5508300000000  0.4654440000000 1.0
C      1  0.5312380000000  0.4915760000000  0.5952030000000 1.0
C      1  0.5342470000000  0.5789040000000  0.5447760000000 1.0
C      1  0.5090770000000  0.4954510000000  0.4828930000000 1.0
C      1  0.4754810000000  0.5431390000000  0.4376670000000 1.0
C      1  0.4705080000000  0.3966670000000  0.5403400000000 1.0
C      1  0.5052920000000  0.4396670000000  0.4192890000000 1.0
C      1  0.5394440000000  0.4622890000000  0.4863770000000 1.0
C      1  0.5025440000000  0.5419570000000  0.4839150000000 1.0
C      1  0.5724770000000  0.5063330000000  0.4880570000000 1.0
C      1  0.5435640000000  0.5822620000000  0.5182130000000 1.0
C      1  0.5288520000000  0.5039380000000  0.5027680000000 1.0
C      1  0.5722160000000  0.5732810000000  0.4801350000000 1.0
C      1  0.5040970000000  0.5502700000000  0.4343570000000 1.0
C      1  0.4645620000000  0.5009570000000  0.4083280000000 1.0
C      1  0.5448320000000  0.4886400000000  0.4340480000000 1.0
C      1  0.5655600000000  0.5236010000000  0.4647570000000 1.0
C      1  0.4715590000000  0.4670090000000  0.5135190000000 1.0
C      1  0.4552550000000  0.5660080000000  0.5342270000000 1.0
C      1  0.5016920000000  0.3883360000000  0.4700940000000 1.0
C      1  0.4612710000000  0.5651520000000  0.4839970000000 1.0
C      1  0.4695650000000  0.5718890000000  0.5574870000000 1.0
C      1  0.4095660000000  0.5413860000000  0.5328390000000 1.0
C      1  0.5133110000000  0.5676410000000  0.4775080000000 1.0
C      1  0.4645700000000  0.5258840000000  0.4179730000000 1.0
C      1  0.5249710000000  0.5311440000000  0.4277030000000 1.0
C      1  0.5034680000000  0.4665500000000  0.4119640000000 1.0
C      1  0.5465460000000  0.5163510000000  0.4441030000000 1.0
C      1  0.4186050000000  0.4966350000000  0.5085560000000 1.0
C      1  0.4848500000000  0.5330150000000  0.5801360000000 1.0
C      1  0.4750280000000  0.3858420000000  0.5164530000000 1.0
C      1  0.5699270000000  0.5770700000000  0.5082790000000 1.0
C      1  0.4996320000000  0.4160020000000  0.4299910000000 1.0
C      1  0.5289350000000  0.3929010000000  0.4748600000000 1.0
C      1  0.4595750000000  0.5451980000000  0.4627600000000 1.0
C      1  0.4278570000000  0.5605830000000  0.5354170000000 1.0
C      1  0.4613450000000  0.4880190000000  0.5744210000000 1.0
C      1  0.5522510000000  0.4965990000000  0.5793190000000 1.0
C      1  0.5240580000000  0.5836700000000  0.4976850000000 1.0
C      1  0.4483400000000  0.4646740000000  0.5306880000000 1.0
C      1  0.5168360000000  0.5689520000000  0.5628440000000 1.0
C      1  0.4744720000000  0.3750130000000  0.4322620000000 1.0
C      1  0.4992880000000  0.5176000000000  0.4697880000000 1.0
C      1  0.4863860000000  0.4548330000000  0.4924780000000 1.0
C      1  0.4915600000000  0.3929440000000  0.4438790000000 1.0
C      1  0.5793460000000  0.5022680000000  0.5368040000000 1.0
C      1  0.4228940000000  0.4708120000000  0.5199650000000 1.0
C      1  0.5513520000000  0.4373750000000  0.4838490000000 1.0
C      1  0.4708900000000  0.4162330000000  0.5584290000000 1.0
C      1  0.4848640000000  0.3831760000000  0.4918850000000 1.0
C      1  0.6000220000000  0.5391210000000  0.5156880000000 1.0
C      1  0.4537500000000  0.5910660000000  0.4785260000000 1.0
C      1  0.5474080000000  0.4113880000000  0.4798190000000 1.0
C      1  0.4945230000000  0.5378960000000  0.5127980000000 1.0
C      1  0.5229010000000  0.5258440000000  0.5211880000000 1.0
C      1  0.5026760000000  0.4534610000000  0.5596080000000 1.0
C      1  0.4818670000000  0.5052290000000  0.5851910000000 1.0
C      1  0.4564930000000  0.4639650000000  0.5589220000000 1.0
C      1  0.5046000000000  0.4936050000000  0.5975790000000 1.0
C      1  0.5905270000000  0.5636340000000  0.5219920000000 1.0
C      1  0.4763630000000  0.4431390000000  0.5635000000000 1.0
C      1  0.4059650000000  0.5165720000000  0.5237880000000 1.0
END
