TITL C-3866675-3766-103 94835.7449446845 125000 -674.518585793817 0 0 112 (C1) n - 1
REM
REM in /home/nfs/bkarasulu/CARBON/AIRSS/Generating-Clusters/LCBOP/Only-C1/SD-CG/HFTN-CG/FIRE-CG
REM
REM
REM
REM
REM
REM ./C.cell (11c1c37f851c82e70ff6c80c92926a4b)
REM AIRSS Version 0.9.1 bugfix July 2018 build 013d7b7c2542+ Fri, 06 Jul 2018 19:26:36 +0100
REM compiler GCC version 9.2.1 20190827 (Red Hat 9.2.1-1)
REM options -cpp -mtune=generic -march=x86-64 -g -O0 -fpre-include=/usr/include/finclude/math-vector-fortran.h
REM seed 2093901379 1598978404 -1443046030 2064038074 1334413628 1621030638 899802971 -1753895387 -1808629700 -437911899 2084023635 290096957 -1140170989 -458564370 1794474038 -2075102683 -1701302386 1901819313 151559661 -556696811 618931546 529254504 148204375 -507591670 129675414 -1572226362 -740896526 -1899491816 -2065080704 -1685807272 -1792272106 -2051850377 -1155321096
REM
CELL 1.54180   50.00000   50.00000   50.00000   90.00000   90.00000   90.00000
LATT -1
SFAC C  
C      1  0.5446160000000  0.6011250000000  0.5124550000000 1.0
C      1  0.5625590000000  0.4286380000000  0.4648930000000 1.0
C      1  0.5358420000000  0.5091280000000  0.4610040000000 1.0
C      1  0.4772500000000  0.5723010000000  0.5685020000000 1.0
C      1  0.4646360000000  0.5840980000000  0.5220770000000 1.0
C      1  0.5625940000000  0.4635660000000  0.5389860000000 1.0
C      1  0.5416750000000  0.4195530000000  0.5043540000000 1.0
C      1  0.5307940000000  0.6026650000000  0.4876410000000 1.0
C      1  0.5420630000000  0.5571320000000  0.4277980000000 1.0
C      1  0.5501520000000  0.4740110000000  0.4198170000000 1.0
C      1  0.4621580000000  0.5011520000000  0.5860100000000 1.0
C      1  0.4915520000000  0.5756910000000  0.4766600000000 1.0
C      1  0.5015450000000  0.5687900000000  0.4506690000000 1.0
C      1  0.5354780000000  0.4645600000000  0.4767870000000 1.0
C      1  0.5417120000000  0.4441720000000  0.5249130000000 1.0
C      1  0.4599410000000  0.5481510000000  0.4350890000000 1.0
C      1  0.4592200000000  0.4374310000000  0.4136020000000 1.0
C      1  0.5255750000000  0.4286480000000  0.5499910000000 1.0
C      1  0.5520030000000  0.5157780000000  0.4365090000000 1.0
C      1  0.4336750000000  0.4443150000000  0.5462560000000 1.0
C      1  0.4241900000000  0.4444620000000  0.4659360000000 1.0
C      1  0.4644320000000  0.4824930000000  0.4999440000000 1.0
C      1  0.4342580000000  0.5581710000000  0.4869580000000 1.0
C      1  0.5760160000000  0.5520300000000  0.5600460000000 1.0
C      1  0.5218900000000  0.4815950000000  0.4129560000000 1.0
C      1  0.5223480000000  0.4847210000000  0.4624010000000 1.0
C      1  0.5411330000000  0.5939640000000  0.4622010000000 1.0
C      1  0.4901650000000  0.5108260000000  0.5286850000000 1.0
C      1  0.4684130000000  0.5273880000000  0.4881850000000 1.0
C      1  0.4179840000000  0.4932160000000  0.5314060000000 1.0
C      1  0.5687520000000  0.4905720000000  0.4359590000000 1.0
C      1  0.5310880000000  0.4948740000000  0.5087190000000 1.0
C      1  0.4406050000000  0.4236890000000  0.4604210000000 1.0
C      1  0.4644150000000  0.3981680000000  0.5190060000000 1.0
C      1  0.4656370000000  0.4103330000000  0.4652330000000 1.0
C      1  0.5622040000000  0.5567120000000  0.5118950000000 1.0
C      1  0.5291800000000  0.4326210000000  0.5775360000000 1.0
C      1  0.4960880000000  0.4673670000000  0.4211940000000 1.0
C      1  0.4932190000000  0.5198240000000  0.4539210000000 1.0
C      1  0.5074750000000  0.5353050000000  0.5798790000000 1.0
C      1  0.5626280000000  0.4554740000000  0.4734670000000 1.0
C      1  0.4880730000000  0.5502280000000  0.4910890000000 1.0
C      1  0.4877330000000  0.4886330000000  0.5897310000000 1.0
C      1  0.4484040000000  0.5425350000000  0.3866030000000 1.0
C      1  0.5161600000000  0.4113670000000  0.4590890000000 1.0
C      1  0.4843990000000  0.5147470000000  0.4080950000000 1.0
C      1  0.5120440000000  0.5054110000000  0.5867130000000 1.0
C      1  0.4756930000000  0.4904550000000  0.4224670000000 1.0
C      1  0.5614860000000  0.5123300000000  0.5499230000000 1.0
C      1  0.5024940000000  0.5990070000000  0.4883430000000 1.0
C      1  0.4418640000000  0.4658650000000  0.5041660000000 1.0
C      1  0.5514700000000  0.5665380000000  0.5548490000000 1.0
C      1  0.5398650000000  0.4141070000000  0.4755120000000 1.0
C      1  0.4475920000000  0.5797500000000  0.5013310000000 1.0
C      1  0.5691650000000  0.5394130000000  0.4491980000000 1.0
C      1  0.5344550000000  0.5315240000000  0.4175680000000 1.0
C      1  0.4898050000000  0.4180650000000  0.4479250000000 1.0
C      1  0.4236550000000  0.5388590000000  0.5076020000000 1.0
C      1  0.5784420000000  0.4825730000000  0.5168760000000 1.0
C      1  0.5838940000000  0.4951510000000  0.4641550000000 1.0
C      1  0.5286890000000  0.5752530000000  0.4441520000000 1.0
C      1  0.4462810000000  0.5088570000000  0.4647540000000 1.0
C      1  0.4406710000000  0.5550760000000  0.4572570000000 1.0
C      1  0.4789730000000  0.4760810000000  0.4767940000000 1.0
C      1  0.5790130000000  0.5114270000000  0.5272070000000 1.0
C      1  0.4706080000000  0.5082110000000  0.5091390000000 1.0
C      1  0.4293340000000  0.5462080000000  0.5351430000000 1.0
C      1  0.4283440000000  0.4659020000000  0.5287690000000 1.0
C      1  0.4838720000000  0.5753570000000  0.5411320000000 1.0
C      1  0.4927900000000  0.4376770000000  0.4990480000000 1.0
C      1  0.4985910000000  0.4225380000000  0.5423750000000 1.0
C      1  0.4850410000000  0.4398010000000  0.4265940000000 1.0
C      1  0.5130110000000  0.4459720000000  0.5946020000000 1.0
C      1  0.5515880000000  0.4736320000000  0.5659870000000 1.0
C      1  0.5825380000000  0.5406850000000  0.5244390000000 1.0
C      1  0.5349800000000  0.5209240000000  0.5456050000000 1.0
C      1  0.4245030000000  0.4680050000000  0.4812350000000 1.0
C      1  0.5730320000000  0.5268670000000  0.5726370000000 1.0
C      1  0.4955050000000  0.4932760000000  0.4631130000000 1.0
C      1  0.4238310000000  0.5042070000000  0.5571000000000 1.0
C      1  0.5476490000000  0.5186930000000  0.4861030000000 1.0
C      1  0.5146130000000  0.5119890000000  0.4074980000000 1.0
C      1  0.5178180000000  0.5070760000000  0.5290410000000 1.0
C      1  0.5538500000000  0.5795960000000  0.5280890000000 1.0
C      1  0.5607750000000  0.5129650000000  0.5943190000000 1.0
C      1  0.5400870000000  0.4939190000000  0.5857030000000 1.0
C      1  0.4231740000000  0.4974840000000  0.4794800000000 1.0
C      1  0.4371290000000  0.4531750000000  0.4140690000000 1.0
C      1  0.5121070000000  0.5496380000000  0.5079330000000 1.0
C      1  0.4363530000000  0.5307580000000  0.5577020000000 1.0
C      1  0.5806640000000  0.4750740000000  0.4860070000000 1.0
C      1  0.4370340000000  0.4891730000000  0.5780420000000 1.0
C      1  0.4805280000000  0.5466580000000  0.5802020000000 1.0
C      1  0.4883620000000  0.4595700000000  0.5911930000000 1.0
C      1  0.4512750000000  0.4939300000000  0.4385590000000 1.0
C      1  0.4719170000000  0.4109640000000  0.5440110000000 1.0
C      1  0.4631790000000  0.5356360000000  0.4084890000000 1.0
C      1  0.5767410000000  0.5237640000000  0.4734410000000 1.0
C      1  0.4170800000000  0.5103240000000  0.5055250000000 1.0
C      1  0.4863320000000  0.4498880000000  0.4767710000000 1.0
C      1  0.5395880000000  0.5437640000000  0.4994240000000 1.0
C      1  0.4870590000000  0.4678220000000  0.5383770000000 1.0
C      1  0.4927500000000  0.4448040000000  0.5254730000000 1.0
C      1  0.5073010000000  0.5597920000000  0.5345410000000 1.0
C      1  0.4545060000000  0.4295990000000  0.5592850000000 1.0
C      1  0.5306360000000  0.4673440000000  0.5046100000000 1.0
C      1  0.4666820000000  0.3978380000000  0.4916450000000 1.0
C      1  0.4590440000000  0.5288360000000  0.5764820000000 1.0
C      1  0.4870580000000  0.5455110000000  0.4445540000000 1.0
C      1  0.5252230000000  0.5474560000000  0.5568640000000 1.0
C      1  0.4668320000000  0.4430620000000  0.5816520000000 1.0
C      1  0.4316080000000  0.4766680000000  0.4266360000000 1.0
END
