TITL C-3866673-4222-701 121.778540505865 125000 -866.799584077324 0 0 143 (C1) n - 1
REM
REM in /home/nfs/bkarasulu/CARBON/AIRSS/Generating-Clusters/LCBOP/Only-C1/SD-CG/FIRE-CG
REM
REM
REM
REM
REM
REM ./C.cell (11c1c37f851c82e70ff6c80c92926a4b)
REM AIRSS Version 0.9.1 bugfix July 2018 build 013d7b7c2542+ Fri, 06 Jul 2018 19:26:36 +0100
REM compiler GCC version 9.2.1 20190827 (Red Hat 9.2.1-1)
REM options -cpp -mtune=generic -march=x86-64 -g -O0 -fpre-include=/usr/include/finclude/math-vector-fortran.h
REM seed 503117693 157431191 -260777453 -432746700 944810391 1076201711 1300988234 -1727267943 -1499681413 861918471 -226320476 877306891 -620085490 1443868884 -208174413 -1987408806 -598918617 -984077462 1773267814 1436369430 -1162897347 -1433574897 799484094 -1186013239 1322776729 -243629260 -892485390 570289457 -1104302808 -1838691701 784793708 -1400459491 -1354253203
REM
CELL 1.54180   50.00000   50.00000   50.00000   90.00000   90.00000   90.00000
LATT -1
SFAC C  
C      1  0.4696130000000  0.5745790000000  0.5690240000000 1.0
C      1  0.4532140000000  0.4244710000000  0.4244640000000 1.0
C      1  0.4882260000000  0.5162680000000  0.5384720000000 1.0
C      1  0.5101020000000  0.5375930000000  0.4468350000000 1.0
C      1  0.4871160000000  0.6309310000000  0.4959080000000 1.0
C      1  0.5078230000000  0.6792380000000  0.4892010000000 1.0
C      1  0.5418090000000  0.5323130000000  0.5466620000000 1.0
C      1  0.4963920000000  0.5615240000000  0.4092440000000 1.0
C      1  0.5373240000000  0.4640060000000  0.5804280000000 1.0
C      1  0.5237830000000  0.5854060000000  0.5783140000000 1.0
C      1  0.3938510000000  0.5702790000000  0.5168490000000 1.0
C      1  0.4996710000000  0.4236450000000  0.4008680000000 1.0
C      1  0.5329660000000  0.3958930000000  0.5407740000000 1.0
C      1  0.4927200000000  0.5246450000000  0.5110190000000 1.0
C      1  0.5315000000000  0.4537260000000  0.4648250000000 1.0
C      1  0.5361560000000  0.5112810000000  0.5652930000000 1.0
C      1  0.4886100000000  0.3999410000000  0.4571800000000 1.0
C      1  0.5603660000000  0.5210200000000  0.4087550000000 1.0
C      1  0.5536800000000  0.4746360000000  0.4074860000000 1.0
C      1  0.4970290000000  0.4051600000000  0.5046600000000 1.0
C      1  0.4667990000000  0.4547870000000  0.3911600000000 1.0
C      1  0.4869340000000  0.4459430000000  0.4515550000000 1.0
C      1  0.4793940000000  0.5673190000000  0.5953630000000 1.0
C      1  0.5924000000000  0.4732720000000  0.5510420000000 1.0
C      1  0.5093040000000  0.4002170000000  0.4773580000000 1.0
C      1  0.5138580000000  0.4592510000000  0.5984550000000 1.0
C      1  0.4897130000000  0.4742000000000  0.5959900000000 1.0
C      1  0.4122200000000  0.5617660000000  0.5368310000000 1.0
C      1  0.4509210000000  0.4585470000000  0.4805490000000 1.0
C      1  0.4684360000000  0.4043460000000  0.5620350000000 1.0
C      1  0.4477270000000  0.4233090000000  0.5590960000000 1.0
C      1  0.5656870000000  0.5131410000000  0.4725790000000 1.0
C      1  0.4439830000000  0.3936830000000  0.5019740000000 1.0
C      1  0.4953420000000  0.5356590000000  0.5563000000000 1.0
C      1  0.5960560000000  0.4980730000000  0.5376420000000 1.0
C      1  0.4378710000000  0.4509950000000  0.4258650000000 1.0
C      1  0.4768990000000  0.6049900000000  0.4992780000000 1.0
C      1  0.5616500000000  0.5827860000000  0.4324260000000 1.0
C      1  0.5399040000000  0.4233740000000  0.4264680000000 1.0
C      1  0.4548700000000  0.5885780000000  0.5474810000000 1.0
C      1  0.5657700000000  0.4312920000000  0.5483420000000 1.0
C      1  0.5777030000000  0.4458670000000  0.4671020000000 1.0
C      1  0.5316660000000  0.5217470000000  0.5916640000000 1.0
C      1  0.4663400000000  0.5344220000000  0.4700890000000 1.0
C      1  0.4832260000000  0.5787450000000  0.4557870000000 1.0
C      1  0.4117270000000  0.6022950000000  0.5628260000000 1.0
C      1  0.5182560000000  0.7033620000000  0.4858270000000 1.0
C      1  0.5959370000000  0.4456790000000  0.5112600000000 1.0
C      1  0.4686290000000  0.4218010000000  0.4511400000000 1.0
C      1  0.5106910000000  0.4944090000000  0.4119550000000 1.0
C      1  0.5466810000000  0.4095950000000  0.4487700000000 1.0
C      1  0.5199460000000  0.4949390000000  0.4913960000000 1.0
C      1  0.5418570000000  0.5425980000000  0.4089380000000 1.0
C      1  0.4888720000000  0.5614140000000  0.5527560000000 1.0
C      1  0.5212510000000  0.3994800000000  0.5666510000000 1.0
C      1  0.5581290000000  0.4128920000000  0.4993760000000 1.0
C      1  0.4684950000000  0.5252590000000  0.4962100000000 1.0
C      1  0.4463450000000  0.5085360000000  0.5021060000000 1.0
C      1  0.4188820000000  0.4711680000000  0.4351440000000 1.0
C      1  0.5801540000000  0.4313560000000  0.4916540000000 1.0
C      1  0.4930900000000  0.3958750000000  0.5681780000000 1.0
C      1  0.3725840000000  0.4634480000000  0.4456170000000 1.0
C      1  0.5959750000000  0.5494340000000  0.5472840000000 1.0
C      1  0.4244400000000  0.4844340000000  0.5566410000000 1.0
C      1  0.5031410000000  0.4522020000000  0.4765820000000 1.0
C      1  0.4716720000000  0.4271850000000  0.4001580000000 1.0
C      1  0.6137310000000  0.5017350000000  0.4681270000000 1.0
C      1  0.5431230000000  0.5321120000000  0.4793910000000 1.0
C      1  0.4688560000000  0.5146760000000  0.3949950000000 1.0
C      1  0.5225690000000  0.4488860000000  0.5232700000000 1.0
C      1  0.4768340000000  0.4938900000000  0.5516920000000 1.0
C      1  0.5870130000000  0.4478740000000  0.5389200000000 1.0
C      1  0.5287010000000  0.7274890000000  0.4824540000000 1.0
C      1  0.5190970000000  0.5230860000000  0.4964180000000 1.0
C      1  0.4859460000000  0.4699450000000  0.5413100000000 1.0
C      1  0.4266830000000  0.5839600000000  0.5486400000000 1.0
C      1  0.4679040000000  0.5150320000000  0.4517240000000 1.0
C      1  0.4439950000000  0.5099560000000  0.4060760000000 1.0
C      1  0.4809590000000  0.4908290000000  0.4565450000000 1.0
C      1  0.5631880000000  0.4965940000000  0.4226950000000 1.0
C      1  0.4166970000000  0.5332260000000  0.5368720000000 1.0
C      1  0.5471690000000  0.5591290000000  0.4328710000000 1.0
C      1  0.4605720000000  0.4681030000000  0.4158510000000 1.0
C      1  0.5546880000000  0.4111200000000  0.5297160000000 1.0
C      1  0.5433570000000  0.4826520000000  0.5002060000000 1.0
C      1  0.4337590000000  0.4549930000000  0.5940030000000 1.0
C      1  0.6012840000000  0.5232530000000  0.5483780000000 1.0
C      1  0.4250960000000  0.4968350000000  0.4216050000000 1.0
C      1  0.4246540000000  0.5233530000000  0.5117250000000 1.0
C      1  0.5312120000000  0.4831950000000  0.5600360000000 1.0
C      1  0.4330540000000  0.4117420000000  0.4853410000000 1.0
C      1  0.5215250000000  0.4389670000000  0.4107620000000 1.0
C      1  0.5966160000000  0.4949050000000  0.5095120000000 1.0
C      1  0.3981960000000  0.4671360000000  0.4554450000000 1.0
C      1  0.4980860000000  0.4823900000000  0.4785590000000 1.0
C      1  0.4673050000000  0.5916900000000  0.4754800000000 1.0
C      1  0.4471610000000  0.4427890000000  0.5374090000000 1.0
C      1  0.5129190000000  0.5104090000000  0.4365390000000 1.0
C      1  0.5017720000000  0.5806660000000  0.5360500000000 1.0
C      1  0.5914400000000  0.5108130000000  0.4852140000000 1.0
C      1  0.4340770000000  0.4304870000000  0.5828060000000 1.0
C      1  0.5163570000000  0.4310700000000  0.6040770000000 1.0
C      1  0.6231520000000  0.4770090000000  0.4769140000000 1.0
C      1  0.6093820000000  0.4689820000000  0.5011110000000 1.0
C      1  0.4699290000000  0.3932010000000  0.5083760000000 1.0
C      1  0.4781470000000  0.4698410000000  0.4380060000000 1.0
C      1  0.5503660000000  0.4381880000000  0.5721140000000 1.0
C      1  0.4254420000000  0.4637850000000  0.5350970000000 1.0
C      1  0.5748860000000  0.6052320000000  0.4322560000000 1.0
C      1  0.3953520000000  0.5813720000000  0.4925780000000 1.0
C      1  0.4730540000000  0.4494020000000  0.5265360000000 1.0
C      1  0.5278450000000  0.5811200000000  0.5495260000000 1.0
C      1  0.4420250000000  0.4811560000000  0.4955400000000 1.0
C      1  0.5225050000000  0.5441930000000  0.6036950000000 1.0
C      1  0.5138140000000  0.4678550000000  0.5422850000000 1.0
C      1  0.5621220000000  0.4921660000000  0.4514510000000 1.0
C      1  0.4982770000000  0.5147800000000  0.3945550000000 1.0
C      1  0.5135170000000  0.5409910000000  0.3976620000000 1.0
C      1  0.4652400000000  0.5178110000000  0.5972200000000 1.0
C      1  0.4974080000000  0.6551060000000  0.4925800000000 1.0
C      1  0.5256040000000  0.4683540000000  0.4079540000000 1.0
C      1  0.5352570000000  0.5475540000000  0.4566020000000 1.0
C      1  0.4933640000000  0.5596200000000  0.4375620000000 1.0
C      1  0.4145200000000  0.5113530000000  0.5548790000000 1.0
C      1  0.4005730000000  0.4662990000000  0.4844980000000 1.0
C      1  0.4403800000000  0.4785750000000  0.5801220000000 1.0
C      1  0.5386110000000  0.4049480000000  0.4761590000000 1.0
C      1  0.5574480000000  0.4642070000000  0.4594960000000 1.0
C      1  0.4770300000000  0.5944320000000  0.5258600000000 1.0
C      1  0.4137750000000  0.5899040000000  0.4753140000000 1.0
C      1  0.4678870000000  0.4918560000000  0.5822900000000 1.0
C      1  0.5142910000000  0.3881700000000  0.5217960000000 1.0
C      1  0.5752120000000  0.5659350000000  0.5430000000000 1.0
C      1  0.4976840000000  0.4368260000000  0.5065550000000 1.0
C      1  0.5451510000000  0.4582370000000  0.5105330000000 1.0
C      1  0.5475610000000  0.5605190000000  0.5436960000000 1.0
C      1  0.4484800000000  0.4311770000000  0.4722170000000 1.0
C      1  0.5389770000000  0.7512180000000  0.4791370000000 1.0
C      1  0.4396810000000  0.5931580000000  0.4703970000000 1.0
C      1  0.5329570000000  0.4178720000000  0.5845200000000 1.0
C      1  0.4677140000000  0.5433340000000  0.6052530000000 1.0
C      1  0.4172740000000  0.4704040000000  0.5077790000000 1.0
C      1  0.5091300000000  0.5686410000000  0.5970090000000 1.0
END
