TITL C-3866671-3735-160 2.43517096585516e-09 125000 -402.929869937645 0 0 66 (C1) n - 1
REM
REM in /home/nfs/bkarasulu/CARBON/AIRSS/Generating-Clusters/LCBOP/Only-C1/SD-CG/HFTN-CG/FIRE-CG
REM
REM
REM
REM
REM
REM ./C.cell (11c1c37f851c82e70ff6c80c92926a4b)
REM AIRSS Version 0.9.1 bugfix July 2018 build 013d7b7c2542+ Fri, 06 Jul 2018 19:26:36 +0100
REM compiler GCC version 9.2.1 20190827 (Red Hat 9.2.1-1)
REM options -cpp -mtune=generic -march=x86-64 -g -O0 -fpre-include=/usr/include/finclude/math-vector-fortran.h
REM seed 525934005 2132611745 2094304947 -155144834 1608410997 1225381178 -777540358 1143968201 2011275486 -1086049612 -1562664345 494091831 -874626700 -415205435 -1091532659 2036645297 539304893 -1556715323 -646743952 -664149173 2050300672 -575661887 1696964983 1487376191 -2146563189 -1715802198 135700745 1231102119 283860877 -222320041 -333869820 -1808588955 -79844666
REM
CELL 1.54180   50.00000   50.00000   50.00000   90.00000   90.00000   90.00000
LATT -1
SFAC C  
C      1  0.5021730000000  0.4695470000000  0.5824350000000 1.0
C      1  0.5583380000000  0.5049010000000  0.4921210000000 1.0
C      1  0.5285680000000  0.5691170000000  0.5080630000000 1.0
C      1  0.5119920000000  0.4285310000000  0.5593660000000 1.0
C      1  0.4658920000000  0.4454060000000  0.4945840000000 1.0
C      1  0.4481860000000  0.5085130000000  0.5419740000000 1.0
C      1  0.6018520000000  0.5031780000000  0.5410030000000 1.0
C      1  0.5238570000000  0.4411490000000  0.4862880000000 1.0
C      1  0.4790830000000  0.5810760000000  0.4994710000000 1.0
C      1  0.4324570000000  0.5010920000000  0.4239850000000 1.0
C      1  0.5828560000000  0.5217620000000  0.5525140000000 1.0
C      1  0.4847370000000  0.4495070000000  0.4101680000000 1.0
C      1  0.4594460000000  0.5272240000000  0.3910800000000 1.0
C      1  0.4887960000000  0.4855740000000  0.5048250000000 1.0
C      1  0.5564570000000  0.5694040000000  0.5021620000000 1.0
C      1  0.4154320000000  0.5044560000000  0.4926160000000 1.0
C      1  0.4365390000000  0.5170480000000  0.4010840000000 1.0
C      1  0.5577350000000  0.5619840000000  0.5548450000000 1.0
C      1  0.4565130000000  0.4888010000000  0.4338550000000 1.0
C      1  0.5638140000000  0.4767290000000  0.4930280000000 1.0
C      1  0.5061400000000  0.4290680000000  0.4673990000000 1.0
C      1  0.4498780000000  0.4696220000000  0.4882430000000 1.0
C      1  0.5463100000000  0.4575210000000  0.4818800000000 1.0
C      1  0.5233280000000  0.5355940000000  0.5750060000000 1.0
C      1  0.5130150000000  0.4414430000000  0.5125980000000 1.0
C      1  0.5752100000000  0.5495700000000  0.5118060000000 1.0
C      1  0.4365680000000  0.4841780000000  0.5328760000000 1.0
C      1  0.5194750000000  0.5142360000000  0.4651050000000 1.0
C      1  0.4785850000000  0.4285440000000  0.4756020000000 1.0
C      1  0.4753080000000  0.4545920000000  0.5436740000000 1.0
C      1  0.4550720000000  0.5702860000000  0.5043130000000 1.0
C      1  0.5833500000000  0.4682400000000  0.5116500000000 1.0
C      1  0.5200550000000  0.4889200000000  0.5862680000000 1.0
C      1  0.4478990000000  0.4614450000000  0.5454930000000 1.0
C      1  0.5312680000000  0.5516180000000  0.5532250000000 1.0
C      1  0.4101930000000  0.5007790000000  0.4409560000000 1.0
C      1  0.5058760000000  0.5825020000000  0.4985040000000 1.0
C      1  0.5222450000000  0.4262720000000  0.5344590000000 1.0
C      1  0.4715590000000  0.4885990000000  0.4812740000000 1.0
C      1  0.4994750000000  0.5113690000000  0.4458660000000 1.0
C      1  0.5771820000000  0.5255690000000  0.4967050000000 1.0
C      1  0.4676440000000  0.4674980000000  0.4196170000000 1.0
C      1  0.4852700000000  0.5276950000000  0.3985670000000 1.0
C      1  0.5049860000000  0.5442340000000  0.5932870000000 1.0
C      1  0.4299780000000  0.4827090000000  0.5046770000000 1.0
C      1  0.5616500000000  0.5048900000000  0.5656530000000 1.0
C      1  0.4716250000000  0.5038880000000  0.4555990000000 1.0
C      1  0.4941500000000  0.5082350000000  0.5207760000000 1.0
C      1  0.4345880000000  0.5530930000000  0.5055140000000 1.0
C      1  0.5773070000000  0.5470560000000  0.5407170000000 1.0
C      1  0.5360860000000  0.5100990000000  0.5770400000000 1.0
C      1  0.5009520000000  0.5205910000000  0.4191770000000 1.0
C      1  0.5897250000000  0.4770250000000  0.5374120000000 1.0
C      1  0.5223410000000  0.5477590000000  0.5263940000000 1.0
C      1  0.5035010000000  0.4319230000000  0.4173040000000 1.0
C      1  0.4868860000000  0.4563940000000  0.5156550000000 1.0
C      1  0.4201320000000  0.5308610000000  0.5017610000000 1.0
C      1  0.4936580000000  0.4494070000000  0.5650070000000 1.0
C      1  0.4041500000000  0.5010400000000  0.4670450000000 1.0
C      1  0.4735070000000  0.5169460000000  0.5378500000000 1.0
C      1  0.5128100000000  0.4234430000000  0.4409070000000 1.0
C      1  0.4502600000000  0.5545210000000  0.4508670000000 1.0
C      1  0.5169610000000  0.5229320000000  0.5138110000000 1.0
C      1  0.5689050000000  0.4776090000000  0.5577580000000 1.0
C      1  0.5313960000000  0.5140140000000  0.4904400000000 1.0
C      1  0.4588190000000  0.5311710000000  0.4587980000000 1.0
END
