TITL C-3866672-3872-170 190340.176761057 125000 -1089.69631233772 0 0 183 (C1) n - 1
REM
REM in /home/nfs/bkarasulu/CARBON/AIRSS/Generating-Clusters/LCBOP/Only-C1/SD-CG/HFTN-CG/FIRE-CG
REM
REM
REM
REM
REM
REM ./C.cell (11c1c37f851c82e70ff6c80c92926a4b)
REM AIRSS Version 0.9.1 bugfix July 2018 build 013d7b7c2542+ Fri, 06 Jul 2018 19:26:36 +0100
REM compiler GCC version 9.2.1 20190827 (Red Hat 9.2.1-1)
REM options -cpp -mtune=generic -march=x86-64 -g -O0 -fpre-include=/usr/include/finclude/math-vector-fortran.h
REM seed -1472269197 -1393842265 2018956216 203376687 538170595 -1538709875 -1338093562 1272716722 -720805690 -54372273 1436169669 -1551678731 1507672324 -1296904045 -1381787862 1913448031 197892697 -1617588145 892519393 1972149984 -1049143792 1419605331 -824213546 2019242080 345987212 776516528 -1325106534 -94093312 -1190708617 1318792574 1248261458 -1298384053 1308045618
REM
CELL 1.54180   50.00000   50.00000   50.00000   90.00000   90.00000   90.00000
LATT -1
SFAC C  
C      1  0.4270600000000  0.4757380000000  0.5191080000000 1.0
C      1  0.5280220000000  0.4884390000000  0.4562940000000 1.0
C      1  0.4608270000000  0.4406350000000  0.5103480000000 1.0
C      1  0.4618240000000  0.3867830000000  0.5395840000000 1.0
C      1  0.6080880000000  0.4472850000000  0.4643920000000 1.0
C      1  0.5009790000000  0.5787180000000  0.5378830000000 1.0
C      1  0.4903800000000  0.5241190000000  0.4794780000000 1.0
C      1  0.5775680000000  0.5280610000000  0.5303900000000 1.0
C      1  0.5230060000000  0.6334840000000  0.5093520000000 1.0
C      1  0.5961600000000  0.5078440000000  0.5848450000000 1.0
C      1  0.4559570000000  0.5385380000000  0.4211840000000 1.0
C      1  0.4846670000000  0.4840780000000  0.5049830000000 1.0
C      1  0.5494560000000  0.5381020000000  0.6027720000000 1.0
C      1  0.6120860000000  0.5205070000000  0.5663420000000 1.0
C      1  0.3851890000000  0.5402970000000  0.4844350000000 1.0
C      1  0.4583760000000  0.5006230000000  0.5822720000000 1.0
C      1  0.4415870000000  0.4048230000000  0.4620300000000 1.0
C      1  0.4479120000000  0.5756940000000  0.5625890000000 1.0
C      1  0.4518430000000  0.4446840000000  0.5737230000000 1.0
C      1  0.3714750000000  0.4826700000000  0.5371430000000 1.0
C      1  0.5510070000000  0.4234800000000  0.5698250000000 1.0
C      1  0.5627250000000  0.5239150000000  0.3983390000000 1.0
C      1  0.5470510000000  0.5272910000000  0.4779920000000 1.0
C      1  0.5583450000000  0.4683680000000  0.5932080000000 1.0
C      1  0.5490810000000  0.4927660000000  0.5522590000000 1.0
C      1  0.5204720000000  0.5442120000000  0.5145160000000 1.0
C      1  0.5915130000000  0.5556770000000  0.4916840000000 1.0
C      1  0.4597160000000  0.6415060000000  0.4306740000000 1.0
C      1  0.5015090000000  0.5542820000000  0.3746780000000 1.0
C      1  0.5521050000000  0.4521220000000  0.5697780000000 1.0
C      1  0.5031500000000  0.4395920000000  0.4053950000000 1.0
C      1  0.5331800000000  0.4673250000000  0.6083320000000 1.0
C      1  0.4464960000000  0.5059350000000  0.3868690000000 1.0
C      1  0.4558670000000  0.6254640000000  0.5824700000000 1.0
C      1  0.4409550000000  0.5363780000000  0.4878040000000 1.0
C      1  0.3862300000000  0.4813160000000  0.5601430000000 1.0
C      1  0.4572200000000  0.3880660000000  0.5110020000000 1.0
C      1  0.5514460000000  0.4491940000000  0.4378170000000 1.0
C      1  0.3940930000000  0.5422070000000  0.5115030000000 1.0
C      1  0.4486880000000  0.3926920000000  0.4855010000000 1.0
C      1  0.5565990000000  0.3878100000000  0.4692610000000 1.0
C      1  0.5944040000000  0.5277220000000  0.4759650000000 1.0
C      1  0.5474970000000  0.5504930000000  0.5775140000000 1.0
C      1  0.4965950000000  0.5012490000000  0.5500970000000 1.0
C      1  0.5749460000000  0.3811700000000  0.4900040000000 1.0
C      1  0.5119650000000  0.4659200000000  0.3959340000000 1.0
C      1  0.4301960000000  0.5065760000000  0.5791710000000 1.0
C      1  0.5810700000000  0.4938240000000  0.4302520000000 1.0
C      1  0.3922330000000  0.5629650000000  0.4684010000000 1.0
C      1  0.4845480000000  0.3956040000000  0.5552660000000 1.0
C      1  0.4636230000000  0.4952550000000  0.4521830000000 1.0
C      1  0.6231870000000  0.5229660000000  0.5411180000000 1.0
C      1  0.4361040000000  0.4633330000000  0.3667910000000 1.0
C      1  0.5682760000000  0.4076980000000  0.4516850000000 1.0
C      1  0.4278700000000  0.5211600000000  0.4676600000000 1.0
C      1  0.6109020000000  0.4712110000000  0.4810880000000 1.0
C      1  0.5798440000000  0.5404230000000  0.4440480000000 1.0
C      1  0.5032350000000  0.4114540000000  0.5133960000000 1.0
C      1  0.4695910000000  0.5447750000000  0.5976070000000 1.0
C      1  0.5761750000000  0.4682190000000  0.5146160000000 1.0
C      1  0.4487770000000  0.6032440000000  0.4579530000000 1.0
C      1  0.4768980000000  0.5443140000000  0.3781930000000 1.0
C      1  0.4614670000000  0.5751800000000  0.5095270000000 1.0
C      1  0.5250550000000  0.6197330000000  0.4613930000000 1.0
C      1  0.5238310000000  0.4682670000000  0.5249110000000 1.0
C      1  0.5126020000000  0.5134130000000  0.4130490000000 1.0
C      1  0.5168510000000  0.5556430000000  0.5401310000000 1.0
C      1  0.5038460000000  0.4053990000000  0.5718200000000 1.0
C      1  0.3759570000000  0.5050700000000  0.4849080000000 1.0
C      1  0.5332430000000  0.5160130000000  0.4565030000000 1.0
C      1  0.5513960000000  0.5476310000000  0.3880470000000 1.0
C      1  0.6142550000000  0.4598800000000  0.5717290000000 1.0
C      1  0.5335390000000  0.5654320000000  0.4518270000000 1.0
C      1  0.3969080000000  0.5913560000000  0.4644600000000 1.0
C      1  0.5403770000000  0.5161340000000  0.6156100000000 1.0
C      1  0.4991780000000  0.5815150000000  0.6236810000000 1.0
C      1  0.5749430000000  0.4182670000000  0.4030010000000 1.0
C      1  0.4466790000000  0.4420190000000  0.4241500000000 1.0
C      1  0.3690440000000  0.6330330000000  0.4680740000000 1.0
C      1  0.5075510000000  0.4754050000000  0.4450500000000 1.0
C      1  0.4517900000000  0.5626860000000  0.4851090000000 1.0
C      1  0.5039880000000  0.4320150000000  0.6280410000000 1.0
C      1  0.4263590000000  0.5347160000000  0.5787370000000 1.0
C      1  0.4155020000000  0.6368820000000  0.4720260000000 1.0
C      1  0.5903460000000  0.4029920000000  0.5006740000000 1.0
C      1  0.5886050000000  0.4050230000000  0.5302520000000 1.0
C      1  0.3977050000000  0.4602060000000  0.4768120000000 1.0
C      1  0.4695890000000  0.6207630000000  0.4463120000000 1.0
C      1  0.5222360000000  0.4939030000000  0.6147160000000 1.0
C      1  0.5646050000000  0.4127060000000  0.5458650000000 1.0
C      1  0.5357990000000  0.4662580000000  0.5506560000000 1.0
C      1  0.5789390000000  0.4885480000000  0.5942500000000 1.0
C      1  0.4736560000000  0.4868830000000  0.5624970000000 1.0
C      1  0.5709600000000  0.5531240000000  0.5144850000000 1.0
C      1  0.4650570000000  0.6486370000000  0.5900930000000 1.0
C      1  0.4324670000000  0.4277890000000  0.4467370000000 1.0
C      1  0.5255030000000  0.4195590000000  0.5846590000000 1.0
C      1  0.4335270000000  0.4673890000000  0.4151610000000 1.0
C      1  0.4697500000000  0.5218730000000  0.4387320000000 1.0
C      1  0.4346570000000  0.4978100000000  0.4532210000000 1.0
C      1  0.4551540000000  0.4267140000000  0.6213450000000 1.0
C      1  0.5361530000000  0.4873640000000  0.5075500000000 1.0
C      1  0.4085600000000  0.4625000000000  0.5025030000000 1.0
C      1  0.4098100000000  0.4412420000000  0.4589500000000 1.0
C      1  0.6048900000000  0.4755170000000  0.5514830000000 1.0
C      1  0.5525270000000  0.6111090000000  0.4556340000000 1.0
C      1  0.5211060000000  0.4398560000000  0.6070090000000 1.0
C      1  0.4827620000000  0.4371440000000  0.4655110000000 1.0
C      1  0.5153940000000  0.5274100000000  0.4378100000000 1.0
C      1  0.4618930000000  0.4419610000000  0.4819920000000 1.0
C      1  0.4462060000000  0.4337430000000  0.5972450000000 1.0
C      1  0.4492160000000  0.6013520000000  0.5737260000000 1.0
C      1  0.4388640000000  0.4787480000000  0.3892660000000 1.0
C      1  0.5620030000000  0.5637850000000  0.4467930000000 1.0
C      1  0.4992210000000  0.4611780000000  0.5150210000000 1.0
C      1  0.5328440000000  0.4437520000000  0.4593230000000 1.0
C      1  0.5718750000000  0.5891650000000  0.4582220000000 1.0
C      1  0.5699890000000  0.5116790000000  0.4836250000000 1.0
C      1  0.6166360000000  0.5066820000000  0.4867190000000 1.0
C      1  0.4437350000000  0.5222240000000  0.5121910000000 1.0
C      1  0.4886040000000  0.4351970000000  0.5169840000000 1.0
C      1  0.4434440000000  0.3516760000000  0.5674310000000 1.0
C      1  0.5146490000000  0.5729140000000  0.4699280000000 1.0
C      1  0.3770140000000  0.4991010000000  0.5145750000000 1.0
C      1  0.4910680000000  0.5069120000000  0.5225690000000 1.0
C      1  0.4164720000000  0.3894190000000  0.5562740000000 1.0
C      1  0.5122630000000  0.4004320000000  0.4556020000000 1.0
C      1  0.5497080000000  0.4997970000000  0.3886610000000 1.0
C      1  0.5771790000000  0.5210650000000  0.4233150000000 1.0
C      1  0.4885040000000  0.5840940000000  0.5124620000000 1.0
C      1  0.3988390000000  0.5167930000000  0.5231480000000 1.0
C      1  0.4918420000000  0.5328270000000  0.4523090000000 1.0
C      1  0.6245990000000  0.5064650000000  0.5171490000000 1.0
C      1  0.5443230000000  0.5455670000000  0.5002590000000 1.0
C      1  0.4786290000000  0.4263830000000  0.6340920000000 1.0
C      1  0.4850700000000  0.5633410000000  0.6114450000000 1.0
C      1  0.5256360000000  0.4205710000000  0.4112970000000 1.0
C      1  0.5911070000000  0.5813490000000  0.4781260000000 1.0
C      1  0.4993630000000  0.5284880000000  0.5059010000000 1.0
C      1  0.5548030000000  0.4216260000000  0.4254340000000 1.0
C      1  0.4575550000000  0.5309880000000  0.3938350000000 1.0
C      1  0.5639000000000  0.5691370000000  0.5635070000000 1.0
C      1  0.4740680000000  0.5162880000000  0.6003050000000 1.0
C      1  0.5246570000000  0.5106800000000  0.5575040000000 1.0
C      1  0.4600110000000  0.4628860000000  0.5539640000000 1.0
C      1  0.6230700000000  0.4458940000000  0.4412560000000 1.0
C      1  0.6047840000000  0.4648210000000  0.5074260000000 1.0
C      1  0.4814280000000  0.4762320000000  0.4391390000000 1.0
C      1  0.4741960000000  0.4360740000000  0.4130490000000 1.0
C      1  0.4246170000000  0.5044050000000  0.5223490000000 1.0
C      1  0.3723250000000  0.6065320000000  0.4630390000000 1.0
C      1  0.4988900000000  0.6197670000000  0.4475380000000 1.0
C      1  0.5083240000000  0.4284800000000  0.4576020000000 1.0
C      1  0.4212390000000  0.6097230000000  0.4648650000000 1.0
C      1  0.4484410000000  0.5621760000000  0.4340450000000 1.0
C      1  0.5445300000000  0.4463190000000  0.4841000000000 1.0
C      1  0.5060570000000  0.5901310000000  0.4911400000000 1.0
C      1  0.4770570000000  0.4972060000000  0.4801680000000 1.0
C      1  0.5586440000000  0.4449090000000  0.5078220000000 1.0
C      1  0.5182470000000  0.6158260000000  0.4893230000000 1.0
C      1  0.4474560000000  0.5734810000000  0.5342800000000 1.0
C      1  0.4484030000000  0.4593820000000  0.5281270000000 1.0
C      1  0.4080390000000  0.4896200000000  0.5739220000000 1.0
C      1  0.5286100000000  0.3881880000000  0.4751100000000 1.0
C      1  0.5770000000000  0.4827210000000  0.5431850000000 1.0
C      1  0.3912870000000  0.4873550000000  0.4391600000000 1.0
C      1  0.4478640000000  0.5531870000000  0.5801230000000 1.0
C      1  0.5694910000000  0.5731300000000  0.5369470000000 1.0
C      1  0.3836640000000  0.4839030000000  0.4665510000000 1.0
C      1  0.5497650000000  0.4252300000000  0.5250370000000 1.0
C      1  0.5629990000000  0.4899250000000  0.4989360000000 1.0
C      1  0.5235470000000  0.4922150000000  0.3972340000000 1.0
C      1  0.5920930000000  0.4232610000000  0.4718250000000 1.0
C      1  0.4401650000000  0.3757360000000  0.5547640000000 1.0
C      1  0.5273180000000  0.5393310000000  0.5607870000000 1.0
C      1  0.4523990000000  0.5751720000000  0.4589920000000 1.0
C      1  0.3909170000000  0.6483820000000  0.4730670000000 1.0
C      1  0.6200750000000  0.4788730000000  0.5269510000000 1.0
C      1  0.5179220000000  0.3923340000000  0.5011530000000 1.0
C      1  0.5693530000000  0.4700000000000  0.4330600000000 1.0
C      1  0.5278400000000  0.5568060000000  0.3789220000000 1.0
C      1  0.4191140000000  0.4844470000000  0.4336740000000 1.0
C      1  0.4950820000000  0.5022550000000  0.6132860000000 1.0
END
