TITL C-3866671-3735-86 -6.10623098119891e-07 125000 -563.718296672092 0 0 92 (C1) n - 1
REM
REM in /home/nfs/bkarasulu/CARBON/AIRSS/Generating-Clusters/LCBOP/Only-C1/SD-CG/HFTN-CG/FIRE-CG
REM
REM
REM
REM
REM
REM ./C.cell (11c1c37f851c82e70ff6c80c92926a4b)
REM AIRSS Version 0.9.1 bugfix July 2018 build 013d7b7c2542+ Fri, 06 Jul 2018 19:26:36 +0100
REM compiler GCC version 9.2.1 20190827 (Red Hat 9.2.1-1)
REM options -cpp -mtune=generic -march=x86-64 -g -O0 -fpre-include=/usr/include/finclude/math-vector-fortran.h
REM seed -717250873 -1577669268 1246067275 1481187886 365152420 -481433762 -2112087753 -1198028767 -425990891 1133232135 -1291805156 -1584110761 261990472 509282223 -1373677175 865665414 572703558 320560087 -616321772 -8810287 1594194687 1479142467 -675998889 -2027089063 2093018079 941128412 1993926916 -233406731 1151013595 -1383801983 1262322873 -228854814 1423157171
REM
CELL 1.54180   50.00000   50.00000   50.00000   90.00000   90.00000   90.00000
LATT -1
SFAC C  
C      1  0.5973860000000  0.5213830000000  0.4460620000000 1.0
C      1  0.4470650000000  0.4171840000000  0.5107790000000 1.0
C      1  0.5282670000000  0.5461340000000  0.5618920000000 1.0
C      1  0.4791210000000  0.5974810000000  0.5195090000000 1.0
C      1  0.5421680000000  0.5686260000000  0.5142150000000 1.0
C      1  0.4521900000000  0.4756050000000  0.5364830000000 1.0
C      1  0.5169190000000  0.5657030000000  0.4667110000000 1.0
C      1  0.5440750000000  0.4131710000000  0.4875550000000 1.0
C      1  0.4835010000000  0.4623830000000  0.4725430000000 1.0
C      1  0.4366240000000  0.5266820000000  0.4285980000000 1.0
C      1  0.4256140000000  0.4616610000000  0.4993710000000 1.0
C      1  0.5526200000000  0.5078010000000  0.4730210000000 1.0
C      1  0.4660750000000  0.4806400000000  0.4867820000000 1.0
C      1  0.5426510000000  0.4661090000000  0.5756940000000 1.0
C      1  0.6300810000000  0.5756820000000  0.4746550000000 1.0
C      1  0.4246750000000  0.4328210000000  0.4636300000000 1.0
C      1  0.4909520000000  0.5419900000000  0.5914930000000 1.0
C      1  0.6146400000000  0.5815090000000  0.4956120000000 1.0
C      1  0.5630540000000  0.4853960000000  0.5717280000000 1.0
C      1  0.5115000000000  0.4965290000000  0.4832320000000 1.0
C      1  0.5648680000000  0.4330780000000  0.4856970000000 1.0
C      1  0.4939950000000  0.4671240000000  0.4459000000000 1.0
C      1  0.5537380000000  0.4562860000000  0.4038920000000 1.0
C      1  0.4558730000000  0.5805390000000  0.5141830000000 1.0
C      1  0.4658310000000  0.5439380000000  0.5488770000000 1.0
C      1  0.5258780000000  0.5270970000000  0.5186340000000 1.0
C      1  0.5031370000000  0.5112400000000  0.5256870000000 1.0
C      1  0.5395480000000  0.4500070000000  0.5209610000000 1.0
C      1  0.5382420000000  0.4645460000000  0.4231460000000 1.0
C      1  0.4434150000000  0.4776670000000  0.5615550000000 1.0
C      1  0.4502210000000  0.5638630000000  0.5359580000000 1.0
C      1  0.5150330000000  0.4740490000000  0.5728700000000 1.0
C      1  0.5770790000000  0.4995450000000  0.5536450000000 1.0
C      1  0.5113440000000  0.5014720000000  0.5782480000000 1.0
C      1  0.5851030000000  0.4317610000000  0.4667070000000 1.0
C      1  0.5227730000000  0.5779600000000  0.4937280000000 1.0
C      1  0.4234710000000  0.5312130000000  0.4815620000000 1.0
C      1  0.5004060000000  0.4476380000000  0.4899750000000 1.0
C      1  0.4826570000000  0.4374890000000  0.5446560000000 1.0
C      1  0.4172970000000  0.5057880000000  0.4680080000000 1.0
C      1  0.5302650000000  0.5507040000000  0.5341980000000 1.0
C      1  0.4376640000000  0.5545390000000  0.4695330000000 1.0
C      1  0.4745740000000  0.4208810000000  0.5217390000000 1.0
C      1  0.4693950000000  0.5090620000000  0.4856240000000 1.0
C      1  0.4026680000000  0.5244150000000  0.5534610000000 1.0
C      1  0.4781750000000  0.5882770000000  0.4744300000000 1.0
C      1  0.4155020000000  0.4594900000000  0.4550960000000 1.0
C      1  0.6184170000000  0.5375450000000  0.4440410000000 1.0
C      1  0.4128050000000  0.4777830000000  0.4783340000000 1.0
C      1  0.4449280000000  0.4311860000000  0.4202090000000 1.0
C      1  0.4340900000000  0.3944130000000  0.5200400000000 1.0
C      1  0.4771280000000  0.5243160000000  0.5307600000000 1.0
C      1  0.5722330000000  0.5284300000000  0.5129240000000 1.0
C      1  0.5135930000000  0.5296610000000  0.5800600000000 1.0
C      1  0.5704230000000  0.5582050000000  0.5125520000000 1.0
C      1  0.4959170000000  0.4553600000000  0.5610050000000 1.0
C      1  0.5088330000000  0.4873740000000  0.5105920000000 1.0
C      1  0.5077740000000  0.5391750000000  0.4649330000000 1.0
C      1  0.4825030000000  0.6142140000000  0.5405870000000 1.0
C      1  0.5781770000000  0.4781720000000  0.5105100000000 1.0
C      1  0.5749840000000  0.5124520000000  0.4571320000000 1.0
C      1  0.4962030000000  0.4061440000000  0.5092270000000 1.0
C      1  0.5805020000000  0.5031100000000  0.5256840000000 1.0
C      1  0.4284950000000  0.4744870000000  0.4334440000000 1.0
C      1  0.4759770000000  0.4676390000000  0.4243950000000 1.0
C      1  0.4535910000000  0.5747530000000  0.4846530000000 1.0
C      1  0.4077550000000  0.5087980000000  0.5746190000000 1.0
C      1  0.4494570000000  0.4729400000000  0.5089150000000 1.0
C      1  0.5318120000000  0.4902050000000  0.4648890000000 1.0
C      1  0.5927050000000  0.5746140000000  0.5090070000000 1.0
C      1  0.5149570000000  0.4599360000000  0.5113750000000 1.0
C      1  0.5204280000000  0.4038970000000  0.4971480000000 1.0
C      1  0.4353810000000  0.4179940000000  0.4421200000000 1.0
C      1  0.4493170000000  0.4595080000000  0.4205040000000 1.0
C      1  0.5221770000000  0.4738350000000  0.4438110000000 1.0
C      1  0.4257520000000  0.4891860000000  0.5779660000000 1.0
C      1  0.4311260000000  0.5274250000000  0.5085670000000 1.0
C      1  0.4689500000000  0.5455670000000  0.5765670000000 1.0
C      1  0.4968570000000  0.5823550000000  0.4533370000000 1.0
C      1  0.4268790000000  0.5027070000000  0.4399230000000 1.0
C      1  0.4973630000000  0.5932220000000  0.4979250000000 1.0
C      1  0.6041120000000  0.4323240000000  0.4488890000000 1.0
C      1  0.5433910000000  0.4325220000000  0.5427110000000 1.0
C      1  0.6315040000000  0.5583320000000  0.4544130000000 1.0
C      1  0.4941020000000  0.5173390000000  0.4749880000000 1.0
C      1  0.4588730000000  0.5212770000000  0.5090130000000 1.0
C      1  0.5628140000000  0.4546250000000  0.5047230000000 1.0
C      1  0.4312110000000  0.4334630000000  0.4921210000000 1.0
C      1  0.5476330000000  0.5204930000000  0.4989720000000 1.0
C      1  0.4411380000000  0.5502830000000  0.4414550000000 1.0
C      1  0.4124990000000  0.5290740000000  0.5291380000000 1.0
C      1  0.5479040000000  0.4395030000000  0.5682880000000 1.0
END
