TITL C-3866669-3764-537 -6.45088882180655e-07 125000 -1086.27719839167 0 0 176 (C1) n - 1
REM
REM in /home/nfs/bkarasulu/CARBON/AIRSS/Generating-Clusters/LCBOP/Only-C1/SD-CG/FIRE-CG
REM
REM
REM
REM
REM
REM ./C.cell (11c1c37f851c82e70ff6c80c92926a4b)
REM AIRSS Version 0.9.1 bugfix July 2018 build 013d7b7c2542+ Fri, 06 Jul 2018 19:26:36 +0100
REM compiler GCC version 9.2.1 20190827 (Red Hat 9.2.1-1)
REM options -cpp -mtune=generic -march=x86-64 -g -O0 -fpre-include=/usr/include/finclude/math-vector-fortran.h
REM seed 1522450831 -899022046 229666428 -586544803 -1670135496 745962100 -106066006 512525744 -737895666 -2134746886 1513054672 -1232232492 -2125827616 1733015991 -1020252760 1840149832 -662898267 -1853061680 -1283517158 78024900 -1176435420 -1058491947 2092144082 1948519709 186503110 -786222964 -441110124 -203822444 1216103955 -581738271 2137493607 459941088 867722501
REM
CELL 1.54180   50.00000   50.00000   50.00000   90.00000   90.00000   90.00000
LATT -1
SFAC C  
C      1  0.4805770000000  0.5711060000000  0.4074380000000 1.0
C      1  0.4903600000000  0.5838580000000  0.5751800000000 1.0
C      1  0.4268290000000  0.5218780000000  0.4256870000000 1.0
C      1  0.4895710000000  0.3780250000000  0.5559790000000 1.0
C      1  0.5869690000000  0.5518950000000  0.5989040000000 1.0
C      1  0.3997850000000  0.4493700000000  0.5209140000000 1.0
C      1  0.5528330000000  0.6039790000000  0.4676710000000 1.0
C      1  0.5672460000000  0.4310180000000  0.4397740000000 1.0
C      1  0.5550970000000  0.5272630000000  0.3952800000000 1.0
C      1  0.4441420000000  0.4610200000000  0.5412560000000 1.0
C      1  0.4824530000000  0.4916730000000  0.6188260000000 1.0
C      1  0.4513950000000  0.4791110000000  0.5632390000000 1.0
C      1  0.5365760000000  0.5495270000000  0.4659870000000 1.0
C      1  0.5947780000000  0.4794430000000  0.3900510000000 1.0
C      1  0.5057920000000  0.4494920000000  0.6165380000000 1.0
C      1  0.4010590000000  0.5722840000000  0.5487150000000 1.0
C      1  0.4301070000000  0.4161400000000  0.5370030000000 1.0
C      1  0.5312610000000  0.3648060000000  0.5207220000000 1.0
C      1  0.4432340000000  0.5926640000000  0.5419270000000 1.0
C      1  0.5699820000000  0.5359830000000  0.6122210000000 1.0
C      1  0.4760120000000  0.4942350000000  0.5131160000000 1.0
C      1  0.5132580000000  0.4173310000000  0.4366840000000 1.0
C      1  0.3913950000000  0.5528410000000  0.4852340000000 1.0
C      1  0.6062540000000  0.4774270000000  0.5053000000000 1.0
C      1  0.4477450000000  0.4224670000000  0.5854240000000 1.0
C      1  0.5287880000000  0.4500190000000  0.4729750000000 1.0
C      1  0.5895900000000  0.4874080000000  0.5678120000000 1.0
C      1  0.5961290000000  0.5747640000000  0.5529740000000 1.0
C      1  0.5384710000000  0.4723990000000  0.4866650000000 1.0
C      1  0.4819570000000  0.4787760000000  0.4689070000000 1.0
C      1  0.5685290000000  0.5825130000000  0.4785960000000 1.0
C      1  0.5485140000000  0.4922180000000  0.6069670000000 1.0
C      1  0.5047470000000  0.5201880000000  0.4882670000000 1.0
C      1  0.4598770000000  0.6004480000000  0.5228160000000 1.0
C      1  0.4388750000000  0.5289130000000  0.5759770000000 1.0
C      1  0.4217250000000  0.5765550000000  0.4434600000000 1.0
C      1  0.5544090000000  0.5566840000000  0.5415900000000 1.0
C      1  0.5243880000000  0.5241980000000  0.5081810000000 1.0
C      1  0.5057900000000  0.4286950000000  0.5204250000000 1.0
C      1  0.5214400000000  0.5517780000000  0.4236210000000 1.0
C      1  0.4507130000000  0.5330990000000  0.5058970000000 1.0
C      1  0.4904980000000  0.4832770000000  0.3952350000000 1.0
C      1  0.4273760000000  0.4926050000000  0.4986020000000 1.0
C      1  0.5651680000000  0.5098220000000  0.4811870000000 1.0
C      1  0.5140210000000  0.5241060000000  0.5345760000000 1.0
C      1  0.4764710000000  0.4745370000000  0.4197020000000 1.0
C      1  0.4052150000000  0.5288820000000  0.4793950000000 1.0
C      1  0.5178150000000  0.4087000000000  0.5774190000000 1.0
C      1  0.4590190000000  0.6096530000000  0.4272870000000 1.0
C      1  0.4785030000000  0.4634170000000  0.6063600000000 1.0
C      1  0.4890150000000  0.5569790000000  0.3841870000000 1.0
C      1  0.4305000000000  0.5800600000000  0.4694700000000 1.0
C      1  0.4915560000000  0.3716580000000  0.4910230000000 1.0
C      1  0.6035910000000  0.4304780000000  0.4692640000000 1.0
C      1  0.5966480000000  0.5249560000000  0.4492650000000 1.0
C      1  0.4185040000000  0.4233290000000  0.4848380000000 1.0
C      1  0.5530630000000  0.4341010000000  0.5981540000000 1.0
C      1  0.5776210000000  0.5808290000000  0.5054810000000 1.0
C      1  0.5662570000000  0.3973160000000  0.4776640000000 1.0
C      1  0.4272480000000  0.6211200000000  0.4878580000000 1.0
C      1  0.3791080000000  0.4879670000000  0.4749640000000 1.0
C      1  0.5355340000000  0.4317410000000  0.5159870000000 1.0
C      1  0.6077010000000  0.4523310000000  0.5182100000000 1.0
C      1  0.4949110000000  0.4532720000000  0.5625580000000 1.0
C      1  0.5284820000000  0.5703590000000  0.5451660000000 1.0
C      1  0.5732890000000  0.4251330000000  0.5494700000000 1.0
C      1  0.5351800000000  0.4876270000000  0.5579340000000 1.0
C      1  0.5880180000000  0.4692010000000  0.4130410000000 1.0
C      1  0.4910510000000  0.4957020000000  0.4893750000000 1.0
C      1  0.3846000000000  0.4601830000000  0.4756200000000 1.0
C      1  0.4235540000000  0.4719850000000  0.4343010000000 1.0
C      1  0.4579360000000  0.4391440000000  0.6050150000000 1.0
C      1  0.5814580000000  0.4140410000000  0.4602510000000 1.0
C      1  0.5283880000000  0.5313900000000  0.4435440000000 1.0
C      1  0.5513520000000  0.4780370000000  0.5370700000000 1.0
C      1  0.5199750000000  0.5517440000000  0.5936530000000 1.0
C      1  0.5088980000000  0.5398400000000  0.3771960000000 1.0
C      1  0.5536800000000  0.4104310000000  0.5303570000000 1.0
C      1  0.4766400000000  0.4707010000000  0.5763810000000 1.0
C      1  0.4280190000000  0.5736030000000  0.5561150000000 1.0
C      1  0.5035390000000  0.5861470000000  0.5001740000000 1.0
C      1  0.4908700000000  0.4469520000000  0.5362680000000 1.0
C      1  0.4562250000000  0.5846780000000  0.4129890000000 1.0
C      1  0.3938910000000  0.5782290000000  0.4984820000000 1.0
C      1  0.5133000000000  0.4002000000000  0.4593920000000 1.0
C      1  0.5313120000000  0.4552070000000  0.4153470000000 1.0
C      1  0.5331950000000  0.5157480000000  0.5530250000000 1.0
C      1  0.4960720000000  0.4596530000000  0.3798530000000 1.0
C      1  0.4829910000000  0.5255510000000  0.5698060000000 1.0
C      1  0.4213990000000  0.4440280000000  0.5384550000000 1.0
C      1  0.4376100000000  0.4731930000000  0.4836790000000 1.0
C      1  0.5088750000000  0.4427360000000  0.3988520000000 1.0
C      1  0.5090330000000  0.5853690000000  0.4513780000000 1.0
C      1  0.5096590000000  0.4338930000000  0.5757880000000 1.0
C      1  0.4130700000000  0.5957530000000  0.4865240000000 1.0
C      1  0.5450160000000  0.5669340000000  0.4144510000000 1.0
C      1  0.4700760000000  0.5977830000000  0.4949150000000 1.0
C      1  0.3982530000000  0.4427440000000  0.4930450000000 1.0
C      1  0.5209200000000  0.5300610000000  0.6115850000000 1.0
C      1  0.4621570000000  0.4607040000000  0.4784810000000 1.0
C      1  0.5105290000000  0.3583320000000  0.5047980000000 1.0
C      1  0.5546570000000  0.6138920000000  0.4034880000000 1.0
C      1  0.4884040000000  0.4201920000000  0.4973030000000 1.0
C      1  0.4265650000000  0.5205840000000  0.4969090000000 1.0
C      1  0.5473750000000  0.5192280000000  0.6145060000000 1.0
C      1  0.5158490000000  0.3879650000000  0.5591840000000 1.0
C      1  0.5972960000000  0.5658410000000  0.5784320000000 1.0
C      1  0.4870580000000  0.5269460000000  0.5430040000000 1.0
C      1  0.5459640000000  0.4929750000000  0.4691610000000 1.0
C      1  0.5521730000000  0.5243860000000  0.5015020000000 1.0
C      1  0.4984960000000  0.5136850000000  0.6190770000000 1.0
C      1  0.4609130000000  0.6224720000000  0.4511010000000 1.0
C      1  0.5381550000000  0.4810090000000  0.5848120000000 1.0
C      1  0.4683810000000  0.4411770000000  0.4975450000000 1.0
C      1  0.5712200000000  0.3974240000000  0.5062420000000 1.0
C      1  0.5304210000000  0.4844360000000  0.4209210000000 1.0
C      1  0.4131770000000  0.4995040000000  0.4382360000000 1.0
C      1  0.5438800000000  0.4631660000000  0.5150150000000 1.0
C      1  0.4282540000000  0.4080150000000  0.5084290000000 1.0
C      1  0.5980580000000  0.4991660000000  0.5216230000000 1.0
C      1  0.4557770000000  0.6208920000000  0.4792980000000 1.0
C      1  0.4521220000000  0.5269470000000  0.4370490000000 1.0
C      1  0.5397990000000  0.4321290000000  0.4314770000000 1.0
C      1  0.5582680000000  0.5288200000000  0.5490530000000 1.0
C      1  0.5864360000000  0.4624090000000  0.5778010000000 1.0
C      1  0.5384700000000  0.4017200000000  0.4732680000000 1.0
C      1  0.5337490000000  0.6006580000000  0.4463430000000 1.0
C      1  0.3839000000000  0.5006520000000  0.5459040000000 1.0
C      1  0.3966250000000  0.5067590000000  0.4615670000000 1.0
C      1  0.4926070000000  0.6096110000000  0.5635910000000 1.0
C      1  0.5062910000000  0.6125490000000  0.5401640000000 1.0
C      1  0.4995720000000  0.5698470000000  0.4285040000000 1.0
C      1  0.4556910000000  0.5745650000000  0.4813260000000 1.0
C      1  0.5116150000000  0.5672390000000  0.4762690000000 1.0
C      1  0.4640870000000  0.3862990000000  0.5568000000000 1.0
C      1  0.4919400000000  0.5443020000000  0.4807150000000 1.0
C      1  0.5273520000000  0.5206100000000  0.3876450000000 1.0
C      1  0.4651440000000  0.5494510000000  0.4877850000000 1.0
C      1  0.5353340000000  0.4267090000000  0.4864340000000 1.0
C      1  0.5640150000000  0.5585600000000  0.4633470000000 1.0
C      1  0.5143920000000  0.5681410000000  0.5715170000000 1.0
C      1  0.4809910000000  0.4895010000000  0.4430840000000 1.0
C      1  0.4303560000000  0.4280760000000  0.4584470000000 1.0
C      1  0.5314630000000  0.4404350000000  0.6138040000000 1.0
C      1  0.6014910000000  0.4580570000000  0.4601740000000 1.0
C      1  0.4315460000000  0.5703170000000  0.4178910000000 1.0
C      1  0.5151980000000  0.4978680000000  0.4000080000000 1.0
C      1  0.4673910000000  0.4467960000000  0.4252920000000 1.0
C      1  0.4455410000000  0.4073950000000  0.5602980000000 1.0
C      1  0.5911460000000  0.5062460000000  0.4697580000000 1.0
C      1  0.5964900000000  0.4343800000000  0.5347170000000 1.0
C      1  0.4331840000000  0.5018240000000  0.5681550000000 1.0
C      1  0.5707080000000  0.4382880000000  0.5758240000000 1.0
C      1  0.4655750000000  0.4517140000000  0.5247240000000 1.0
C      1  0.5769390000000  0.5717630000000  0.5323960000000 1.0
C      1  0.4431340000000  0.5571560000000  0.5738960000000 1.0
C      1  0.4666940000000  0.5704820000000  0.5831890000000 1.0
C      1  0.4918140000000  0.4295740000000  0.4201710000000 1.0
C      1  0.5788300000000  0.5455450000000  0.4408610000000 1.0
C      1  0.4674120000000  0.5186660000000  0.5244220000000 1.0
C      1  0.5660070000000  0.5470290000000  0.4143390000000 1.0
C      1  0.3881870000000  0.5784780000000  0.5259630000000 1.0
C      1  0.4926820000000  0.3976570000000  0.4798210000000 1.0
C      1  0.6032900000000  0.4810200000000  0.4768910000000 1.0
C      1  0.3686520000000  0.5014170000000  0.5240020000000 1.0
C      1  0.3651420000000  0.4976330000000  0.4977150000000 1.0
C      1  0.5842960000000  0.4550870000000  0.4366540000000 1.0
C      1  0.5359760000000  0.3860260000000  0.5390440000000 1.0
C      1  0.4759960000000  0.5166040000000  0.4407790000000 1.0
C      1  0.4397230000000  0.4467320000000  0.4376190000000 1.0
C      1  0.5791420000000  0.5007870000000  0.5434010000000 1.0
C      1  0.4216550000000  0.5447720000000  0.4090580000000 1.0
C      1  0.5348260000000  0.5021070000000  0.4441260000000 1.0
C      1  0.5152910000000  0.5892390000000  0.5255880000000 1.0
C      1  0.5451750000000  0.5947560000000  0.4203740000000 1.0
C      1  0.4060660000000  0.4980010000000  0.5605020000000 1.0
END
