TITL C-3866669-3764-55 9.32524876192681e-05 125000 -717.112390691908 0 0 117 (C1) n - 1
REM
REM in /home/nfs/bkarasulu/CARBON/AIRSS/Generating-Clusters/LCBOP/Only-C1/SD-CG/HFTN-CG/FIRE-CG
REM
REM
REM
REM
REM
REM ./C.cell (11c1c37f851c82e70ff6c80c92926a4b)
REM AIRSS Version 0.9.1 bugfix July 2018 build 013d7b7c2542+ Fri, 06 Jul 2018 19:26:36 +0100
REM compiler GCC version 9.2.1 20190827 (Red Hat 9.2.1-1)
REM options -cpp -mtune=generic -march=x86-64 -g -O0 -fpre-include=/usr/include/finclude/math-vector-fortran.h
REM seed -371493674 1062985918 -1968717843 56785127 1792437096 -20979942 -1098159718 1719595944 -218259362 794549077 1117299220 -1530826631 118567846 -764031354 1806503086 -1074846079 -379074594 1120269100 -57414279 473352535 -1847373187 196636781 -1203137163 2056898496 -1385614116 -2118746232 -1316699111 1738958167 -1117918328 -1959206963 1191498173 1762803377 -155357357
REM
CELL 1.54180   50.00000   50.00000   50.00000   90.00000   90.00000   90.00000
LATT -1
SFAC C  
C      1  0.5030590000000  0.5631700000000  0.4380800000000 1.0
C      1  0.3735230000000  0.5236530000000  0.5527450000000 1.0
C      1  0.5960040000000  0.5500910000000  0.4891700000000 1.0
C      1  0.4297430000000  0.5268080000000  0.3898570000000 1.0
C      1  0.5777340000000  0.5199460000000  0.5482750000000 1.0
C      1  0.5356240000000  0.4792830000000  0.4225040000000 1.0
C      1  0.4425780000000  0.5608920000000  0.5404990000000 1.0
C      1  0.5947970000000  0.4981270000000  0.4842850000000 1.0
C      1  0.4417840000000  0.5917020000000  0.5000020000000 1.0
C      1  0.5631340000000  0.6013450000000  0.4153800000000 1.0
C      1  0.5600560000000  0.5152890000000  0.5269820000000 1.0
C      1  0.5092230000000  0.5351040000000  0.5076680000000 1.0
C      1  0.5223150000000  0.5169040000000  0.3965670000000 1.0
C      1  0.4333800000000  0.4439200000000  0.5576900000000 1.0
C      1  0.4479060000000  0.5129640000000  0.4326240000000 1.0
C      1  0.4209470000000  0.4709670000000  0.5188440000000 1.0
C      1  0.4683200000000  0.4999150000000  0.5241690000000 1.0
C      1  0.4908520000000  0.3994030000000  0.5805860000000 1.0
C      1  0.4966370000000  0.4512910000000  0.4310450000000 1.0
C      1  0.5476990000000  0.4524130000000  0.5390380000000 1.0
C      1  0.4382450000000  0.4915630000000  0.5636900000000 1.0
C      1  0.4726220000000  0.5966430000000  0.4604050000000 1.0
C      1  0.4313820000000  0.5342190000000  0.4807170000000 1.0
C      1  0.4285040000000  0.4982320000000  0.4486750000000 1.0
C      1  0.4910010000000  0.4317240000000  0.5014010000000 1.0
C      1  0.4852140000000  0.5135440000000  0.6168060000000 1.0
C      1  0.5674690000000  0.4895200000000  0.4881190000000 1.0
C      1  0.4823080000000  0.5765820000000  0.5187870000000 1.0
C      1  0.4736050000000  0.4536440000000  0.4503980000000 1.0
C      1  0.4865720000000  0.4022120000000  0.4463540000000 1.0
C      1  0.4653990000000  0.4947160000000  0.3912430000000 1.0
C      1  0.4123730000000  0.5415210000000  0.3771690000000 1.0
C      1  0.5284100000000  0.4869680000000  0.6018600000000 1.0
C      1  0.4266870000000  0.5177910000000  0.5595920000000 1.0
C      1  0.4511550000000  0.6002850000000  0.4761940000000 1.0
C      1  0.4981730000000  0.5604890000000  0.5009950000000 1.0
C      1  0.5386990000000  0.5827190000000  0.4850020000000 1.0
C      1  0.5233410000000  0.5041260000000  0.4213700000000 1.0
C      1  0.4552550000000  0.4422960000000  0.4703870000000 1.0
C      1  0.4479150000000  0.5111950000000  0.4042950000000 1.0
C      1  0.4925280000000  0.5026840000000  0.5365890000000 1.0
C      1  0.4269890000000  0.4467790000000  0.4764480000000 1.0
C      1  0.4646900000000  0.5324570000000  0.4455200000000 1.0
C      1  0.5808060000000  0.5678300000000  0.5020090000000 1.0
C      1  0.4744260000000  0.4104560000000  0.4214760000000 1.0
C      1  0.5084980000000  0.4802530000000  0.5391790000000 1.0
C      1  0.4430990000000  0.4267630000000  0.5148650000000 1.0
C      1  0.5112760000000  0.5764110000000  0.4822360000000 1.0
C      1  0.5467860000000  0.5079990000000  0.6020180000000 1.0
C      1  0.4904440000000  0.5524870000000  0.5771560000000 1.0
C      1  0.5202550000000  0.4558370000000  0.5329800000000 1.0
C      1  0.5505180000000  0.4550150000000  0.5675100000000 1.0
C      1  0.5239640000000  0.5150050000000  0.4924150000000 1.0
C      1  0.5629160000000  0.4610880000000  0.4901200000000 1.0
C      1  0.5232500000000  0.5403190000000  0.3838550000000 1.0
C      1  0.4310840000000  0.4342700000000  0.4093530000000 1.0
C      1  0.5912230000000  0.4390230000000  0.4578400000000 1.0
C      1  0.5547590000000  0.5769620000000  0.5085240000000 1.0
C      1  0.5056940000000  0.4393040000000  0.4783410000000 1.0
C      1  0.5080850000000  0.5487530000000  0.5549880000000 1.0
C      1  0.5667510000000  0.4506160000000  0.5174260000000 1.0
C      1  0.5201530000000  0.5737380000000  0.5457490000000 1.0
C      1  0.4834330000000  0.4735260000000  0.5909790000000 1.0
C      1  0.4516370000000  0.5453930000000  0.4669170000000 1.0
C      1  0.4961000000000  0.5813120000000  0.4588170000000 1.0
C      1  0.4229810000000  0.4594590000000  0.4148330000000 1.0
C      1  0.4657370000000  0.5386510000000  0.5785390000000 1.0
C      1  0.4235340000000  0.5072230000000  0.4766590000000 1.0
C      1  0.4082040000000  0.4568230000000  0.4588640000000 1.0
C      1  0.5243370000000  0.5649070000000  0.3943850000000 1.0
C      1  0.4178470000000  0.4927350000000  0.5006410000000 1.0
C      1  0.4641330000000  0.4286430000000  0.4955170000000 1.0
C      1  0.5021570000000  0.4522750000000  0.5842560000000 1.0
C      1  0.5443740000000  0.4388600000000  0.4479950000000 1.0
C      1  0.4169250000000  0.4740050000000  0.4383750000000 1.0
C      1  0.5345950000000  0.4122370000000  0.4512230000000 1.0
C      1  0.5694930000000  0.5394930000000  0.5671490000000 1.0
C      1  0.4442560000000  0.5404860000000  0.5598060000000 1.0
C      1  0.5100400000000  0.4692530000000  0.4754280000000 1.0
C      1  0.5046730000000  0.5280950000000  0.5353080000000 1.0
C      1  0.5506760000000  0.5887580000000  0.4600680000000 1.0
C      1  0.4233270000000  0.4458150000000  0.5048140000000 1.0
C      1  0.4872470000000  0.5276200000000  0.6398140000000 1.0
C      1  0.5041110000000  0.4345840000000  0.5253700000000 1.0
C      1  0.6001410000000  0.5253180000000  0.4802250000000 1.0
C      1  0.4422160000000  0.4232410000000  0.5425750000000 1.0
C      1  0.4994830000000  0.5906020000000  0.5363860000000 1.0
C      1  0.4860070000000  0.3738840000000  0.5783740000000 1.0
C      1  0.5943430000000  0.4480860000000  0.5240640000000 1.0
C      1  0.5129710000000  0.4987500000000  0.4707400000000 1.0
C      1  0.4289280000000  0.4701670000000  0.5473000000000 1.0
C      1  0.5463510000000  0.5876450000000  0.4321640000000 1.0
C      1  0.5301820000000  0.4623140000000  0.5862190000000 1.0
C      1  0.5657940000000  0.4464680000000  0.4653990000000 1.0
C      1  0.5652880000000  0.5651150000000  0.5561620000000 1.0
C      1  0.6135980000000  0.4687070000000  0.5211370000000 1.0
C      1  0.4900680000000  0.4320020000000  0.4109540000000 1.0
C      1  0.5591140000000  0.5290830000000  0.5910760000000 1.0
C      1  0.4655630000000  0.5161680000000  0.5958570000000 1.0
C      1  0.4953760000000  0.4254850000000  0.5816630000000 1.0
C      1  0.5477090000000  0.3891070000000  0.4461430000000 1.0
C      1  0.3991380000000  0.5210510000000  0.5567620000000 1.0
C      1  0.4600390000000  0.4899440000000  0.5828490000000 1.0
C      1  0.5469760000000  0.5747680000000  0.5366340000000 1.0
C      1  0.5096120000000  0.5129700000000  0.4449580000000 1.0
C      1  0.4541900000000  0.5767950000000  0.5204770000000 1.0
C      1  0.4927120000000  0.5361580000000  0.4415450000000 1.0
C      1  0.4471360000000  0.4132160000000  0.4148040000000 1.0
C      1  0.6016330000000  0.5059410000000  0.5517940000000 1.0
C      1  0.5080180000000  0.4153610000000  0.4607620000000 1.0
C      1  0.6170800000000  0.4858950000000  0.5431320000000 1.0
C      1  0.5243760000000  0.5725500000000  0.4213730000000 1.0
C      1  0.6145690000000  0.4812170000000  0.4956340000000 1.0
C      1  0.5500760000000  0.5074080000000  0.5019310000000 1.0
C      1  0.5007150000000  0.4911890000000  0.6084280000000 1.0
C      1  0.4971810000000  0.5702110000000  0.5969880000000 1.0
C      1  0.5257670000000  0.4558030000000  0.4336730000000 1.0
END
