TITL C-3866676-3738-779 9.83581984627877 125000 -294.396481339557 0 0 50 (C1) n - 1
REM
REM in /home/nfs/bkarasulu/CARBON/AIRSS/Generating-Clusters/LCBOP/Only-C1/SD-CG/FIRE-CG
REM
REM
REM
REM
REM
REM ./C.cell (11c1c37f851c82e70ff6c80c92926a4b)
REM AIRSS Version 0.9.1 bugfix July 2018 build 013d7b7c2542+ Fri, 06 Jul 2018 19:26:36 +0100
REM compiler GCC version 9.2.1 20190827 (Red Hat 9.2.1-1)
REM options -cpp -mtune=generic -march=x86-64 -g -O0 -fpre-include=/usr/include/finclude/math-vector-fortran.h
REM seed -120870126 -436106600 -1440444257 756211368 -1165362637 -899837826 -978502050 -1163071661 740732628 2126937235 -1429965950 -1187611963 1372474256 981257049 -1519567613 -1407481079 1547627119 -320178214 1456796736 -1245799353 1070869581 -955710180 -460669103 920228227 475809778 -735212451 -723176048 110482598 362869162 -1813582689 2035232491 -38424965 1522482206
REM
CELL 1.54180   50.00000   50.00000   50.00000   90.00000   90.00000   90.00000
LATT -1
SFAC C  
C      1  0.5356960000000  0.5039320000000  0.5497390000000 1.0
C      1  0.4675000000000  0.4525330000000  0.5084000000000 1.0
C      1  0.5199990000000  0.5284610000000  0.4830540000000 1.0
C      1  0.4570910000000  0.4798010000000  0.4349330000000 1.0
C      1  0.4911700000000  0.4227330000000  0.5625250000000 1.0
C      1  0.4619370000000  0.6303170000000  0.5117990000000 1.0
C      1  0.5066030000000  0.5639850000000  0.6212580000000 1.0
C      1  0.5404270000000  0.4963300000000  0.3214480000000 1.0
C      1  0.4438480000000  0.5069230000000  0.3970070000000 1.0
C      1  0.4719340000000  0.6084990000000  0.5219810000000 1.0
C      1  0.5016940000000  0.5479930000000  0.6007160000000 1.0
C      1  0.4850520000000  0.5057760000000  0.5824390000000 1.0
C      1  0.4964140000000  0.5316190000000  0.5787110000000 1.0
C      1  0.4473330000000  0.4342370000000  0.5817850000000 1.0
C      1  0.5211540000000  0.4813440000000  0.5588810000000 1.0
C      1  0.5272010000000  0.4392520000000  0.5356200000000 1.0
C      1  0.5327670000000  0.4552870000000  0.5588160000000 1.0
C      1  0.5130470000000  0.5252920000000  0.4576720000000 1.0
C      1  0.4588470000000  0.4570220000000  0.4822940000000 1.0
C      1  0.4821020000000  0.5863140000000  0.5323250000000 1.0
C      1  0.4635470000000  0.4978040000000  0.4145660000000 1.0
C      1  0.5285900000000  0.5202880000000  0.3245750000000 1.0
C      1  0.5632150000000  0.5060060000000  0.5536480000000 1.0
C      1  0.5108610000000  0.4211230000000  0.5833110000000 1.0
C      1  0.5032970000000  0.5404950000000  0.5525550000000 1.0
C      1  0.4614340000000  0.4709760000000  0.5295100000000 1.0
C      1  0.5175510000000  0.4803950000000  0.3808500000000 1.0
C      1  0.5046730000000  0.5249510000000  0.3684350000000 1.0
C      1  0.4733440000000  0.4664850000000  0.5550960000000 1.0
C      1  0.4923570000000  0.5640930000000  0.5424490000000 1.0
C      1  0.4446850000000  0.4922400000000  0.5255330000000 1.0
C      1  0.5321560000000  0.4687350000000  0.3616590000000 1.0
C      1  0.5418040000000  0.4746360000000  0.3373030000000 1.0
C      1  0.5031660000000  0.5185830000000  0.4340210000000 1.0
C      1  0.5021610000000  0.4252870000000  0.5354980000000 1.0
C      1  0.5113750000000  0.5797760000000  0.6414440000000 1.0
C      1  0.5140140000000  0.5314340000000  0.3441820000000 1.0
C      1  0.4694510000000  0.4407700000000  0.5672960000000 1.0
C      1  0.6151840000000  0.5084910000000  0.5611060000000 1.0
C      1  0.4841830000000  0.4306280000000  0.5145760000000 1.0
C      1  0.4932030000000  0.4843250000000  0.5655530000000 1.0
C      1  0.5212360000000  0.5248560000000  0.5369630000000 1.0
C      1  0.4664500000000  0.5015460000000  0.6020950000000 1.0
C      1  0.5231860000000  0.5284240000000  0.5093570000000 1.0
C      1  0.4556110000000  0.4663070000000  0.4576880000000 1.0
C      1  0.5313770000000  0.4393390000000  0.5825670000000 1.0
C      1  0.4263600000000  0.5157660000000  0.3798290000000 1.0
C      1  0.5894050000000  0.5073350000000  0.5574010000000 1.0
C      1  0.4903130000000  0.5070660000000  0.4120510000000 1.0
C      1  0.5039910000000  0.5041920000000  0.3874830000000 1.0
END
