TITL C-3866671-3735-393 -194731.180624173 125000 -1201.09360470335 0 0 195 (C1) n - 1
REM
REM in /home/nfs/bkarasulu/CARBON/AIRSS/Generating-Clusters/LCBOP/Only-C1/SD-CG/FIRE-CG
REM
REM
REM
REM
REM
REM ./C.cell (11c1c37f851c82e70ff6c80c92926a4b)
REM AIRSS Version 0.9.1 bugfix July 2018 build 013d7b7c2542+ Fri, 06 Jul 2018 19:26:36 +0100
REM compiler GCC version 9.2.1 20190827 (Red Hat 9.2.1-1)
REM options -cpp -mtune=generic -march=x86-64 -g -O0 -fpre-include=/usr/include/finclude/math-vector-fortran.h
REM seed -187987979 -360219762 560678729 984610711 218805290 2131057646 1635583602 -1770586119 496431440 1905594504 1112087207 -585829022 945433170 377581374 -556971545 1959282270 1064114928 722988367 1139321719 -688366246 -1478784236 -968360343 1204705237 -622074112 684328661 -654813417 -92335424 1106986580 194436532 1540775144 -1770940784 2096034437 677902015
REM
CELL 1.54180   50.00000   50.00000   50.00000   90.00000   90.00000   90.00000
LATT -1
SFAC C  
C      1  0.5034850000000  0.4963290000000  0.5262520000000 1.0
C      1  0.5039760000000  0.4119660000000  0.4752750000000 1.0
C      1  0.4551960000000  0.5006720000000  0.5191610000000 1.0
C      1  0.5094980000000  0.5136010000000  0.3662540000000 1.0
C      1  0.6361180000000  0.5826040000000  0.5477180000000 1.0
C      1  0.4109300000000  0.5203560000000  0.4757960000000 1.0
C      1  0.5945570000000  0.5206080000000  0.4815320000000 1.0
C      1  0.4353150000000  0.5603560000000  0.4687210000000 1.0
C      1  0.4822580000000  0.4527270000000  0.5417770000000 1.0
C      1  0.3474620000000  0.5852190000000  0.5070080000000 1.0
C      1  0.5144890000000  0.5443740000000  0.6178300000000 1.0
C      1  0.4819140000000  0.4203880000000  0.4550590000000 1.0
C      1  0.5162210000000  0.6335850000000  0.5288170000000 1.0
C      1  0.5543880000000  0.6003630000000  0.5016180000000 1.0
C      1  0.4509650000000  0.4490300000000  0.5906310000000 1.0
C      1  0.5692570000000  0.5149670000000  0.4920750000000 1.0
C      1  0.5457980000000  0.4988410000000  0.4927590000000 1.0
C      1  0.5328140000000  0.5470280000000  0.3919770000000 1.0
C      1  0.3894420000000  0.5392080000000  0.6204700000000 1.0
C      1  0.5512100000000  0.5722530000000  0.4583140000000 1.0
C      1  0.4311180000000  0.5132040000000  0.5576530000000 1.0
C      1  0.6129220000000  0.5769780000000  0.5623660000000 1.0
C      1  0.4132670000000  0.5513880000000  0.6208440000000 1.0
C      1  0.4098360000000  0.4331490000000  0.5267550000000 1.0
C      1  0.4935530000000  0.4303830000000  0.5626700000000 1.0
C      1  0.4959340000000  0.3698810000000  0.4392700000000 1.0
C      1  0.5445510000000  0.4829950000000  0.3757020000000 1.0
C      1  0.4930650000000  0.4799500000000  0.5503490000000 1.0
C      1  0.5499530000000  0.5520630000000  0.4137290000000 1.0
C      1  0.5472490000000  0.4942270000000  0.4455630000000 1.0
C      1  0.4924330000000  0.5075960000000  0.4331210000000 1.0
C      1  0.5162870000000  0.3828650000000  0.4274880000000 1.0
C      1  0.6180570000000  0.4343230000000  0.4457730000000 1.0
C      1  0.3909050000000  0.5642010000000  0.4833090000000 1.0
C      1  0.4603750000000  0.6181310000000  0.4708050000000 1.0
C      1  0.5240260000000  0.5473060000000  0.5045100000000 1.0
C      1  0.5910860000000  0.5415690000000  0.4381130000000 1.0
C      1  0.5875630000000  0.4697200000000  0.5836200000000 1.0
C      1  0.5293140000000  0.3985110000000  0.5427630000000 1.0
C      1  0.4775530000000  0.4565510000000  0.4159910000000 1.0
C      1  0.5383020000000  0.5710910000000  0.4328410000000 1.0
C      1  0.5037690000000  0.5591560000000  0.4885680000000 1.0
C      1  0.6153880000000  0.4863810000000  0.4324150000000 1.0
C      1  0.5739510000000  0.4097460000000  0.4850400000000 1.0
C      1  0.4459450000000  0.6028470000000  0.4521120000000 1.0
C      1  0.4487650000000  0.4148920000000  0.5384230000000 1.0
C      1  0.3792950000000  0.3976640000000  0.4722290000000 1.0
C      1  0.5455900000000  0.4372820000000  0.6464140000000 1.0
C      1  0.4085390000000  0.4461710000000  0.4329250000000 1.0
C      1  0.4253430000000  0.4494270000000  0.5754680000000 1.0
C      1  0.3974420000000  0.4110270000000  0.4853140000000 1.0
C      1  0.3900890000000  0.5392780000000  0.4678410000000 1.0
C      1  0.5187760000000  0.4870360000000  0.3633610000000 1.0
C      1  0.4875260000000  0.5020360000000  0.6339540000000 1.0
C      1  0.4073430000000  0.4973140000000  0.4124790000000 1.0
C      1  0.4910220000000  0.4432430000000  0.5147050000000 1.0
C      1  0.4983390000000  0.4551160000000  0.6318010000000 1.0
C      1  0.5344400000000  0.3927860000000  0.5133020000000 1.0
C      1  0.5461870000000  0.5021450000000  0.5870720000000 1.0
C      1  0.5424870000000  0.6236260000000  0.4884450000000 1.0
C      1  0.4361240000000  0.5529680000000  0.6072170000000 1.0
C      1  0.3684110000000  0.5757760000000  0.4947150000000 1.0
C      1  0.4060260000000  0.4755240000000  0.4333840000000 1.0
C      1  0.4546940000000  0.5692000000000  0.4053190000000 1.0
C      1  0.5208060000000  0.4430450000000  0.6391870000000 1.0
C      1  0.5673700000000  0.5805220000000  0.5485050000000 1.0
C      1  0.5015950000000  0.4049570000000  0.5468230000000 1.0
C      1  0.5417040000000  0.4468930000000  0.5230340000000 1.0
C      1  0.4243710000000  0.4819350000000  0.4546640000000 1.0
C      1  0.4653170000000  0.4645260000000  0.4815310000000 1.0
C      1  0.4551800000000  0.5244090000000  0.4140800000000 1.0
C      1  0.6002740000000  0.4096320000000  0.5412490000000 1.0
C      1  0.4773430000000  0.5656790000000  0.4477970000000 1.0
C      1  0.5601420000000  0.3985520000000  0.4408620000000 1.0
C      1  0.4995420000000  0.5141080000000  0.5848760000000 1.0
C      1  0.5905300000000  0.4821100000000  0.4191900000000 1.0
C      1  0.5633750000000  0.5429120000000  0.6064270000000 1.0
C      1  0.5674720000000  0.5004000000000  0.3785120000000 1.0
C      1  0.5186320000000  0.4411300000000  0.5088990000000 1.0
C      1  0.5285840000000  0.4574710000000  0.4669280000000 1.0
C      1  0.4647000000000  0.6285510000000  0.5183370000000 1.0
C      1  0.5688580000000  0.4499640000000  0.5822240000000 1.0
C      1  0.4674010000000  0.4409650000000  0.4967040000000 1.0
C      1  0.4178180000000  0.4239260000000  0.4999230000000 1.0
C      1  0.4330490000000  0.5908320000000  0.5053000000000 1.0
C      1  0.4051710000000  0.5322520000000  0.4174770000000 1.0
C      1  0.4355430000000  0.4339000000000  0.4340270000000 1.0
C      1  0.4908640000000  0.4432880000000  0.4394530000000 1.0
C      1  0.6246370000000  0.4897190000000  0.4573350000000 1.0
C      1  0.4507670000000  0.6140870000000  0.4982350000000 1.0
C      1  0.5230240000000  0.4341290000000  0.4817560000000 1.0
C      1  0.3776260000000  0.5212200000000  0.6044820000000 1.0
C      1  0.4902200000000  0.5789910000000  0.5034390000000 1.0
C      1  0.5131910000000  0.5099330000000  0.4146690000000 1.0
C      1  0.3849860000000  0.5080080000000  0.5823960000000 1.0
C      1  0.4881450000000  0.6348850000000  0.5298270000000 1.0
C      1  0.4401320000000  0.5739430000000  0.5278300000000 1.0
C      1  0.4323900000000  0.4792340000000  0.6231300000000 1.0
C      1  0.5623710000000  0.4010750000000  0.5093190000000 1.0
C      1  0.4884800000000  0.5042660000000  0.4809630000000 1.0
C      1  0.5530110000000  0.5980750000000  0.5309740000000 1.0
C      1  0.4594170000000  0.3667250000000  0.4773940000000 1.0
C      1  0.4510070000000  0.3779880000000  0.5004370000000 1.0
C      1  0.4930850000000  0.5492470000000  0.4643030000000 1.0
C      1  0.4771770000000  0.5054360000000  0.5704380000000 1.0
C      1  0.4177060000000  0.5747810000000  0.4859140000000 1.0
C      1  0.4143280000000  0.4923470000000  0.4791970000000 1.0
C      1  0.5290300000000  0.6421680000000  0.5049830000000 1.0
C      1  0.5984460000000  0.5218990000000  0.5809650000000 1.0
C      1  0.5906440000000  0.4356640000000  0.4433650000000 1.0
C      1  0.5143170000000  0.5261470000000  0.3910270000000 1.0
C      1  0.4522440000000  0.4509050000000  0.5361210000000 1.0
C      1  0.5756190000000  0.4152420000000  0.4572820000000 1.0
C      1  0.5731680000000  0.5335130000000  0.4175190000000 1.0
C      1  0.4383280000000  0.5203150000000  0.5311190000000 1.0
C      1  0.5127550000000  0.4294410000000  0.3944250000000 1.0
C      1  0.5561930000000  0.5044160000000  0.5609020000000 1.0
C      1  0.5343230000000  0.6209590000000  0.4613700000000 1.0
C      1  0.5432250000000  0.4815000000000  0.4702620000000 1.0
C      1  0.4760960000000  0.3641200000000  0.4564660000000 1.0
C      1  0.5585920000000  0.5146030000000  0.6086680000000 1.0
C      1  0.4605070000000  0.3957970000000  0.5202780000000 1.0
C      1  0.5988440000000  0.4945450000000  0.5822050000000 1.0
C      1  0.4190270000000  0.4774460000000  0.5028970000000 1.0
C      1  0.4520590000000  0.5756300000000  0.4537250000000 1.0
C      1  0.6600150000000  0.5866810000000  0.5603200000000 1.0
C      1  0.5536350000000  0.4483990000000  0.4115530000000 1.0
C      1  0.4353820000000  0.4629800000000  0.3921080000000 1.0
C      1  0.4471830000000  0.5205970000000  0.4416350000000 1.0
C      1  0.5036490000000  0.4629320000000  0.4553000000000 1.0
C      1  0.4620860000000  0.5778270000000  0.5451480000000 1.0
C      1  0.4944250000000  0.4509390000000  0.3914300000000 1.0
C      1  0.6145120000000  0.5008190000000  0.4795900000000 1.0
C      1  0.5589100000000  0.5795850000000  0.4830230000000 1.0
C      1  0.5134720000000  0.4718260000000  0.5715010000000 1.0
C      1  0.5787910000000  0.5064120000000  0.4047830000000 1.0
C      1  0.6138510000000  0.5646620000000  0.4755300000000 1.0
C      1  0.5511160000000  0.4907510000000  0.5375630000000 1.0
C      1  0.4518910000000  0.4083690000000  0.5658970000000 1.0
C      1  0.5019940000000  0.5252050000000  0.6353930000000 1.0
C      1  0.4867140000000  0.4781120000000  0.4715860000000 1.0
C      1  0.5520000000000  0.4115290000000  0.5550520000000 1.0
C      1  0.4875220000000  0.5793070000000  0.5314150000000 1.0
C      1  0.4344370000000  0.5330140000000  0.4637480000000 1.0
C      1  0.4963030000000  0.5602040000000  0.5728180000000 1.0
C      1  0.4674710000000  0.5651200000000  0.5709600000000 1.0
C      1  0.4513070000000  0.4217970000000  0.4573520000000 1.0
C      1  0.5591950000000  0.4643860000000  0.5331030000000 1.0
C      1  0.5736900000000  0.4078590000000  0.5356310000000 1.0
C      1  0.5365790000000  0.4250020000000  0.4090030000000 1.0
C      1  0.4552260000000  0.4678220000000  0.6124370000000 1.0
C      1  0.5077530000000  0.3941880000000  0.4993280000000 1.0
C      1  0.5192110000000  0.4438980000000  0.5733510000000 1.0
C      1  0.4931210000000  0.5216020000000  0.4590420000000 1.0
C      1  0.4886770000000  0.3958410000000  0.5220630000000 1.0
C      1  0.5789000000000  0.4544510000000  0.4243220000000 1.0
C      1  0.5408690000000  0.5558680000000  0.6183490000000 1.0
C      1  0.5196830000000  0.4941840000000  0.5873280000000 1.0
C      1  0.5378530000000  0.4009330000000  0.4243040000000 1.0
C      1  0.4800850000000  0.4754520000000  0.6254050000000 1.0
C      1  0.5863300000000  0.5683290000000  0.5662510000000 1.0
C      1  0.5259460000000  0.5506980000000  0.5314730000000 1.0
C      1  0.4439530000000  0.4258050000000  0.4863720000000 1.0
C      1  0.5468330000000  0.4338800000000  0.5727430000000 1.0
C      1  0.4332010000000  0.5467220000000  0.5244350000000 1.0
C      1  0.5078420000000  0.5654620000000  0.5472260000000 1.0
C      1  0.4280200000000  0.5572390000000  0.4070020000000 1.0
C      1  0.5108220000000  0.6112440000000  0.4483450000000 1.0
C      1  0.4477010000000  0.5107150000000  0.3916160000000 1.0
C      1  0.5345290000000  0.4924370000000  0.4208320000000 1.0
C      1  0.4276780000000  0.4905390000000  0.3928350000000 1.0
C      1  0.5126030000000  0.5874660000000  0.4294950000000 1.0
C      1  0.5415940000000  0.4723100000000  0.4022890000000 1.0
C      1  0.4056550000000  0.5055680000000  0.5657290000000 1.0
C      1  0.5327720000000  0.6150190000000  0.5426540000000 1.0
C      1  0.4527390000000  0.5190390000000  0.5748130000000 1.0
C      1  0.4112120000000  0.4419480000000  0.5529210000000 1.0
C      1  0.5992590000000  0.5433670000000  0.4649020000000 1.0
C      1  0.4731150000000  0.4853400000000  0.4290290000000 1.0
C      1  0.5707240000000  0.4353870000000  0.6532480000000 1.0
C      1  0.5830080000000  0.5466140000000  0.5852030000000 1.0
C      1  0.4820610000000  0.5052210000000  0.5089410000000 1.0
C      1  0.4857800000000  0.5747150000000  0.4221370000000 1.0
C      1  0.4488280000000  0.4916440000000  0.4443370000000 1.0
C      1  0.3878310000000  0.5396540000000  0.4390090000000 1.0
C      1  0.4869630000000  0.6214990000000  0.4609530000000 1.0
C      1  0.4518990000000  0.5461150000000  0.5852490000000 1.0
C      1  0.4681530000000  0.4275110000000  0.5807160000000 1.0
C      1  0.5044050000000  0.5410940000000  0.5914320000000 1.0
C      1  0.4494650000000  0.4468070000000  0.4113380000000 1.0
C      1  0.6262080000000  0.5776820000000  0.4951060000000 1.0
C      1  0.4990790000000  0.4673510000000  0.3689720000000 1.0
C      1  0.6342740000000  0.5833000000000  0.5197620000000 1.0
C      1  0.5314280000000  0.4981050000000  0.5180970000000 1.0
C      1  0.4416870000000  0.4740640000000  0.5207560000000 1.0
END
