TITL C-3866676-3738-147 6757.66414788767 125000 -1008.41423349966 0 0 166 (C1) n - 1
REM
REM in /home/nfs/bkarasulu/CARBON/AIRSS/Generating-Clusters/LCBOP/Only-C1/SD-CG/HFTN-CG/FIRE-CG
REM
REM
REM
REM
REM
REM ./C.cell (11c1c37f851c82e70ff6c80c92926a4b)
REM AIRSS Version 0.9.1 bugfix July 2018 build 013d7b7c2542+ Fri, 06 Jul 2018 19:26:36 +0100
REM compiler GCC version 9.2.1 20190827 (Red Hat 9.2.1-1)
REM options -cpp -mtune=generic -march=x86-64 -g -O0 -fpre-include=/usr/include/finclude/math-vector-fortran.h
REM seed 1160679171 2069149158 -128972971 158773226 -1942083463 1978275601 -871833385 1745488227 719423072 -1878554760 -45639345 2101423672 -549405260 -1353053732 -335159947 -1175858615 1323456312 -245454388 484548542 -1188767323 1558770397 1267463639 1781433918 143312754 2032365562 -1629250618 810181453 -180020865 -823992467 -286515728 -1978925428 -1650513215 -1396965802
REM
CELL 1.54180   50.00000   50.00000   50.00000   90.00000   90.00000   90.00000
LATT -1
SFAC C  
C      1  0.4479490000000  0.4943110000000  0.5935990000000 1.0
C      1  0.5205360000000  0.3931940000000  0.4783120000000 1.0
C      1  0.5777520000000  0.5610780000000  0.5335050000000 1.0
C      1  0.5338440000000  0.4897290000000  0.5606940000000 1.0
C      1  0.4551570000000  0.6017980000000  0.4814320000000 1.0
C      1  0.5171420000000  0.4708970000000  0.5524420000000 1.0
C      1  0.5628850000000  0.4249560000000  0.4968330000000 1.0
C      1  0.4308020000000  0.5589190000000  0.5545300000000 1.0
C      1  0.5774370000000  0.4543050000000  0.4499820000000 1.0
C      1  0.5920420000000  0.4627140000000  0.5115280000000 1.0
C      1  0.4214360000000  0.4898230000000  0.5805030000000 1.0
C      1  0.6036120000000  0.5195690000000  0.5341610000000 1.0
C      1  0.5164460000000  0.5795400000000  0.5728410000000 1.0
C      1  0.4473840000000  0.5267100000000  0.5028400000000 1.0
C      1  0.5777370000000  0.5401540000000  0.5751980000000 1.0
C      1  0.5099350000000  0.5604010000000  0.5037050000000 1.0
C      1  0.5900900000000  0.5405950000000  0.5492480000000 1.0
C      1  0.4035720000000  0.5441680000000  0.4580610000000 1.0
C      1  0.4573710000000  0.5500730000000  0.6416400000000 1.0
C      1  0.5378810000000  0.5513250000000  0.3886240000000 1.0
C      1  0.4889360000000  0.5796970000000  0.5659400000000 1.0
C      1  0.4770910000000  0.5141460000000  0.5504130000000 1.0
C      1  0.5513050000000  0.5543180000000  0.5260300000000 1.0
C      1  0.4324270000000  0.5828530000000  0.4783440000000 1.0
C      1  0.5415890000000  0.3911150000000  0.5758650000000 1.0
C      1  0.4912400000000  0.4283120000000  0.5183460000000 1.0
C      1  0.4415120000000  0.5588230000000  0.4340650000000 1.0
C      1  0.4920770000000  0.4729210000000  0.6134580000000 1.0
C      1  0.4830880000000  0.4976700000000  0.4116270000000 1.0
C      1  0.5300540000000  0.4758450000000  0.4593870000000 1.0
C      1  0.3749860000000  0.4955230000000  0.4095100000000 1.0
C      1  0.4794660000000  0.4700800000000  0.3984840000000 1.0
C      1  0.4896690000000  0.5253860000000  0.5275860000000 1.0
C      1  0.5063070000000  0.6112110000000  0.5131370000000 1.0
C      1  0.4255540000000  0.5634020000000  0.4569430000000 1.0
C      1  0.4109610000000  0.5139470000000  0.5387810000000 1.0
C      1  0.5429760000000  0.3812910000000  0.5487930000000 1.0
C      1  0.4524600000000  0.4048940000000  0.5156090000000 1.0
C      1  0.5639340000000  0.4646410000000  0.5920700000000 1.0
C      1  0.4942740000000  0.5603980000000  0.4323020000000 1.0
C      1  0.4201900000000  0.4787920000000  0.4951950000000 1.0
C      1  0.5034930000000  0.4390380000000  0.4567250000000 1.0
C      1  0.4043690000000  0.4440720000000  0.5558370000000 1.0
C      1  0.5704620000000  0.5244740000000  0.4826650000000 1.0
C      1  0.4955350000000  0.5524700000000  0.4069230000000 1.0
C      1  0.3728720000000  0.5317470000000  0.4952970000000 1.0
C      1  0.5357110000000  0.3843940000000  0.5006570000000 1.0
C      1  0.5647750000000  0.4897080000000  0.4207200000000 1.0
C      1  0.5345330000000  0.5121400000000  0.5047640000000 1.0
C      1  0.5055520000000  0.5340620000000  0.5890420000000 1.0
C      1  0.5041190000000  0.4675880000000  0.4506070000000 1.0
C      1  0.5095990000000  0.5075860000000  0.3973890000000 1.0
C      1  0.5420660000000  0.5273770000000  0.5280980000000 1.0
C      1  0.5735210000000  0.4181630000000  0.5556040000000 1.0
C      1  0.4658760000000  0.4511120000000  0.5782560000000 1.0
C      1  0.5291110000000  0.6117590000000  0.4652440000000 1.0
C      1  0.4421080000000  0.4665430000000  0.5089390000000 1.0
C      1  0.3787950000000  0.5073070000000  0.5038890000000 1.0
C      1  0.4649150000000  0.4086810000000  0.4365900000000 1.0
C      1  0.5828090000000  0.4700170000000  0.5685850000000 1.0
C      1  0.3925770000000  0.4830800000000  0.5030750000000 1.0
C      1  0.4814040000000  0.5797830000000  0.5389690000000 1.0
C      1  0.5422660000000  0.5215070000000  0.4485490000000 1.0
C      1  0.5360360000000  0.4314950000000  0.4223630000000 1.0
C      1  0.4026730000000  0.5191560000000  0.4432400000000 1.0
C      1  0.5583620000000  0.5666980000000  0.4309440000000 1.0
C      1  0.3907540000000  0.4350750000000  0.5063780000000 1.0
C      1  0.5425020000000  0.5130500000000  0.5518100000000 1.0
C      1  0.4887390000000  0.4797950000000  0.5080740000000 1.0
C      1  0.5607060000000  0.5386150000000  0.4340360000000 1.0
C      1  0.5524130000000  0.4825640000000  0.3963230000000 1.0
C      1  0.4805630000000  0.5265250000000  0.5760180000000 1.0
C      1  0.5321320000000  0.5724820000000  0.5172540000000 1.0
C      1  0.5069510000000  0.4600750000000  0.3941490000000 1.0
C      1  0.5128810000000  0.5160690000000  0.6094230000000 1.0
C      1  0.4229210000000  0.4347590000000  0.4351890000000 1.0
C      1  0.4592900000000  0.4452650000000  0.5513400000000 1.0
C      1  0.5495510000000  0.5708240000000  0.4041910000000 1.0
C      1  0.4877820000000  0.5075780000000  0.5045440000000 1.0
C      1  0.5599400000000  0.3994820000000  0.5081600000000 1.0
C      1  0.4907690000000  0.4557590000000  0.6356570000000 1.0
C      1  0.4101850000000  0.4648600000000  0.5723280000000 1.0
C      1  0.4612990000000  0.4115990000000  0.4877410000000 1.0
C      1  0.5186830000000  0.4305390000000  0.5150880000000 1.0
C      1  0.5855300000000  0.4437580000000  0.5554460000000 1.0
C      1  0.4884200000000  0.6150110000000  0.4414970000000 1.0
C      1  0.6026300000000  0.4922040000000  0.5466830000000 1.0
C      1  0.4270630000000  0.4885450000000  0.4705030000000 1.0
C      1  0.4799280000000  0.6086130000000  0.4683950000000 1.0
C      1  0.5383220000000  0.4396880000000  0.4965990000000 1.0
C      1  0.4904270000000  0.4387100000000  0.6553630000000 1.0
C      1  0.6190520000000  0.5183960000000  0.4648630000000 1.0
C      1  0.4804800000000  0.6046510000000  0.5244240000000 1.0
C      1  0.5586580000000  0.4137960000000  0.5806850000000 1.0
C      1  0.4483730000000  0.5395800000000  0.4166340000000 1.0
C      1  0.4608990000000  0.5172970000000  0.4086280000000 1.0
C      1  0.5909610000000  0.5028280000000  0.4249580000000 1.0
C      1  0.3990160000000  0.4288300000000  0.4795660000000 1.0
C      1  0.4005240000000  0.4299590000000  0.5327810000000 1.0
C      1  0.4866720000000  0.4893950000000  0.4414820000000 1.0
C      1  0.5356500000000  0.4659060000000  0.4859210000000 1.0
C      1  0.5277520000000  0.5983510000000  0.5278390000000 1.0
C      1  0.5588700000000  0.4394230000000  0.4357930000000 1.0
C      1  0.5441570000000  0.4851970000000  0.5046820000000 1.0
C      1  0.4551100000000  0.5522670000000  0.5126530000000 1.0
C      1  0.5896720000000  0.5851490000000  0.5288450000000 1.0
C      1  0.6105860000000  0.5283960000000  0.4992520000000 1.0
C      1  0.4557240000000  0.5385060000000  0.6183630000000 1.0
C      1  0.6119290000000  0.4724550000000  0.5286010000000 1.0
C      1  0.5019010000000  0.4703920000000  0.5308220000000 1.0
C      1  0.5277280000000  0.3721850000000  0.5260050000000 1.0
C      1  0.5164520000000  0.4882670000000  0.6102450000000 1.0
C      1  0.5145140000000  0.5358490000000  0.3941690000000 1.0
C      1  0.4494640000000  0.4687040000000  0.5371000000000 1.0
C      1  0.3898200000000  0.4676110000000  0.4482600000000 1.0
C      1  0.5256800000000  0.5545510000000  0.5833010000000 1.0
C      1  0.4355550000000  0.5118010000000  0.5247160000000 1.0
C      1  0.5705510000000  0.5791210000000  0.4544710000000 1.0
C      1  0.5061650000000  0.6115390000000  0.4842730000000 1.0
C      1  0.4844570000000  0.5551100000000  0.5207850000000 1.0
C      1  0.4681020000000  0.4218860000000  0.5357000000000 1.0
C      1  0.6085500000000  0.4946980000000  0.4478230000000 1.0
C      1  0.5875470000000  0.4377790000000  0.5001390000000 1.0
C      1  0.3972030000000  0.4916350000000  0.4297550000000 1.0
C      1  0.5648440000000  0.3982360000000  0.5365510000000 1.0
C      1  0.6065530000000  0.5424350000000  0.4488990000000 1.0
C      1  0.5406760000000  0.5272440000000  0.4786360000000 1.0
C      1  0.5174700000000  0.5481110000000  0.4791950000000 1.0
C      1  0.4195700000000  0.5787980000000  0.5047190000000 1.0
C      1  0.3771550000000  0.4599040000000  0.5064820000000 1.0
C      1  0.5159490000000  0.6174080000000  0.4398080000000 1.0
C      1  0.4335200000000  0.5659490000000  0.5265270000000 1.0
C      1  0.4723070000000  0.5056890000000  0.4599230000000 1.0
C      1  0.4366100000000  0.4101570000000  0.4346930000000 1.0
C      1  0.5536550000000  0.5482650000000  0.5852170000000 1.0
C      1  0.5246480000000  0.4828140000000  0.3913520000000 1.0
C      1  0.5797440000000  0.4964090000000  0.4820660000000 1.0
C      1  0.5094810000000  0.4348760000000  0.4102480000000 1.0
C      1  0.5546080000000  0.5996060000000  0.4661470000000 1.0
C      1  0.5879330000000  0.5308660000000  0.4292710000000 1.0
C      1  0.5726070000000  0.4823640000000  0.5054530000000 1.0
C      1  0.5449940000000  0.4937140000000  0.4424440000000 1.0
C      1  0.4549540000000  0.4969900000000  0.5417930000000 1.0
C      1  0.5028890000000  0.4107760000000  0.4646160000000 1.0
C      1  0.5923750000000  0.5621910000000  0.4666700000000 1.0
C      1  0.5431650000000  0.4795320000000  0.6048120000000 1.0
C      1  0.4544610000000  0.5257000000000  0.5918290000000 1.0
C      1  0.5606550000000  0.4361720000000  0.5975560000000 1.0
C      1  0.4762200000000  0.4364550000000  0.4942630000000 1.0
C      1  0.4357780000000  0.4551270000000  0.4189040000000 1.0
C      1  0.5903080000000  0.4777210000000  0.4621160000000 1.0
C      1  0.4135940000000  0.5146190000000  0.5670540000000 1.0
C      1  0.4219860000000  0.4798550000000  0.4163160000000 1.0
C      1  0.4797380000000  0.4268040000000  0.4182220000000 1.0
C      1  0.3827170000000  0.5479100000000  0.4764680000000 1.0
C      1  0.4747670000000  0.4033880000000  0.4630430000000 1.0
C      1  0.5031590000000  0.5557110000000  0.4567030000000 1.0
C      1  0.4311040000000  0.5372470000000  0.5741960000000 1.0
C      1  0.4687000000000  0.4735080000000  0.5959900000000 1.0
C      1  0.4625340000000  0.4501070000000  0.4097560000000 1.0
C      1  0.4675370000000  0.5151710000000  0.4856870000000 1.0
C      1  0.4579290000000  0.6112220000000  0.5088120000000 1.0
C      1  0.4025960000000  0.4422000000000  0.4541740000000 1.0
C      1  0.5308590000000  0.5983260000000  0.5564580000000 1.0
C      1  0.4681650000000  0.4629970000000  0.4964140000000 1.0
C      1  0.5886860000000  0.5449950000000  0.4902560000000 1.0
END
