TITL C-3866673-4222-286 1.29811302999679 125000 -445.597600120459 0 0 74 (C1) n - 1
REM
REM in /home/nfs/bkarasulu/CARBON/AIRSS/Generating-Clusters/LCBOP/Only-C1/SD-CG/FIRE-CG
REM
REM
REM
REM
REM
REM ./C.cell (11c1c37f851c82e70ff6c80c92926a4b)
REM AIRSS Version 0.9.1 bugfix July 2018 build 013d7b7c2542+ Fri, 06 Jul 2018 19:26:36 +0100
REM compiler GCC version 9.2.1 20190827 (Red Hat 9.2.1-1)
REM options -cpp -mtune=generic -march=x86-64 -g -O0 -fpre-include=/usr/include/finclude/math-vector-fortran.h
REM seed -1117983531 -1233266962 -877515741 -1837481010 185575078 -1798583061 1575037791 709108484 1599351464 -372391130 -908982850 -1900604254 225728520 730531124 888042836 -137828576 494754766 1021201941 2000339632 -1022974975 537705464 -628052367 1615389294 1329253500 1681555816 1154656333 1438798225 1320384770 211306382 1623722935 1899153953 -1185936473 1167074750
REM
CELL 1.54180   50.00000   50.00000   50.00000   90.00000   90.00000   90.00000
LATT -1
SFAC C  
C      1  0.4690110000000  0.5876620000000  0.5667190000000 1.0
C      1  0.4955120000000  0.5636260000000  0.4166870000000 1.0
C      1  0.4745350000000  0.5519220000000  0.5030810000000 1.0
C      1  0.5421130000000  0.5476060000000  0.4197650000000 1.0
C      1  0.4680130000000  0.4012540000000  0.4969960000000 1.0
C      1  0.4951160000000  0.4383310000000  0.5135980000000 1.0
C      1  0.5943720000000  0.5427010000000  0.6389130000000 1.0
C      1  0.4578680000000  0.5000950000000  0.5323590000000 1.0
C      1  0.5118370000000  0.4465570000000  0.3995550000000 1.0
C      1  0.5094720000000  0.4507000000000  0.5354540000000 1.0
C      1  0.4854160000000  0.4934460000000  0.5380080000000 1.0
C      1  0.5176580000000  0.4571130000000  0.4465010000000 1.0
C      1  0.4476790000000  0.4503850000000  0.4541330000000 1.0
C      1  0.4787980000000  0.4736040000000  0.4230760000000 1.0
C      1  0.4538700000000  0.4607160000000  0.4282820000000 1.0
C      1  0.5379720000000  0.4469940000000  0.5332550000000 1.0
C      1  0.4011760000000  0.5179610000000  0.5120130000000 1.0
C      1  0.5484940000000  0.5373210000000  0.5425110000000 1.0
C      1  0.5143350000000  0.5425880000000  0.4182600000000 1.0
C      1  0.5033450000000  0.5119030000000  0.4964510000000 1.0
C      1  0.5266220000000  0.5203830000000  0.5385100000000 1.0
C      1  0.4541490000000  0.4421040000000  0.5559420000000 1.0
C      1  0.5532980000000  0.5565360000000  0.4437690000000 1.0
C      1  0.5060050000000  0.4453340000000  0.4887560000000 1.0
C      1  0.5673020000000  0.4845620000000  0.4707280000000 1.0
C      1  0.4775450000000  0.4582400000000  0.5962920000000 1.0
C      1  0.5052390000000  0.4683620000000  0.4710520000000 1.0
C      1  0.4815930000000  0.6413400000000  0.6240030000000 1.0
C      1  0.5416400000000  0.4440010000000  0.4580030000000 1.0
C      1  0.5575120000000  0.4625010000000  0.5459900000000 1.0
C      1  0.4619630000000  0.5500860000000  0.5281830000000 1.0
C      1  0.4385260000000  0.4666010000000  0.4751680000000 1.0
C      1  0.5156310000000  0.4939360000000  0.4787610000000 1.0
C      1  0.4650140000000  0.5696850000000  0.5476830000000 1.0
C      1  0.4355030000000  0.4582700000000  0.5422830000000 1.0
C      1  0.4405530000000  0.4786890000000  0.5235570000000 1.0
C      1  0.4750990000000  0.4564510000000  0.5692540000000 1.0
C      1  0.5730270000000  0.5394260000000  0.3762760000000 1.0
C      1  0.4184680000000  0.5291740000000  0.5293750000000 1.0
C      1  0.5036310000000  0.5164460000000  0.4187910000000 1.0
C      1  0.4618100000000  0.4185830000000  0.5423520000000 1.0
C      1  0.5587050000000  0.5513260000000  0.5205640000000 1.0
C      1  0.4572530000000  0.3989590000000  0.4712560000000 1.0
C      1  0.4510670000000  0.5437160000000  0.4169420000000 1.0
C      1  0.5599980000000  0.5399970000000  0.5677670000000 1.0
C      1  0.4464830000000  0.5266500000000  0.5327920000000 1.0
C      1  0.5057540000000  0.5080980000000  0.5247050000000 1.0
C      1  0.5621760000000  0.5590660000000  0.4954420000000 1.0
C      1  0.4055510000000  0.4963730000000  0.4963930000000 1.0
C      1  0.5032240000000  0.4586470000000  0.4224720000000 1.0
C      1  0.5902370000000  0.4872520000000  0.5167440000000 1.0
C      1  0.5582560000000  0.5436160000000  0.3973340000000 1.0
C      1  0.5653630000000  0.4595290000000  0.4573360000000 1.0
C      1  0.4536580000000  0.3746860000000  0.4593320000000 1.0
C      1  0.5830050000000  0.5418850000000  0.6154660000000 1.0
C      1  0.5784950000000  0.4774870000000  0.5387160000000 1.0
C      1  0.4794830000000  0.5017640000000  0.4197950000000 1.0
C      1  0.5714500000000  0.5410530000000  0.5916260000000 1.0
C      1  0.4759190000000  0.4178460000000  0.5179230000000 1.0
C      1  0.4931380000000  0.4686730000000  0.5506860000000 1.0
C      1  0.4685780000000  0.5642140000000  0.4162020000000 1.0
C      1  0.5428360000000  0.4987590000000  0.4721310000000 1.0
C      1  0.5600440000000  0.5607130000000  0.4690590000000 1.0
C      1  0.4773970000000  0.6234450000000  0.6049040000000 1.0
C      1  0.4504140000000  0.4228340000000  0.4583500000000 1.0
C      1  0.4357190000000  0.4577200000000  0.4079340000000 1.0
C      1  0.4558380000000  0.5172410000000  0.4183650000000 1.0
C      1  0.4898200000000  0.5352320000000  0.4886830000000 1.0
C      1  0.5332700000000  0.4343260000000  0.4844770000000 1.0
C      1  0.5867490000000  0.4894160000000  0.4903010000000 1.0
C      1  0.5464520000000  0.4325590000000  0.5095500000000 1.0
C      1  0.4732030000000  0.6055540000000  0.5858110000000 1.0
C      1  0.4280220000000  0.4792280000000  0.4978150000000 1.0
C      1  0.4857190000000  0.6589410000000  0.6427860000000 1.0
END
