TITL C-3866676-3738-224 -6.77135197062376e-08 125000 -294.283967187319 0 0 49 (C1) n - 1
REM
REM in /home/nfs/bkarasulu/CARBON/AIRSS/Generating-Clusters/LCBOP/Only-C1/SD-CG/HFTN-CG/FIRE-CG
REM
REM
REM
REM
REM
REM ./C.cell (11c1c37f851c82e70ff6c80c92926a4b)
REM AIRSS Version 0.9.1 bugfix July 2018 build 013d7b7c2542+ Fri, 06 Jul 2018 19:26:36 +0100
REM compiler GCC version 9.2.1 20190827 (Red Hat 9.2.1-1)
REM options -cpp -mtune=generic -march=x86-64 -g -O0 -fpre-include=/usr/include/finclude/math-vector-fortran.h
REM seed 107346339 1572624429 -723287090 -1786217501 -1538704400 -1977965790 1597088461 -1312145826 -602959858 56830070 -1581993079 -1668988798 -1641010556 -2122871984 -2013619117 74127375 1721934126 657690279 890085133 -520448516 720579312 -1057034973 -224552230 329523660 -378271669 -2126902385 -1082146461 797560079 315722367 832890747 445460964 1513392215 -502331652
REM
CELL 1.54180   50.00000   50.00000   50.00000   90.00000   90.00000   90.00000
LATT -1
SFAC C  
C      1  0.4413500000000  0.5094440000000  0.4724860000000 1.0
C      1  0.4729910000000  0.5695610000000  0.4885560000000 1.0
C      1  0.5370330000000  0.5049200000000  0.4602890000000 1.0
C      1  0.4468190000000  0.5038520000000  0.5001280000000 1.0
C      1  0.5497460000000  0.5428930000000  0.5162940000000 1.0
C      1  0.5384940000000  0.4710320000000  0.5394330000000 1.0
C      1  0.5450680000000  0.4340190000000  0.4806750000000 1.0
C      1  0.4441920000000  0.5435470000000  0.4405490000000 1.0
C      1  0.5525210000000  0.4918720000000  0.5250390000000 1.0
C      1  0.5537430000000  0.4818440000000  0.4595190000000 1.0
C      1  0.4791440000000  0.4238440000000  0.5543670000000 1.0
C      1  0.4909030000000  0.5304400000000  0.4240870000000 1.0
C      1  0.4580490000000  0.5519080000000  0.5017030000000 1.0
C      1  0.4596670000000  0.5308140000000  0.5441970000000 1.0
C      1  0.5151050000000  0.5131230000000  0.5039200000000 1.0
C      1  0.5098310000000  0.4288770000000  0.5153970000000 1.0
C      1  0.4653160000000  0.5248180000000  0.4336720000000 1.0
C      1  0.5228050000000  0.5029020000000  0.5768740000000 1.0
C      1  0.5194490000000  0.4228730000000  0.4885170000000 1.0
C      1  0.5553130000000  0.4563150000000  0.4688180000000 1.0
C      1  0.4842820000000  0.4939740000000  0.5449400000000 1.0
C      1  0.5548410000000  0.5541030000000  0.4907650000000 1.0
C      1  0.4999440000000  0.4275930000000  0.4681970000000 1.0
C      1  0.4747960000000  0.4474490000000  0.5683070000000 1.0
C      1  0.5204590000000  0.4549140000000  0.5232170000000 1.0
C      1  0.4712150000000  0.4693870000000  0.5500180000000 1.0
C      1  0.4527110000000  0.5281750000000  0.5163580000000 1.0
C      1  0.5029870000000  0.4715380000000  0.5075820000000 1.0
C      1  0.4504560000000  0.4758500000000  0.5073900000000 1.0
C      1  0.4942840000000  0.4536440000000  0.4627580000000 1.0
C      1  0.5399100000000  0.5542010000000  0.4664910000000 1.0
C      1  0.4944330000000  0.5777930000000  0.4751110000000 1.0
C      1  0.5401300000000  0.5554720000000  0.5398450000000 1.0
C      1  0.5190180000000  0.5732750000000  0.4657860000000 1.0
C      1  0.5172460000000  0.5339160000000  0.4280990000000 1.0
C      1  0.5224630000000  0.5482770000000  0.5591120000000 1.0
C      1  0.4640250000000  0.4561580000000  0.5236750000000 1.0
C      1  0.5365360000000  0.5312190000000  0.4488960000000 1.0
C      1  0.4564880000000  0.4758890000000  0.4382250000000 1.0
C      1  0.5415070000000  0.5159330000000  0.5146600000000 1.0
C      1  0.4575300000000  0.5008460000000  0.4491810000000 1.0
C      1  0.5143770000000  0.5010920000000  0.4769030000000 1.0
C      1  0.5320420000000  0.4796930000000  0.5659640000000 1.0
C      1  0.4818250000000  0.5191480000000  0.5579000000000 1.0
C      1  0.5020420000000  0.4751420000000  0.4789310000000 1.0
C      1  0.4814210000000  0.4295990000000  0.5254720000000 1.0
C      1  0.4297930000000  0.5343370000000  0.4624560000000 1.0
C      1  0.4981350000000  0.4963390000000  0.5203680000000 1.0
C      1  0.5075650000000  0.5261440000000  0.5688750000000 1.0
END
