TITL C-3866673-4222-18 1.25368711885945 125000 -140.694333202023 0 0 25 (C1) n - 1
REM
REM in /home/nfs/bkarasulu/CARBON/AIRSS/Generating-Clusters/LCBOP/Only-C1/SD-CG/HFTN-CG/FIRE-CG
REM
REM
REM
REM
REM
REM ./C.cell (11c1c37f851c82e70ff6c80c92926a4b)
REM AIRSS Version 0.9.1 bugfix July 2018 build 013d7b7c2542+ Fri, 06 Jul 2018 19:26:36 +0100
REM compiler GCC version 9.2.1 20190827 (Red Hat 9.2.1-1)
REM options -cpp -mtune=generic -march=x86-64 -g -O0 -fpre-include=/usr/include/finclude/math-vector-fortran.h
REM seed -2011775376 1926221847 -1666336758 2771338 -381072016 -2003053559 -2003258718 1524953628 -1088242181 658051538 879762236 875304928 -2100769998 -1229310201 1378378369 -953794961 1904178798 1502929545 -1574506481 -1389464332 -761026690 -1221888650 2010133475 1469691673 1045413417 -700525972 1303174421 -1575345190 1545952086 741403707 720494801 -273162035 -1617971823
REM
CELL 1.54180   50.00000   50.00000   50.00000   90.00000   90.00000   90.00000
LATT -1
SFAC C  
C      1  0.4808070000000  0.5080040000000  0.5214680000000 1.0
C      1  0.5095810000000  0.5910340000000  0.4754810000000 1.0
C      1  0.5072090000000  0.5057930000000  0.5124810000000 1.0
C      1  0.5982160000000  0.4718930000000  0.5157420000000 1.0
C      1  0.4218000000000  0.5012760000000  0.4779500000000 1.0
C      1  0.4378990000000  0.4903910000000  0.4993680000000 1.0
C      1  0.4786190000000  0.4375630000000  0.5124270000000 1.0
C      1  0.4538950000000  0.4471150000000  0.5133340000000 1.0
C      1  0.4598940000000  0.5096750000000  0.5026920000000 1.0
C      1  0.5692560000000  0.5537950000000  0.4549820000000 1.0
C      1  0.5445120000000  0.4746900000000  0.5076870000000 1.0
C      1  0.6240460000000  0.4712680000000  0.5192150000000 1.0
C      1  0.4733400000000  0.5531870000000  0.4795610000000 1.0
C      1  0.5455880000000  0.5184520000000  0.4858580000000 1.0
C      1  0.4754020000000  0.5087530000000  0.5482780000000 1.0
C      1  0.5050580000000  0.4391500000000  0.5108280000000 1.0
C      1  0.4914540000000  0.5723860000000  0.4772890000000 1.0
C      1  0.5576260000000  0.5362080000000  0.4703130000000 1.0
C      1  0.4336000000000  0.4663830000000  0.5132260000000 1.0
C      1  0.4101760000000  0.4619640000000  0.5266200000000 1.0
C      1  0.4567120000000  0.5314630000000  0.4832480000000 1.0
C      1  0.5281910000000  0.4520240000000  0.5090660000000 1.0
C      1  0.4326510000000  0.5249330000000  0.4686860000000 1.0
C      1  0.5324850000000  0.4998890000000  0.5020860000000 1.0
C      1  0.5719850000000  0.4727130000000  0.5121130000000 1.0
END
