TITL C-3866676-3738-40 554.459101827599 125000 -1199.47213998783 0 0 195 (C1) n - 1
REM
REM in /home/nfs/bkarasulu/CARBON/AIRSS/Generating-Clusters/LCBOP/Only-C1/SD-CG/HFTN-CG/FIRE-CG
REM
REM
REM
REM
REM
REM ./C.cell (11c1c37f851c82e70ff6c80c92926a4b)
REM AIRSS Version 0.9.1 bugfix July 2018 build 013d7b7c2542+ Fri, 06 Jul 2018 19:26:36 +0100
REM compiler GCC version 9.2.1 20190827 (Red Hat 9.2.1-1)
REM options -cpp -mtune=generic -march=x86-64 -g -O0 -fpre-include=/usr/include/finclude/math-vector-fortran.h
REM seed 2084539057 1033153380 124213234 604919312 1785988262 1267460980 233181043 -1106204866 1608952011 458673433 -36976145 576222835 1927887530 172602304 1398344695 -209013176 574822102 -145045884 -449870333 -1782007547 -1076600883 -374587178 -1091842689 -1054680268 -407503281 -258543253 -19462631 -472992825 170878356 -880614958 -1841710381 251301290 822154477
REM
CELL 1.54180   50.00000   50.00000   50.00000   90.00000   90.00000   90.00000
LATT -1
SFAC C  
C      1  0.5339110000000  0.5542930000000  0.5886610000000 1.0
C      1  0.3920180000000  0.4360480000000  0.5507900000000 1.0
C      1  0.5569810000000  0.3637840000000  0.4568200000000 1.0
C      1  0.3714920000000  0.4481670000000  0.5655460000000 1.0
C      1  0.4987470000000  0.5744190000000  0.4534750000000 1.0
C      1  0.5361970000000  0.5423590000000  0.6144050000000 1.0
C      1  0.4573690000000  0.4103170000000  0.4855590000000 1.0
C      1  0.4320740000000  0.4790910000000  0.4860450000000 1.0
C      1  0.5962950000000  0.4558970000000  0.5590150000000 1.0
C      1  0.5259510000000  0.5693500000000  0.5094420000000 1.0
C      1  0.5581030000000  0.5005510000000  0.4529360000000 1.0
C      1  0.4704220000000  0.4179980000000  0.4243760000000 1.0
C      1  0.4939110000000  0.4710920000000  0.4058360000000 1.0
C      1  0.4243520000000  0.6037030000000  0.3673640000000 1.0
C      1  0.5499210000000  0.5173050000000  0.5589600000000 1.0
C      1  0.4767940000000  0.5129750000000  0.4200800000000 1.0
C      1  0.5701840000000  0.6165810000000  0.5250070000000 1.0
C      1  0.5329860000000  0.5082900000000  0.4664420000000 1.0
C      1  0.5246120000000  0.5352860000000  0.4674470000000 1.0
C      1  0.4303560000000  0.4549600000000  0.5925540000000 1.0
C      1  0.5903160000000  0.3925960000000  0.5144540000000 1.0
C      1  0.3700460000000  0.5362570000000  0.3216320000000 1.0
C      1  0.5595560000000  0.5245490000000  0.6104520000000 1.0
C      1  0.4852200000000  0.5959540000000  0.5629350000000 1.0
C      1  0.5709960000000  0.4172040000000  0.5099570000000 1.0
C      1  0.4200070000000  0.4103290000000  0.5174730000000 1.0
C      1  0.5645190000000  0.5984620000000  0.5458250000000 1.0
C      1  0.5711620000000  0.5320950000000  0.5162830000000 1.0
C      1  0.5225320000000  0.4052170000000  0.5329360000000 1.0
C      1  0.3841800000000  0.5321730000000  0.3431530000000 1.0
C      1  0.4828940000000  0.5617870000000  0.5242010000000 1.0
C      1  0.4487460000000  0.4333240000000  0.4698630000000 1.0
C      1  0.4845920000000  0.5315080000000  0.5816000000000 1.0
C      1  0.5863560000000  0.3729040000000  0.4957750000000 1.0
C      1  0.5204710000000  0.5938210000000  0.4564420000000 1.0
C      1  0.4875950000000  0.5060350000000  0.4939710000000 1.0
C      1  0.5930670000000  0.5046570000000  0.5509340000000 1.0
C      1  0.5836010000000  0.6089390000000  0.5026590000000 1.0
C      1  0.4616710000000  0.5812020000000  0.5250990000000 1.0
C      1  0.5222690000000  0.3939320000000  0.5788510000000 1.0
C      1  0.6310690000000  0.4606110000000  0.4895690000000 1.0
C      1  0.4321750000000  0.4544370000000  0.4053910000000 1.0
C      1  0.4254700000000  0.5242910000000  0.4566740000000 1.0
C      1  0.5505630000000  0.4134300000000  0.5338060000000 1.0
C      1  0.5032400000000  0.6308700000000  0.4872350000000 1.0
C      1  0.4076340000000  0.5725910000000  0.4080560000000 1.0
C      1  0.5984300000000  0.4448880000000  0.4334290000000 1.0
C      1  0.4963500000000  0.4250690000000  0.4122460000000 1.0
C      1  0.5669340000000  0.3801310000000  0.4760650000000 1.0
C      1  0.3932160000000  0.5062050000000  0.4841390000000 1.0
C      1  0.5838250000000  0.4331120000000  0.5650200000000 1.0
C      1  0.4770240000000  0.6318610000000  0.4975300000000 1.0
C      1  0.5477940000000  0.5873880000000  0.4498350000000 1.0
C      1  0.4839730000000  0.4518570000000  0.4884720000000 1.0
C      1  0.5041320000000  0.5272350000000  0.5609500000000 1.0
C      1  0.4482880000000  0.4055080000000  0.5120550000000 1.0
C      1  0.5588580000000  0.4717600000000  0.4483710000000 1.0
C      1  0.3887100000000  0.4583280000000  0.6595360000000 1.0
C      1  0.5849740000000  0.5765920000000  0.5496620000000 1.0
C      1  0.6091820000000  0.5461290000000  0.4685670000000 1.0
C      1  0.5512450000000  0.5746650000000  0.5816730000000 1.0
C      1  0.5299630000000  0.5354290000000  0.5678610000000 1.0
C      1  0.3846550000000  0.5265000000000  0.5301250000000 1.0
C      1  0.4704760000000  0.5767480000000  0.5786410000000 1.0
C      1  0.6386700000000  0.5089290000000  0.5047450000000 1.0
C      1  0.5485330000000  0.4973740000000  0.6041610000000 1.0
C      1  0.6371570000000  0.5322640000000  0.5176760000000 1.0
C      1  0.4035400000000  0.4569670000000  0.6381390000000 1.0
C      1  0.4440680000000  0.5207930000000  0.5396290000000 1.0
C      1  0.4606040000000  0.4098680000000  0.5396480000000 1.0
C      1  0.4725810000000  0.6284820000000  0.5253990000000 1.0
C      1  0.5937890000000  0.4775730000000  0.5413870000000 1.0
C      1  0.3732550000000  0.4754200000000  0.5718720000000 1.0
C      1  0.4451190000000  0.4549470000000  0.5685030000000 1.0
C      1  0.3902390000000  0.5236340000000  0.5580150000000 1.0
C      1  0.5623580000000  0.5153750000000  0.4270660000000 1.0
C      1  0.4720120000000  0.5737400000000  0.4657740000000 1.0
C      1  0.3985530000000  0.5283650000000  0.3650770000000 1.0
C      1  0.5754960000000  0.4319290000000  0.4206620000000 1.0
C      1  0.4658110000000  0.5481110000000  0.4801560000000 1.0
C      1  0.6091160000000  0.4714550000000  0.4291920000000 1.0
C      1  0.5429020000000  0.4972360000000  0.3854930000000 1.0
C      1  0.4939390000000  0.4423380000000  0.3666040000000 1.0
C      1  0.6156760000000  0.4966840000000  0.4377750000000 1.0
C      1  0.4837650000000  0.4862550000000  0.4265770000000 1.0
C      1  0.5433370000000  0.4788320000000  0.3670370000000 1.0
C      1  0.5236780000000  0.4182750000000  0.4205470000000 1.0
C      1  0.5258770000000  0.5226800000000  0.5173050000000 1.0
C      1  0.5498990000000  0.5185430000000  0.4018430000000 1.0
C      1  0.5083920000000  0.4403820000000  0.4835810000000 1.0
C      1  0.5425620000000  0.4133300000000  0.5830100000000 1.0
C      1  0.5946350000000  0.4904950000000  0.4934520000000 1.0
C      1  0.3499570000000  0.4334720000000  0.5738220000000 1.0
C      1  0.5678080000000  0.5663400000000  0.4016740000000 1.0
C      1  0.4627790000000  0.5491450000000  0.5764470000000 1.0
C      1  0.4881880000000  0.5388670000000  0.4965790000000 1.0
C      1  0.4035510000000  0.5160240000000  0.5108790000000 1.0
C      1  0.3910900000000  0.4814890000000  0.4670570000000 1.0
C      1  0.5592620000000  0.4077920000000  0.4808320000000 1.0
C      1  0.5333540000000  0.5942560000000  0.4995760000000 1.0
C      1  0.5921120000000  0.5692350000000  0.4736570000000 1.0
C      1  0.4843550000000  0.4779570000000  0.5838090000000 1.0
C      1  0.5339410000000  0.4675230000000  0.5388580000000 1.0
C      1  0.5049910000000  0.4589160000000  0.5765650000000 1.0
C      1  0.4133950000000  0.5262130000000  0.3882840000000 1.0
C      1  0.4692000000000  0.5000940000000  0.4704490000000 1.0
C      1  0.3808090000000  0.4826190000000  0.4405740000000 1.0
C      1  0.4403030000000  0.4368660000000  0.4258480000000 1.0
C      1  0.5847540000000  0.5327300000000  0.4312810000000 1.0
C      1  0.4614190000000  0.4978700000000  0.5422610000000 1.0
C      1  0.5821960000000  0.5363200000000  0.5909200000000 1.0
C      1  0.4690570000000  0.4539210000000  0.4652540000000 1.0
C      1  0.4949730000000  0.5332290000000  0.4270290000000 1.0
C      1  0.4534550000000  0.5923370000000  0.4791710000000 1.0
C      1  0.5264670000000  0.4617560000000  0.4806260000000 1.0
C      1  0.3818990000000  0.5520990000000  0.4701110000000 1.0
C      1  0.4731060000000  0.3968070000000  0.4431350000000 1.0
C      1  0.3907590000000  0.5817390000000  0.4283120000000 1.0
C      1  0.5057330000000  0.5140790000000  0.5360550000000 1.0
C      1  0.4412660000000  0.5497820000000  0.4972790000000 1.0
C      1  0.5707390000000  0.5193860000000  0.5400940000000 1.0
C      1  0.5036760000000  0.4226210000000  0.5221110000000 1.0
C      1  0.5248080000000  0.4821610000000  0.6111030000000 1.0
C      1  0.5528270000000  0.4947950000000  0.5760490000000 1.0
C      1  0.4574590000000  0.6200910000000  0.4806590000000 1.0
C      1  0.3989790000000  0.5294540000000  0.4670290000000 1.0
C      1  0.4410170000000  0.5040760000000  0.4723180000000 1.0
C      1  0.5238850000000  0.4555230000000  0.5981570000000 1.0
C      1  0.5199360000000  0.6097070000000  0.4801750000000 1.0
C      1  0.3660250000000  0.5441650000000  0.5185920000000 1.0
C      1  0.5516710000000  0.5451250000000  0.3917540000000 1.0
C      1  0.4140380000000  0.4636230000000  0.4688290000000 1.0
C      1  0.5736370000000  0.5752380000000  0.4510540000000 1.0
C      1  0.4719410000000  0.4568660000000  0.5133690000000 1.0
C      1  0.4180360000000  0.4556960000000  0.6159880000000 1.0
C      1  0.4839020000000  0.5000730000000  0.5242100000000 1.0
C      1  0.5106740000000  0.5348270000000  0.6241640000000 1.0
C      1  0.4748800000000  0.4782900000000  0.4521270000000 1.0
C      1  0.4693160000000  0.6046640000000  0.5401310000000 1.0
C      1  0.6239760000000  0.4878330000000  0.4938290000000 1.0
C      1  0.5879860000000  0.4429480000000  0.5044840000000 1.0
C      1  0.4274470000000  0.4418550000000  0.4527480000000 1.0
C      1  0.4786630000000  0.3910750000000  0.5528010000000 1.0
C      1  0.4799990000000  0.3998990000000  0.4706020000000 1.0
C      1  0.5513270000000  0.4289060000000  0.6285040000000 1.0
C      1  0.4302460000000  0.5035200000000  0.3962300000000 1.0
C      1  0.5603210000000  0.4184900000000  0.5609370000000 1.0
C      1  0.5084400000000  0.5478030000000  0.4470180000000 1.0
C      1  0.5933530000000  0.5823550000000  0.4995300000000 1.0
C      1  0.4396790000000  0.5376330000000  0.5629020000000 1.0
C      1  0.4305140000000  0.5282110000000  0.5144730000000 1.0
C      1  0.4159470000000  0.4262040000000  0.5408780000000 1.0
C      1  0.4924500000000  0.5206650000000  0.6071990000000 1.0
C      1  0.6231840000000  0.5533150000000  0.5262720000000 1.0
C      1  0.6008110000000  0.5703810000000  0.5256770000000 1.0
C      1  0.6066740000000  0.4332130000000  0.4582220000000 1.0
C      1  0.4621750000000  0.4783660000000  0.5649580000000 1.0
C      1  0.5078100000000  0.3925780000000  0.5546580000000 1.0
C      1  0.4971310000000  0.4928350000000  0.6057000000000 1.0
C      1  0.4430900000000  0.5784620000000  0.5035390000000 1.0
C      1  0.5178540000000  0.4898230000000  0.4815470000000 1.0
C      1  0.5992870000000  0.5169180000000  0.5765460000000 1.0
C      1  0.5393490000000  0.4326830000000  0.6036120000000 1.0
C      1  0.5830690000000  0.5048220000000  0.4713770000000 1.0
C      1  0.5084450000000  0.5714310000000  0.5317420000000 1.0
C      1  0.4495520000000  0.5159270000000  0.4148230000000 1.0
C      1  0.5629240000000  0.4261330000000  0.6516760000000 1.0
C      1  0.5719300000000  0.5896460000000  0.3882310000000 1.0
C      1  0.4457940000000  0.4681470000000  0.5089440000000 1.0
C      1  0.5408220000000  0.5931160000000  0.5618590000000 1.0
C      1  0.6104470000000  0.4408830000000  0.4851490000000 1.0
C      1  0.4162640000000  0.5892670000000  0.3874970000000 1.0
C      1  0.5503520000000  0.4216750000000  0.4316890000000 1.0
C      1  0.3793120000000  0.5012660000000  0.5708300000000 1.0
C      1  0.4919840000000  0.4465630000000  0.5314730000000 1.0
C      1  0.4426720000000  0.4310530000000  0.5525750000000 1.0
C      1  0.4324150000000  0.5335750000000  0.4307200000000 1.0
C      1  0.5516730000000  0.4257170000000  0.4604550000000 1.0
C      1  0.5051690000000  0.4128110000000  0.4762560000000 1.0
C      1  0.3926840000000  0.4802980000000  0.4164170000000 1.0
C      1  0.5102290000000  0.4587570000000  0.5491600000000 1.0
C      1  0.4120890000000  0.5380080000000  0.5695970000000 1.0
C      1  0.4950660000000  0.4462850000000  0.3934930000000 1.0
C      1  0.3813450000000  0.5726670000000  0.4514170000000 1.0
C      1  0.4157360000000  0.5457340000000  0.4097620000000 1.0
C      1  0.5129030000000  0.5892320000000  0.5542710000000 1.0
C      1  0.6028580000000  0.5209640000000  0.4526350000000 1.0
C      1  0.4178800000000  0.4787360000000  0.4031100000000 1.0
C      1  0.5192220000000  0.5433070000000  0.4957090000000 1.0
C      1  0.5861780000000  0.4708720000000  0.5139410000000 1.0
C      1  0.5780220000000  0.5631630000000  0.5760860000000 1.0
C      1  0.5796510000000  0.5603110000000  0.4270430000000 1.0
C      1  0.5487190000000  0.4532670000000  0.4661560000000 1.0
C      1  0.4667900000000  0.3691570000000  0.5647400000000 1.0
C      1  0.3662520000000  0.5540650000000  0.4935610000000 1.0
END
