TITL C-3866669-3764-408 -34.836969202509 125000 -1023.58430731069 0 0 165 (C1) n - 1
REM
REM in /home/nfs/bkarasulu/CARBON/AIRSS/Generating-Clusters/LCBOP/Only-C1/SD-CG/FIRE-CG
REM
REM
REM
REM
REM
REM ./C.cell (11c1c37f851c82e70ff6c80c92926a4b)
REM AIRSS Version 0.9.1 bugfix July 2018 build 013d7b7c2542+ Fri, 06 Jul 2018 19:26:36 +0100
REM compiler GCC version 9.2.1 20190827 (Red Hat 9.2.1-1)
REM options -cpp -mtune=generic -march=x86-64 -g -O0 -fpre-include=/usr/include/finclude/math-vector-fortran.h
REM seed 712169604 1311135170 454675049 -2140983364 -1616718399 -1384383473 -73248305 -777183065 -1499245063 -1349584117 -701768542 -1192281655 -1879162018 -1631475147 -207149375 -1983809389 -1667685128 -293680503 -981207231 1891350324 -2137892374 -168691305 954833273 -1642543824 751119611 1858700193 1474350421 -1060175483 -1730868433 -383096149 -1909904593 1798909602 -2036731735
REM
CELL 1.54180   50.00000   50.00000   50.00000   90.00000   90.00000   90.00000
LATT -1
SFAC C  
C      1  0.5594130000000  0.5107320000000  0.4207680000000 1.0
C      1  0.5167540000000  0.5416490000000  0.4281780000000 1.0
C      1  0.4978510000000  0.5308090000000  0.4086430000000 1.0
C      1  0.5174470000000  0.4905330000000  0.5040570000000 1.0
C      1  0.5721640000000  0.4232050000000  0.5495380000000 1.0
C      1  0.4400090000000  0.4149640000000  0.4085890000000 1.0
C      1  0.5435190000000  0.5036880000000  0.5068630000000 1.0
C      1  0.5631400000000  0.5390020000000  0.4181810000000 1.0
C      1  0.3917480000000  0.4605550000000  0.4613920000000 1.0
C      1  0.5475870000000  0.4098430000000  0.5519690000000 1.0
C      1  0.4370320000000  0.4870490000000  0.5230670000000 1.0
C      1  0.4403950000000  0.4637890000000  0.5965200000000 1.0
C      1  0.4789250000000  0.5071960000000  0.5572080000000 1.0
C      1  0.5030040000000  0.5034240000000  0.4041770000000 1.0
C      1  0.5760410000000  0.5762230000000  0.5514160000000 1.0
C      1  0.4980370000000  0.4136030000000  0.3909420000000 1.0
C      1  0.4704180000000  0.3787840000000  0.4299750000000 1.0
C      1  0.5036000000000  0.5886330000000  0.5556020000000 1.0
C      1  0.5906040000000  0.4426790000000  0.5520190000000 1.0
C      1  0.3896410000000  0.4665990000000  0.4898860000000 1.0
C      1  0.4828690000000  0.4561070000000  0.5472670000000 1.0
C      1  0.5639060000000  0.4696540000000  0.4743200000000 1.0
C      1  0.5817830000000  0.5434810000000  0.5857320000000 1.0
C      1  0.5086900000000  0.5801740000000  0.5823720000000 1.0
C      1  0.3930730000000  0.5064300000000  0.4679210000000 1.0
C      1  0.5603460000000  0.5441030000000  0.6021150000000 1.0
C      1  0.4729390000000  0.5202210000000  0.4995980000000 1.0
C      1  0.5831980000000  0.5719870000000  0.4740500000000 1.0
C      1  0.5348990000000  0.6034560000000  0.4278980000000 1.0
C      1  0.4664320000000  0.5868070000000  0.5211560000000 1.0
C      1  0.5148470000000  0.4888820000000  0.5832680000000 1.0
C      1  0.5454780000000  0.6129780000000  0.5604780000000 1.0
C      1  0.4878050000000  0.4766800000000  0.5900910000000 1.0
C      1  0.4323670000000  0.5163560000000  0.6102320000000 1.0
C      1  0.4752510000000  0.4783970000000  0.5626160000000 1.0
C      1  0.5081250000000  0.4593060000000  0.5373340000000 1.0
C      1  0.6279770000000  0.5447520000000  0.4811380000000 1.0
C      1  0.3990270000000  0.4845990000000  0.4472510000000 1.0
C      1  0.5092490000000  0.5895470000000  0.4838970000000 1.0
C      1  0.5093880000000  0.5607550000000  0.6030390000000 1.0
C      1  0.5612130000000  0.4703220000000  0.5935450000000 1.0
C      1  0.4532260000000  0.5671590000000  0.5053510000000 1.0
C      1  0.5136020000000  0.6104510000000  0.4132140000000 1.0
C      1  0.6223660000000  0.4747500000000  0.6343580000000 1.0
C      1  0.5611860000000  0.4614210000000  0.5018320000000 1.0
C      1  0.4707760000000  0.5366770000000  0.3993500000000 1.0
C      1  0.4954720000000  0.5028760000000  0.4881150000000 1.0
C      1  0.4422730000000  0.4636370000000  0.3963390000000 1.0
C      1  0.4685500000000  0.4270530000000  0.5116470000000 1.0
C      1  0.4768930000000  0.4289230000000  0.3838540000000 1.0
C      1  0.6025520000000  0.5549550000000  0.4877360000000 1.0
C      1  0.4275480000000  0.4887150000000  0.5481510000000 1.0
C      1  0.5071590000000  0.4014640000000  0.5743120000000 1.0
C      1  0.4502330000000  0.3917290000000  0.4177130000000 1.0
C      1  0.4435470000000  0.4385340000000  0.5836540000000 1.0
C      1  0.5157230000000  0.4155230000000  0.4368050000000 1.0
C      1  0.5348420000000  0.5496630000000  0.6086360000000 1.0
C      1  0.5176030000000  0.4660190000000  0.4587240000000 1.0
C      1  0.4507560000000  0.5075650000000  0.5105120000000 1.0
C      1  0.3880860000000  0.5076980000000  0.5208090000000 1.0
C      1  0.5465150000000  0.5316970000000  0.5021170000000 1.0
C      1  0.4639540000000  0.4793430000000  0.6066490000000 1.0
C      1  0.4291680000000  0.5185920000000  0.4431270000000 1.0
C      1  0.4363380000000  0.4902290000000  0.4052190000000 1.0
C      1  0.6388710000000  0.5130450000000  0.5184260000000 1.0
C      1  0.4462050000000  0.5634670000000  0.5806370000000 1.0
C      1  0.4987410000000  0.4089860000000  0.5474730000000 1.0
C      1  0.4638180000000  0.5584520000000  0.5587610000000 1.0
C      1  0.3871750000000  0.4956190000000  0.4945350000000 1.0
C      1  0.4655700000000  0.5310600000000  0.5520360000000 1.0
C      1  0.5690530000000  0.5999050000000  0.5654340000000 1.0
C      1  0.6189280000000  0.5127540000000  0.5388040000000 1.0
C      1  0.4200810000000  0.4945100000000  0.4289020000000 1.0
C      1  0.3978820000000  0.5281090000000  0.5395200000000 1.0
C      1  0.4000540000000  0.4091920000000  0.4589440000000 1.0
C      1  0.5601000000000  0.5721460000000  0.5278340000000 1.0
C      1  0.5254240000000  0.4899640000000  0.3934460000000 1.0
C      1  0.4077720000000  0.5296310000000  0.4589910000000 1.0
C      1  0.3825640000000  0.5673530000000  0.4824190000000 1.0
C      1  0.5286180000000  0.4177440000000  0.5054410000000 1.0
C      1  0.4197700000000  0.5538110000000  0.5764670000000 1.0
C      1  0.5995900000000  0.4664420000000  0.5648330000000 1.0
C      1  0.4785390000000  0.5252720000000  0.6220900000000 1.0
C      1  0.5120970000000  0.4062330000000  0.4850630000000 1.0
C      1  0.4768800000000  0.6229520000000  0.4589760000000 1.0
C      1  0.5423080000000  0.4784100000000  0.4575030000000 1.0
C      1  0.4648580000000  0.5444860000000  0.4600750000000 1.0
C      1  0.6383690000000  0.4778980000000  0.6546960000000 1.0
C      1  0.5659980000000  0.4678850000000  0.3944350000000 1.0
C      1  0.4722550000000  0.5891770000000  0.3974170000000 1.0
C      1  0.4716220000000  0.5502170000000  0.4887330000000 1.0
C      1  0.5541660000000  0.4940320000000  0.3984820000000 1.0
C      1  0.4409200000000  0.3845690000000  0.4786020000000 1.0
C      1  0.4871420000000  0.4855770000000  0.4209000000000 1.0
C      1  0.5113010000000  0.5407830000000  0.5284000000000 1.0
C      1  0.5488920000000  0.5194040000000  0.5522580000000 1.0
C      1  0.5116200000000  0.5240950000000  0.4748120000000 1.0
C      1  0.5188020000000  0.5427010000000  0.4981930000000 1.0
C      1  0.5420410000000  0.5566040000000  0.4263400000000 1.0
C      1  0.4815650000000  0.4364590000000  0.4643460000000 1.0
C      1  0.4991280000000  0.5641210000000  0.4903980000000 1.0
C      1  0.5599360000000  0.4838320000000  0.5219160000000 1.0
C      1  0.4028370000000  0.5526390000000  0.5245560000000 1.0
C      1  0.4854550000000  0.6092610000000  0.4118180000000 1.0
C      1  0.4518250000000  0.4368000000000  0.3948560000000 1.0
C      1  0.4740500000000  0.4265660000000  0.5418720000000 1.0
C      1  0.4852480000000  0.4837180000000  0.4691170000000 1.0
C      1  0.5454110000000  0.4192500000000  0.3986460000000 1.0
C      1  0.4720550000000  0.6226920000000  0.4326320000000 1.0
C      1  0.3965830000000  0.5547380000000  0.4632610000000 1.0
C      1  0.3922050000000  0.4339940000000  0.4532200000000 1.0
C      1  0.4143330000000  0.5078870000000  0.5889190000000 1.0
C      1  0.5662660000000  0.4018960000000  0.3929940000000 1.0
C      1  0.5904990000000  0.5525660000000  0.5603030000000 1.0
C      1  0.4820990000000  0.4138420000000  0.4876540000000 1.0
C      1  0.4650920000000  0.5636610000000  0.3942610000000 1.0
C      1  0.5207850000000  0.4609560000000  0.3981860000000 1.0
C      1  0.5200990000000  0.4108180000000  0.4088010000000 1.0
C      1  0.5111470000000  0.3956750000000  0.4571140000000 1.0
C      1  0.5537800000000  0.4909170000000  0.5501990000000 1.0
C      1  0.4078230000000  0.5283910000000  0.5683690000000 1.0
C      1  0.5261730000000  0.6014960000000  0.5421760000000 1.0
C      1  0.5371800000000  0.5916560000000  0.4901670000000 1.0
C      1  0.4337660000000  0.4622420000000  0.5105780000000 1.0
C      1  0.4746070000000  0.4965420000000  0.4443740000000 1.0
C      1  0.4603090000000  0.5659970000000  0.6050860000000 1.0
C      1  0.5417900000000  0.4798140000000  0.5754150000000 1.0
C      1  0.5650040000000  0.5486600000000  0.5136600000000 1.0
C      1  0.4517190000000  0.5142180000000  0.3963630000000 1.0
C      1  0.5375410000000  0.4447380000000  0.5039960000000 1.0
C      1  0.5043350000000  0.4430010000000  0.4436050000000 1.0
C      1  0.4165570000000  0.4791490000000  0.5903990000000 1.0
C      1  0.5462490000000  0.4470360000000  0.3952380000000 1.0
C      1  0.5437780000000  0.5036490000000  0.4441700000000 1.0
C      1  0.4782250000000  0.5798230000000  0.5456780000000 1.0
C      1  0.4286680000000  0.5580800000000  0.5150330000000 1.0
C      1  0.6121760000000  0.4886630000000  0.5522740000000 1.0
C      1  0.4523270000000  0.4239160000000  0.5625650000000 1.0
C      1  0.6027180000000  0.5366110000000  0.5387010000000 1.0
C      1  0.5222160000000  0.5283140000000  0.5514200000000 1.0
C      1  0.4566410000000  0.4509910000000  0.5003150000000 1.0
C      1  0.4989080000000  0.4586950000000  0.4177670000000 1.0
C      1  0.5250400000000  0.4093590000000  0.5324830000000 1.0
C      1  0.6422730000000  0.5264750000000  0.4951870000000 1.0
C      1  0.4570700000000  0.5201300000000  0.4477760000000 1.0
C      1  0.4930420000000  0.6108240000000  0.4763320000000 1.0
C      1  0.5407060000000  0.5906960000000  0.5190490000000 1.0
C      1  0.4850680000000  0.3816600000000  0.4538910000000 1.0
C      1  0.4583850000000  0.5061230000000  0.6165670000000 1.0
C      1  0.5347220000000  0.4022250000000  0.5768410000000 1.0
C      1  0.5057530000000  0.5118590000000  0.5669500000000 1.0
C      1  0.4166120000000  0.3918310000000  0.4704790000000 1.0
C      1  0.5859820000000  0.3856660000000  0.3877940000000 1.0
C      1  0.5894050000000  0.4695290000000  0.5915730000000 1.0
C      1  0.4076730000000  0.4530070000000  0.5065280000000 1.0
C      1  0.4702810000000  0.4597690000000  0.4770420000000 1.0
C      1  0.5924780000000  0.5439470000000  0.5123520000000 1.0
C      1  0.4839170000000  0.5516210000000  0.6130800000000 1.0
C      1  0.3825170000000  0.5651030000000  0.5093310000000 1.0
C      1  0.5460010000000  0.5810500000000  0.4410150000000 1.0
C      1  0.4682690000000  0.3892200000000  0.4765050000000 1.0
C      1  0.5177120000000  0.4637430000000  0.5123490000000 1.0
C      1  0.5228700000000  0.5227540000000  0.4497200000000 1.0
C      1  0.6061150000000  0.4716710000000  0.6136630000000 1.0
C      1  0.5564170000000  0.5826540000000  0.4686660000000 1.0
END
