TITL C-3866675-3766-742 0.152399776276618 125000 -119.922907103164 0 0 22 (C1) n - 1
REM
REM in /home/nfs/bkarasulu/CARBON/AIRSS/Generating-Clusters/LCBOP/Only-C1/SD-CG/FIRE-CG
REM
REM
REM
REM
REM
REM ./C.cell (11c1c37f851c82e70ff6c80c92926a4b)
REM AIRSS Version 0.9.1 bugfix July 2018 build 013d7b7c2542+ Fri, 06 Jul 2018 19:26:36 +0100
REM compiler GCC version 9.2.1 20190827 (Red Hat 9.2.1-1)
REM options -cpp -mtune=generic -march=x86-64 -g -O0 -fpre-include=/usr/include/finclude/math-vector-fortran.h
REM seed -696854359 -1130284695 965986028 2072722792 -1517137136 565768440 -1925226206 -1973927257 -1746953364 286058565 44682108 -1525506439 -2080150827 158348715 1580086481 1964141431 -1107194687 -277123612 1285208375 808617831 131136099 2006683087 489571953 -411608025 -1566677111 -589239259 1891286094 1458304483 660219307 -1738072378 1482162508 -2070652972 -302683892
REM
CELL 1.54180   50.00000   50.00000   50.00000   90.00000   90.00000   90.00000
LATT -1
SFAC C  
C      1  0.5429300000000  0.4892600000000  0.4967180000000 1.0
C      1  0.4328810000000  0.4872120000000  0.5345070000000 1.0
C      1  0.5057220000000  0.5435760000000  0.4853050000000 1.0
C      1  0.5015420000000  0.4628110000000  0.5496030000000 1.0
C      1  0.4472610000000  0.5058250000000  0.5223020000000 1.0
C      1  0.4097820000000  0.4451300000000  0.5569330000000 1.0
C      1  0.5585140000000  0.5081530000000  0.4832280000000 1.0
C      1  0.5520620000000  0.5973260000000  0.4706010000000 1.0
C      1  0.4660970000000  0.4359080000000  0.4934710000000 1.0
C      1  0.5248740000000  0.4745710000000  0.5093430000000 1.0
C      1  0.5416260000000  0.5735150000000  0.4724270000000 1.0
C      1  0.5309680000000  0.5477690000000  0.4741200000000 1.0
C      1  0.5479620000000  0.5206840000000  0.4372020000000 1.0
C      1  0.4847470000000  0.4478550000000  0.5072060000000 1.0
C      1  0.3990770000000  0.4239070000000  0.5676400000000 1.0
C      1  0.5853930000000  0.5100590000000  0.4879250000000 1.0
C      1  0.4208160000000  0.4665910000000  0.5459680000000 1.0
C      1  0.5037240000000  0.4617220000000  0.5223590000000 1.0
C      1  0.4838470000000  0.5345630000000  0.4972200000000 1.0
C      1  0.4643220000000  0.5217240000000  0.5097170000000 1.0
C      1  0.5459270000000  0.5255620000000  0.4646140000000 1.0
C      1  0.5499270000000  0.5162770000000  0.4115930000000 1.0
END
