TITL C-3866674-3872-46 115451.920951255 125000 -944.315997015577 0 0 153 (C1) n - 1
REM
REM in /home/nfs/bkarasulu/CARBON/AIRSS/Generating-Clusters/LCBOP/Only-C1/SD-CG/HFTN-CG/FIRE-CG
REM
REM
REM
REM
REM
REM ./C.cell (11c1c37f851c82e70ff6c80c92926a4b)
REM AIRSS Version 0.9.1 bugfix July 2018 build 013d7b7c2542+ Fri, 06 Jul 2018 19:26:36 +0100
REM compiler GCC version 9.2.1 20190827 (Red Hat 9.2.1-1)
REM options -cpp -mtune=generic -march=x86-64 -g -O0 -fpre-include=/usr/include/finclude/math-vector-fortran.h
REM seed 1661249923 -1979493181 1841137227 -280778665 679030797 -434719434 1130291641 -1045721846 -366086802 269157097 849140768 1559349531 -1526353273 -1643626827 849989108 66893177 758136658 -43238040 656886780 -1143673887 1522149071 294050651 -987285480 -176990739 -962302178 970135620 849655177 -818170824 1964281823 553025105 1781624446 1288585175 1856285258
REM
CELL 1.54180   50.00000   50.00000   50.00000   90.00000   90.00000   90.00000
LATT -1
SFAC C  
C      1  0.5376180000000  0.4097140000000  0.5356790000000 1.0
C      1  0.4610450000000  0.5058000000000  0.4209520000000 1.0
C      1  0.3963200000000  0.4685590000000  0.5068420000000 1.0
C      1  0.6221130000000  0.4930870000000  0.4550920000000 1.0
C      1  0.4191000000000  0.5077450000000  0.5269870000000 1.0
C      1  0.4636440000000  0.5049880000000  0.4780970000000 1.0
C      1  0.4297500000000  0.5900790000000  0.4765920000000 1.0
C      1  0.5017800000000  0.5485070000000  0.5016150000000 1.0
C      1  0.5285570000000  0.5393770000000  0.4614050000000 1.0
C      1  0.5755390000000  0.4769390000000  0.3993120000000 1.0
C      1  0.4535360000000  0.4558460000000  0.5919410000000 1.0
C      1  0.5248400000000  0.4017590000000  0.5597210000000 1.0
C      1  0.5374270000000  0.5862970000000  0.3862390000000 1.0
C      1  0.4525290000000  0.4839510000000  0.4589980000000 1.0
C      1  0.5080000000000  0.4958090000000  0.5479220000000 1.0
C      1  0.3994120000000  0.5327760000000  0.4350930000000 1.0
C      1  0.5006310000000  0.4057730000000  0.5034700000000 1.0
C      1  0.5600430000000  0.5876870000000  0.4487190000000 1.0
C      1  0.4791290000000  0.5716580000000  0.5714710000000 1.0
C      1  0.5217790000000  0.3750430000000  0.5667990000000 1.0
C      1  0.4806230000000  0.5273260000000  0.4617050000000 1.0
C      1  0.5778450000000  0.4261010000000  0.4302160000000 1.0
C      1  0.3924220000000  0.4918560000000  0.4621530000000 1.0
C      1  0.4279760000000  0.5528570000000  0.5134980000000 1.0
C      1  0.4399420000000  0.5128900000000  0.5755230000000 1.0
C      1  0.3958110000000  0.4670610000000  0.4772880000000 1.0
C      1  0.5631550000000  0.4975390000000  0.5714590000000 1.0
C      1  0.3970760000000  0.5586140000000  0.4462490000000 1.0
C      1  0.5622830000000  0.6436700000000  0.4865170000000 1.0
C      1  0.5109860000000  0.5061100000000  0.4989920000000 1.0
C      1  0.4795250000000  0.5956620000000  0.4785150000000 1.0
C      1  0.4121470000000  0.5497930000000  0.4900650000000 1.0
C      1  0.6048240000000  0.5180510000000  0.4929490000000 1.0
C      1  0.4890630000000  0.4238720000000  0.5847710000000 1.0
C      1  0.4242830000000  0.5310380000000  0.4722990000000 1.0
C      1  0.4701090000000  0.4420790000000  0.5734060000000 1.0
C      1  0.4807170000000  0.4065110000000  0.6043400000000 1.0
C      1  0.4377840000000  0.4956490000000  0.4366270000000 1.0
C      1  0.5461800000000  0.5203680000000  0.5749010000000 1.0
C      1  0.4071520000000  0.5720340000000  0.4709300000000 1.0
C      1  0.5425210000000  0.6260130000000  0.4868350000000 1.0
C      1  0.5263840000000  0.5173340000000  0.5956010000000 1.0
C      1  0.6128900000000  0.4923370000000  0.4819180000000 1.0
C      1  0.5240620000000  0.4908840000000  0.6054010000000 1.0
C      1  0.4560300000000  0.3874820000000  0.5023240000000 1.0
C      1  0.5586520000000  0.4461420000000  0.4822160000000 1.0
C      1  0.4161340000000  0.4026260000000  0.5313390000000 1.0
C      1  0.5150190000000  0.4714320000000  0.5348940000000 1.0
C      1  0.5810000000000  0.5847840000000  0.4652460000000 1.0
C      1  0.5877930000000  0.4503870000000  0.4411200000000 1.0
C      1  0.5408400000000  0.4702720000000  0.5204850000000 1.0
C      1  0.5933370000000  0.4745600000000  0.5414890000000 1.0
C      1  0.4229620000000  0.5351060000000  0.5356450000000 1.0
C      1  0.4431040000000  0.4416780000000  0.5303250000000 1.0
C      1  0.5073300000000  0.5381120000000  0.6010140000000 1.0
C      1  0.5515580000000  0.4629620000000  0.3939980000000 1.0
C      1  0.5432100000000  0.5318120000000  0.5276600000000 1.0
C      1  0.4653830000000  0.5018810000000  0.5681730000000 1.0
C      1  0.4167320000000  0.4307790000000  0.5349750000000 1.0
C      1  0.4471600000000  0.6133580000000  0.5201660000000 1.0
C      1  0.5521250000000  0.5429260000000  0.4001230000000 1.0
C      1  0.4027940000000  0.4232380000000  0.4480590000000 1.0
C      1  0.4908960000000  0.5356980000000  0.6242970000000 1.0
C      1  0.4854250000000  0.5121530000000  0.5514400000000 1.0
C      1  0.5108300000000  0.5830700000000  0.4453800000000 1.0
C      1  0.3938760000000  0.4430360000000  0.4632810000000 1.0
C      1  0.3740880000000  0.5092520000000  0.4760170000000 1.0
C      1  0.3943530000000  0.4470970000000  0.5263000000000 1.0
C      1  0.5904810000000  0.5203320000000  0.4299780000000 1.0
C      1  0.4781220000000  0.5503810000000  0.5160440000000 1.0
C      1  0.5415150000000  0.5408410000000  0.5547180000000 1.0
C      1  0.5597770000000  0.5119940000000  0.3661450000000 1.0
C      1  0.3953040000000  0.4959890000000  0.5168820000000 1.0
C      1  0.5422990000000  0.5690210000000  0.4072670000000 1.0
C      1  0.3757540000000  0.5115380000000  0.5031780000000 1.0
C      1  0.5137970000000  0.5157030000000  0.3791440000000 1.0
C      1  0.4433550000000  0.4948880000000  0.5205450000000 1.0
C      1  0.5444130000000  0.3887230000000  0.4926770000000 1.0
C      1  0.4451520000000  0.4778400000000  0.6077180000000 1.0
C      1  0.5285050000000  0.4650950000000  0.5996390000000 1.0
C      1  0.5726400000000  0.4722420000000  0.5616810000000 1.0
C      1  0.5845600000000  0.4537280000000  0.4696780000000 1.0
C      1  0.5357570000000  0.4497290000000  0.4644080000000 1.0
C      1  0.4671080000000  0.6075370000000  0.5375250000000 1.0
C      1  0.5770280000000  0.5030320000000  0.3872160000000 1.0
C      1  0.5894960000000  0.4604920000000  0.5165250000000 1.0
C      1  0.4779930000000  0.5112830000000  0.6301700000000 1.0
C      1  0.4237240000000  0.4075070000000  0.4433860000000 1.0
C      1  0.4816930000000  0.3870480000000  0.5152700000000 1.0
C      1  0.5631630000000  0.5148800000000  0.5164830000000 1.0
C      1  0.4089210000000  0.5045920000000  0.4409460000000 1.0
C      1  0.5190080000000  0.5297860000000  0.5134840000000 1.0
C      1  0.4878580000000  0.5571050000000  0.6411070000000 1.0
C      1  0.5609300000000  0.4477760000000  0.5140560000000 1.0
C      1  0.4647690000000  0.4908290000000  0.5030280000000 1.0
C      1  0.4846080000000  0.4210390000000  0.4832100000000 1.0
C      1  0.5561350000000  0.4310430000000  0.5383630000000 1.0
C      1  0.5372380000000  0.5798470000000  0.4336230000000 1.0
C      1  0.5758860000000  0.5256310000000  0.4063660000000 1.0
C      1  0.5097930000000  0.4892540000000  0.3831870000000 1.0
C      1  0.4682020000000  0.4459940000000  0.5449870000000 1.0
C      1  0.4384940000000  0.5407290000000  0.4508690000000 1.0
C      1  0.4547510000000  0.5607220000000  0.5050350000000 1.0
C      1  0.5324070000000  0.4292560000000  0.4451840000000 1.0
C      1  0.5235980000000  0.4760110000000  0.4621040000000 1.0
C      1  0.4803710000000  0.4661840000000  0.5033370000000 1.0
C      1  0.4428750000000  0.4454550000000  0.5026900000000 1.0
C      1  0.4862780000000  0.5688420000000  0.4372640000000 1.0
C      1  0.5278920000000  0.4021030000000  0.5099650000000 1.0
C      1  0.5807440000000  0.5309590000000  0.4538360000000 1.0
C      1  0.4575240000000  0.5752800000000  0.4775540000000 1.0
C      1  0.4774350000000  0.5376680000000  0.5412330000000 1.0
C      1  0.5516210000000  0.4917580000000  0.5036070000000 1.0
C      1  0.3696330000000  0.4420020000000  0.5373000000000 1.0
C      1  0.4614750000000  0.4032550000000  0.4782460000000 1.0
C      1  0.4359040000000  0.5378310000000  0.5616370000000 1.0
C      1  0.4627460000000  0.4895720000000  0.6264800000000 1.0
C      1  0.5040200000000  0.5591860000000  0.5818910000000 1.0
C      1  0.4759300000000  0.4654310000000  0.4564480000000 1.0
C      1  0.5040000000000  0.5408820000000  0.4740310000000 1.0
C      1  0.5141400000000  0.5855280000000  0.5432020000000 1.0
C      1  0.4868700000000  0.5082370000000  0.4368280000000 1.0
C      1  0.5307420000000  0.4933040000000  0.4835370000000 1.0
C      1  0.5915670000000  0.5166620000000  0.5179700000000 1.0
C      1  0.4646900000000  0.5533440000000  0.4541420000000 1.0
C      1  0.4468610000000  0.4010690000000  0.4548010000000 1.0
C      1  0.5569620000000  0.4475800000000  0.5629100000000 1.0
C      1  0.5838530000000  0.6582720000000  0.4876110000000 1.0
C      1  0.4865030000000  0.5924550000000  0.5517120000000 1.0
C      1  0.5348180000000  0.4446070000000  0.5813520000000 1.0
C      1  0.4314250000000  0.6095790000000  0.4982130000000 1.0
C      1  0.5249820000000  0.6047540000000  0.4916570000000 1.0
C      1  0.5162410000000  0.4232340000000  0.5765020000000 1.0
C      1  0.6050140000000  0.4957060000000  0.4328050000000 1.0
C      1  0.4989480000000  0.4818430000000  0.4469340000000 1.0
C      1  0.4318620000000  0.3865650000000  0.5163850000000 1.0
C      1  0.5244860000000  0.5636480000000  0.5606050000000 1.0
C      1  0.5533570000000  0.5321560000000  0.4570110000000 1.0
C      1  0.4607630000000  0.5525520000000  0.5607490000000 1.0
C      1  0.5068140000000  0.5963350000000  0.4711040000000 1.0
C      1  0.4277720000000  0.4968350000000  0.5950410000000 1.0
C      1  0.5237060000000  0.5943660000000  0.5181560000000 1.0
C      1  0.5914120000000  0.4724930000000  0.4230140000000 1.0
C      1  0.5522140000000  0.4174410000000  0.4310350000000 1.0
C      1  0.5257430000000  0.4682650000000  0.3886500000000 1.0
C      1  0.4817610000000  0.4494720000000  0.4798040000000 1.0
C      1  0.5973510000000  0.5392220000000  0.4752970000000 1.0
C      1  0.6000930000000  0.4676550000000  0.4900110000000 1.0
C      1  0.6036910000000  0.5007950000000  0.5380580000000 1.0
C      1  0.5971530000000  0.5672900000000  0.4780650000000 1.0
C      1  0.5173980000000  0.3499840000000  0.5724490000000 1.0
C      1  0.4902050000000  0.4573410000000  0.5285830000000 1.0
C      1  0.5387430000000  0.5286770000000  0.3773940000000 1.0
END
