TITL C-3866670-4165-12 0.00926099220983941 125000 -642.396866581954 0 0 108 (C1) n - 1
REM
REM in /home/nfs/bkarasulu/CARBON/AIRSS/Generating-Clusters/LCBOP/Only-C1/SD-CG/HFTN-CG/FIRE-CG
REM
REM
REM
REM
REM
REM ./C.cell (11c1c37f851c82e70ff6c80c92926a4b)
REM AIRSS Version 0.9.1 bugfix July 2018 build 013d7b7c2542+ Fri, 06 Jul 2018 19:26:36 +0100
REM compiler GCC version 9.2.1 20190827 (Red Hat 9.2.1-1)
REM options -cpp -mtune=generic -march=x86-64 -g -O0 -fpre-include=/usr/include/finclude/math-vector-fortran.h
REM seed 1800440647 232283633 -1393338373 1926555547 70249335 216815690 1296725828 1184240889 1625849992 1528290096 -603488043 42867683 721991807 -1260817894 -40019091 -2055954797 -38487553 -305545293 1767286927 -891112145 -620663721 -1489036564 -1576151938 298282867 1054443308 -963557034 -1264234246 -1255770517 1091600090 -2009944427 1578451072 -884744451 -39967027
REM
CELL 1.54180   50.00000   50.00000   50.00000   90.00000   90.00000   90.00000
LATT -1
SFAC C  
C      1  0.5573440000000  0.4839840000000  0.4350580000000 1.0
C      1  0.5339640000000  0.5652110000000  0.5258230000000 1.0
C      1  0.5864510000000  0.4405040000000  0.6151590000000 1.0
C      1  0.5807440000000  0.5203670000000  0.5313040000000 1.0
C      1  0.4553800000000  0.5332490000000  0.5363370000000 1.0
C      1  0.5919360000000  0.4940500000000  0.5322450000000 1.0
C      1  0.5308670000000  0.5163250000000  0.5335840000000 1.0
C      1  0.5043100000000  0.5037080000000  0.5724200000000 1.0
C      1  0.4507110000000  0.4305620000000  0.4319090000000 1.0
C      1  0.5020670000000  0.5626390000000  0.4571060000000 1.0
C      1  0.4976070000000  0.4975320000000  0.4529880000000 1.0
C      1  0.4954100000000  0.4115330000000  0.4364500000000 1.0
C      1  0.4787470000000  0.3999070000000  0.5242290000000 1.0
C      1  0.4680870000000  0.5594640000000  0.5266280000000 1.0
C      1  0.4871980000000  0.4093690000000  0.5495790000000 1.0
C      1  0.4475330000000  0.4146420000000  0.4534710000000 1.0
C      1  0.4528500000000  0.4046930000000  0.4778610000000 1.0
C      1  0.5108060000000  0.4740740000000  0.4144200000000 1.0
C      1  0.5574410000000  0.5315540000000  0.5727080000000 1.0
C      1  0.4435620000000  0.6099860000000  0.4472440000000 1.0
C      1  0.4747740000000  0.5140810000000  0.4542120000000 1.0
C      1  0.5559890000000  0.5247150000000  0.5447530000000 1.0
C      1  0.4423640000000  0.4766370000000  0.4337290000000 1.0
C      1  0.5757540000000  0.4731580000000  0.5211470000000 1.0
C      1  0.4192570000000  0.4875700000000  0.5702320000000 1.0
C      1  0.5194550000000  0.5158170000000  0.5069110000000 1.0
C      1  0.5782070000000  0.4456740000000  0.5330110000000 1.0
C      1  0.4407920000000  0.4706790000000  0.5789360000000 1.0
C      1  0.5178380000000  0.4967320000000  0.5492040000000 1.0
C      1  0.4675960000000  0.4256780000000  0.5636170000000 1.0
C      1  0.4184650000000  0.5139730000000  0.5101790000000 1.0
C      1  0.5532050000000  0.5144990000000  0.4360680000000 1.0
C      1  0.5126230000000  0.5986600000000  0.5048360000000 1.0
C      1  0.5740820000000  0.4700280000000  0.4534710000000 1.0
C      1  0.5528630000000  0.5665370000000  0.4571320000000 1.0
C      1  0.4404680000000  0.4779170000000  0.4867960000000 1.0
C      1  0.5072080000000  0.5676320000000  0.4310860000000 1.0
C      1  0.4594320000000  0.5961220000000  0.5582860000000 1.0
C      1  0.4891960000000  0.4548750000000  0.4134420000000 1.0
C      1  0.6165550000000  0.4892320000000  0.5430430000000 1.0
C      1  0.5718730000000  0.4499920000000  0.4713650000000 1.0
C      1  0.4986170000000  0.5613530000000  0.4850870000000 1.0
C      1  0.5101820000000  0.4184190000000  0.4603140000000 1.0
C      1  0.4890620000000  0.4705180000000  0.5168040000000 1.0
C      1  0.4136770000000  0.4683740000000  0.5224750000000 1.0
C      1  0.5371610000000  0.4371080000000  0.4253150000000 1.0
C      1  0.5199060000000  0.5696250000000  0.5017240000000 1.0
C      1  0.4129730000000  0.5486810000000  0.4469810000000 1.0
C      1  0.5018900000000  0.5558480000000  0.4072680000000 1.0
C      1  0.4948260000000  0.6165700000000  0.4627030000000 1.0
C      1  0.5613840000000  0.4269600000000  0.5488390000000 1.0
C      1  0.4264610000000  0.4998740000000  0.4267550000000 1.0
C      1  0.4493130000000  0.4443430000000  0.5712680000000 1.0
C      1  0.5931780000000  0.5405440000000  0.5176700000000 1.0
C      1  0.5679660000000  0.5129930000000  0.5907270000000 1.0
C      1  0.4760730000000  0.5843110000000  0.5399420000000 1.0
C      1  0.5019710000000  0.5966610000000  0.5334630000000 1.0
C      1  0.5295100000000  0.4536260000000  0.5336960000000 1.0
C      1  0.5336190000000  0.5772990000000  0.5727130000000 1.0
C      1  0.5406430000000  0.4457400000000  0.5589240000000 1.0
C      1  0.4043750000000  0.5753140000000  0.4399640000000 1.0
C      1  0.4392350000000  0.5062360000000  0.4907660000000 1.0
C      1  0.4389070000000  0.5540970000000  0.4589280000000 1.0
C      1  0.4698400000000  0.5305260000000  0.4304600000000 1.0
C      1  0.4004790000000  0.4916860000000  0.5155080000000 1.0
C      1  0.5379580000000  0.4649060000000  0.4208260000000 1.0
C      1  0.5244100000000  0.5825290000000  0.5471000000000 1.0
C      1  0.5560110000000  0.4835740000000  0.5016350000000 1.0
C      1  0.4267460000000  0.5265370000000  0.5349890000000 1.0
C      1  0.5319210000000  0.4953340000000  0.4905140000000 1.0
C      1  0.5401310000000  0.5907650000000  0.4640790000000 1.0
C      1  0.4989090000000  0.4362790000000  0.4792130000000 1.0
C      1  0.4411920000000  0.4682330000000  0.5142470000000 1.0
C      1  0.4380210000000  0.4691410000000  0.4610040000000 1.0
C      1  0.5178780000000  0.6072880000000  0.4771340000000 1.0
C      1  0.4850620000000  0.5343390000000  0.4067700000000 1.0
C      1  0.4532630000000  0.5486700000000  0.4819700000000 1.0
C      1  0.5759170000000  0.4908290000000  0.6028650000000 1.0
C      1  0.5106500000000  0.4734280000000  0.5347230000000 1.0
C      1  0.4691170000000  0.6156060000000  0.4541960000000 1.0
C      1  0.4639910000000  0.5205380000000  0.4820610000000 1.0
C      1  0.4765500000000  0.5029230000000  0.5707420000000 1.0
C      1  0.4167130000000  0.5121650000000  0.5583030000000 1.0
C      1  0.4619330000000  0.4870020000000  0.5884950000000 1.0
C      1  0.4646240000000  0.3994070000000  0.5014060000000 1.0
C      1  0.5217680000000  0.4318900000000  0.5754870000000 1.0
C      1  0.5149200000000  0.4081600000000  0.5589570000000 1.0
C      1  0.4199310000000  0.5978860000000  0.4415810000000 1.0
C      1  0.5103930000000  0.4833110000000  0.4746320000000 1.0
C      1  0.4126680000000  0.5225980000000  0.4342380000000 1.0
C      1  0.5561510000000  0.4380960000000  0.4897750000000 1.0
C      1  0.5590500000000  0.5401630000000  0.4497700000000 1.0
C      1  0.4962650000000  0.4626380000000  0.4894450000000 1.0
C      1  0.5382150000000  0.4405450000000  0.5098170000000 1.0
C      1  0.4642390000000  0.4807140000000  0.5270100000000 1.0
C      1  0.5432680000000  0.4022790000000  0.5475010000000 1.0
C      1  0.5895760000000  0.4147800000000  0.6180080000000 1.0
C      1  0.4909160000000  0.5191890000000  0.4999980000000 1.0
C      1  0.5006520000000  0.4287990000000  0.4152530000000 1.0
C      1  0.5085590000000  0.4985570000000  0.4271170000000 1.0
C      1  0.5286050000000  0.5171670000000  0.4214970000000 1.0
C      1  0.4665510000000  0.5061830000000  0.5436320000000 1.0
C      1  0.5821250000000  0.4662550000000  0.6106000000000 1.0
C      1  0.4725450000000  0.5614200000000  0.4978840000000 1.0
C      1  0.5474060000000  0.5561570000000  0.5816630000000 1.0
C      1  0.4606680000000  0.4563120000000  0.4220120000000 1.0
C      1  0.5366540000000  0.4231330000000  0.4493190000000 1.0
C      1  0.4556210000000  0.5540070000000  0.4362610000000 1.0
END
