TITL C-3866675-3766-362 2.48113643321714e-06 125000 -279.44699077394 0 0 47 (C1) n - 1
REM
REM in /home/nfs/bkarasulu/CARBON/AIRSS/Generating-Clusters/LCBOP/Only-C1/SD-CG/FIRE-CG
REM
REM
REM
REM
REM
REM ./C.cell (11c1c37f851c82e70ff6c80c92926a4b)
REM AIRSS Version 0.9.1 bugfix July 2018 build 013d7b7c2542+ Fri, 06 Jul 2018 19:26:36 +0100
REM compiler GCC version 9.2.1 20190827 (Red Hat 9.2.1-1)
REM options -cpp -mtune=generic -march=x86-64 -g -O0 -fpre-include=/usr/include/finclude/math-vector-fortran.h
REM seed 1347289863 1230137723 65724657 -524707929 115319381 933029120 -119558835 1461738847 -914154 -952438209 -18460929 1988333018 -1660856984 1714239884 849742701 779599097 -545798549 -1908662939 1764146653 1191808428 1478614218 1307814799 324092314 1729740135 -1986893604 -326612059 -22580206 -491245998 556504162 -199847102 -1465999270 1189466995 -831074941
REM
CELL 1.54180   50.00000   50.00000   50.00000   90.00000   90.00000   90.00000
LATT -1
SFAC C  
C      1  0.5307330000000  0.4681000000000  0.4457900000000 1.0
C      1  0.5380620000000  0.4948450000000  0.4443410000000 1.0
C      1  0.5650990000000  0.4910520000000  0.5095620000000 1.0
C      1  0.5042760000000  0.4899570000000  0.5021630000000 1.0
C      1  0.4030630000000  0.4993890000000  0.5417250000000 1.0
C      1  0.4190680000000  0.5296150000000  0.5025410000000 1.0
C      1  0.4543700000000  0.4951870000000  0.5860820000000 1.0
C      1  0.5508720000000  0.5361480000000  0.4290130000000 1.0
C      1  0.5220720000000  0.5108940000000  0.4975480000000 1.0
C      1  0.4781800000000  0.5246550000000  0.4373610000000 1.0
C      1  0.5379230000000  0.4362230000000  0.5271640000000 1.0
C      1  0.5560260000000  0.5073640000000  0.4639160000000 1.0
C      1  0.4801470000000  0.5589840000000  0.5252410000000 1.0
C      1  0.4651720000000  0.5196130000000  0.5869170000000 1.0
C      1  0.4637110000000  0.5008840000000  0.4406970000000 1.0
C      1  0.5255450000000  0.4459080000000  0.4596120000000 1.0
C      1  0.4393850000000  0.5397430000000  0.4886910000000 1.0
C      1  0.5677980000000  0.5310760000000  0.4519140000000 1.0
C      1  0.5894820000000  0.5450330000000  0.4601200000000 1.0
C      1  0.4607040000000  0.4816930000000  0.5232750000000 1.0
C      1  0.4676150000000  0.5957150000000  0.4271090000000 1.0
C      1  0.5157140000000  0.4353810000000  0.5101600000000 1.0
C      1  0.5107590000000  0.5364440000000  0.4959270000000 1.0
C      1  0.6005690000000  0.4531480000000  0.5613780000000 1.0
C      1  0.5788740000000  0.4363180000000  0.5573620000000 1.0
C      1  0.5740850000000  0.4728390000000  0.5283920000000 1.0
C      1  0.4653250000000  0.5462080000000  0.4800500000000 1.0
C      1  0.5490490000000  0.5044730000000  0.4911210000000 1.0
C      1  0.4616330000000  0.4785620000000  0.4550530000000 1.0
C      1  0.4577990000000  0.4662560000000  0.5476260000000 1.0
C      1  0.4756420000000  0.4440600000000  0.5434060000000 1.0
C      1  0.4418670000000  0.4781850000000  0.5674970000000 1.0
C      1  0.4722840000000  0.5415810000000  0.5736190000000 1.0
C      1  0.4859610000000  0.5491920000000  0.4995850000000 1.0
C      1  0.4690040000000  0.5726430000000  0.4391440000000 1.0
C      1  0.5027410000000  0.5231650000000  0.4238100000000 1.0
C      1  0.4814940000000  0.4713400000000  0.5038110000000 1.0
C      1  0.4055750000000  0.5158380000000  0.5208930000000 1.0
C      1  0.4708920000000  0.5479690000000  0.4520880000000 1.0
C      1  0.4153080000000  0.4842460000000  0.5600830000000 1.0
C      1  0.4908450000000  0.4459860000000  0.5188430000000 1.0
C      1  0.5982990000000  0.4750180000000  0.5444370000000 1.0
C      1  0.5296210000000  0.5166250000000  0.4266990000000 1.0
C      1  0.5613600000000  0.4473040000000  0.5368990000000 1.0
C      1  0.4764480000000  0.5556020000000  0.5513800000000 1.0
C      1  0.5203050000000  0.4331350000000  0.4824510000000 1.0
C      1  0.4692450000000  0.4664040000000  0.4775070000000 1.0
END
