TITL C-3866673-4222-335 1.23785990910644 125000 -357.160984671736 0 0 60 (C1) n - 1
REM
REM in /home/nfs/bkarasulu/CARBON/AIRSS/Generating-Clusters/LCBOP/Only-C1/SD-CG/FIRE-CG
REM
REM
REM
REM
REM
REM ./C.cell (11c1c37f851c82e70ff6c80c92926a4b)
REM AIRSS Version 0.9.1 bugfix July 2018 build 013d7b7c2542+ Fri, 06 Jul 2018 19:26:36 +0100
REM compiler GCC version 9.2.1 20190827 (Red Hat 9.2.1-1)
REM options -cpp -mtune=generic -march=x86-64 -g -O0 -fpre-include=/usr/include/finclude/math-vector-fortran.h
REM seed 588600727 1378957842 -1131155358 -1345535406 -1709314275 -1158823180 -1679741605 1921115490 2123414644 50139321 -144848819 583726919 2030324379 166299497 -275003893 945484377 -1614139491 770271977 1669911602 -1001970695 690237017 -1346943263 1510810507 2097591382 81269402 -1244952700 656383261 2073487709 1383598889 -1719247738 213438425 110677608 585223559
REM
CELL 1.54180   50.00000   50.00000   50.00000   90.00000   90.00000   90.00000
LATT -1
SFAC C  
C      1  0.4812960000000  0.4515720000000  0.5207210000000 1.0
C      1  0.5423400000000  0.5125400000000  0.5861500000000 1.0
C      1  0.5086260000000  0.4445600000000  0.5247730000000 1.0
C      1  0.4646690000000  0.5272880000000  0.6260140000000 1.0
C      1  0.5166620000000  0.5013440000000  0.5824890000000 1.0
C      1  0.5252420000000  0.5144870000000  0.4497380000000 1.0
C      1  0.5434090000000  0.5404880000000  0.5804450000000 1.0
C      1  0.5120110000000  0.5724150000000  0.5628060000000 1.0
C      1  0.4295100000000  0.4950080000000  0.4509380000000 1.0
C      1  0.5674440000000  0.4965830000000  0.4647310000000 1.0
C      1  0.5144330000000  0.4865520000000  0.3800470000000 1.0
C      1  0.5427110000000  0.5322860000000  0.5120050000000 1.0
C      1  0.5358560000000  0.4514940000000  0.2540920000000 1.0
C      1  0.5315710000000  0.4585060000000  0.2792850000000 1.0
C      1  0.5230010000000  0.4725300000000  0.3296720000000 1.0
C      1  0.4085380000000  0.4534440000000  0.5868220000000 1.0
C      1  0.4438460000000  0.4934910000000  0.5961160000000 1.0
C      1  0.5150740000000  0.5784720000000  0.6546840000000 1.0
C      1  0.4599170000000  0.5042390000000  0.5748140000000 1.0
C      1  0.4252270000000  0.4732540000000  0.5923530000000 1.0
C      1  0.3921740000000  0.4335210000000  0.5806710000000 1.0
C      1  0.4519930000000  0.4635860000000  0.4773550000000 1.0
C      1  0.5633250000000  0.4938780000000  0.5823330000000 1.0
C      1  0.5204870000000  0.4887110000000  0.5362400000000 1.0
C      1  0.4784090000000  0.5403910000000  0.6048170000000 1.0
C      1  0.5290210000000  0.4613810000000  0.5346740000000 1.0
C      1  0.4104420000000  0.4780030000000  0.4617470000000 1.0
C      1  0.5025640000000  0.5550120000000  0.6077240000000 1.0
C      1  0.5570060000000  0.5478460000000  0.5563780000000 1.0
C      1  0.4797180000000  0.4961020000000  0.4470980000000 1.0
C      1  0.4689960000000  0.5310780000000  0.5794970000000 1.0
C      1  0.4889880000000  0.5351990000000  0.4761740000000 1.0
C      1  0.5511820000000  0.5369670000000  0.4853860000000 1.0
C      1  0.5272860000000  0.4655180000000  0.3044790000000 1.0
C      1  0.3761180000000  0.4139190000000  0.5745400000000 1.0
C      1  0.5308320000000  0.5079110000000  0.5190970000000 1.0
C      1  0.5443580000000  0.4375820000000  0.2041070000000 1.0
C      1  0.5425930000000  0.5521950000000  0.5322120000000 1.0
C      1  0.4688360000000  0.4667270000000  0.5412980000000 1.0
C      1  0.5099500000000  0.4938890000000  0.4063830000000 1.0
C      1  0.5525450000000  0.4564620000000  0.5494670000000 1.0
C      1  0.5401420000000  0.4444800000000  0.2288920000000 1.0
C      1  0.5201890000000  0.5572660000000  0.5855850000000 1.0
C      1  0.4486360000000  0.5057670000000  0.6213930000000 1.0
C      1  0.4894330000000  0.5548860000000  0.4940630000000 1.0
C      1  0.5183750000000  0.5675110000000  0.5356650000000 1.0
C      1  0.4979310000000  0.5149040000000  0.4591340000000 1.0
C      1  0.4232150000000  0.4588670000000  0.4772360000000 1.0
C      1  0.4759810000000  0.4882390000000  0.5579020000000 1.0
C      1  0.5621020000000  0.5608760000000  0.4778330000000 1.0
C      1  0.4695370000000  0.4519320000000  0.4953780000000 1.0
C      1  0.5284430000000  0.5081990000000  0.4222270000000 1.0
C      1  0.4998100000000  0.5680610000000  0.5147860000000 1.0
C      1  0.4562880000000  0.4865640000000  0.4589900000000 1.0
C      1  0.5037910000000  0.4941720000000  0.5586170000000 1.0
C      1  0.5089750000000  0.5672720000000  0.6319580000000 1.0
C      1  0.4863360000000  0.4879840000000  0.4206950000000 1.0
C      1  0.5658260000000  0.4711210000000  0.5679340000000 1.0
C      1  0.5480670000000  0.5159240000000  0.4664760000000 1.0
C      1  0.5187160000000  0.4795420000000  0.3548650000000 1.0
END
