TITL C-3866669-3764-640 -0.243441698414422 125000 -242.882005122014 0 0 42 (C1) n - 1
REM
REM in /home/nfs/bkarasulu/CARBON/AIRSS/Generating-Clusters/LCBOP/Only-C1/SD-CG/FIRE-CG
REM
REM
REM
REM
REM
REM ./C.cell (11c1c37f851c82e70ff6c80c92926a4b)
REM AIRSS Version 0.9.1 bugfix July 2018 build 013d7b7c2542+ Fri, 06 Jul 2018 19:26:36 +0100
REM compiler GCC version 9.2.1 20190827 (Red Hat 9.2.1-1)
REM options -cpp -mtune=generic -march=x86-64 -g -O0 -fpre-include=/usr/include/finclude/math-vector-fortran.h
REM seed -1926245986 1869398436 145908275 181739559 -1456472679 1320954181 288435611 1950331479 -1798430218 -1674345280 -1639581951 -1645048352 -731421945 -1013808738 527280990 1918179347 -1592668941 -2094134289 1432757534 2136716951 -1600315588 1098261968 -2081313213 160663091 692785283 246983528 -1267948691 -1565846155 -304700270 2090134897 -544402666 1535647176 -461926390
REM
CELL 1.54180   50.00000   50.00000   50.00000   90.00000   90.00000   90.00000
LATT -1
SFAC C  
C      1  0.6256230000000  0.5211810000000  0.5190440000000 1.0
C      1  0.4190360000000  0.5144830000000  0.4535890000000 1.0
C      1  0.3818880000000  0.5720850000000  0.4679160000000 1.0
C      1  0.4395980000000  0.4984430000000  0.4439920000000 1.0
C      1  0.5680110000000  0.4468970000000  0.5733690000000 1.0
C      1  0.3730070000000  0.5174640000000  0.5053440000000 1.0
C      1  0.5464130000000  0.4419200000000  0.5881920000000 1.0
C      1  0.5948610000000  0.4788890000000  0.5107420000000 1.0
C      1  0.4474670000000  0.5411070000000  0.5175810000000 1.0
C      1  0.5712150000000  0.5440950000000  0.5454910000000 1.0
C      1  0.3596780000000  0.5307430000000  0.4829180000000 1.0
C      1  0.5205770000000  0.4484440000000  0.5897300000000 1.0
C      1  0.4615870000000  0.4844580000000  0.4392330000000 1.0
C      1  0.5246800000000  0.4472530000000  0.4268680000000 1.0
C      1  0.4052310000000  0.5647380000000  0.4567270000000 1.0
C      1  0.4851700000000  0.4723860000000  0.4393740000000 1.0
C      1  0.5268600000000  0.4758170000000  0.4952950000000 1.0
C      1  0.5104640000000  0.4622870000000  0.4456080000000 1.0
C      1  0.5035490000000  0.4940220000000  0.5339260000000 1.0
C      1  0.4970380000000  0.4796580000000  0.5570210000000 1.0
C      1  0.4918840000000  0.5460460000000  0.4607030000000 1.0
C      1  0.4815010000000  0.5396600000000  0.4837370000000 1.0
C      1  0.3944310000000  0.5020850000000  0.4961840000000 1.0
C      1  0.3613850000000  0.5586070000000  0.4792650000000 1.0
C      1  0.3965130000000  0.5038020000000  0.4670420000000 1.0
C      1  0.5929990000000  0.4610570000000  0.4893480000000 1.0
C      1  0.4194320000000  0.5426680000000  0.4510730000000 1.0
C      1  0.4714150000000  0.5315100000000  0.5085180000000 1.0
C      1  0.6158900000000  0.4973740000000  0.5120470000000 1.0
C      1  0.5022280000000  0.4632360000000  0.5772760000000 1.0
C      1  0.5529510000000  0.4965280000000  0.5309870000000 1.0
C      1  0.5385260000000  0.4332470000000  0.4097990000000 1.0
C      1  0.5279140000000  0.4885110000000  0.5201650000000 1.0
C      1  0.6185070000000  0.5440880000000  0.5308950000000 1.0
C      1  0.5776380000000  0.4603840000000  0.5525650000000 1.0
C      1  0.5898890000000  0.4447150000000  0.4692860000000 1.0
C      1  0.5751840000000  0.4784980000000  0.5313490000000 1.0
C      1  0.4861730000000  0.5134070000000  0.5238690000000 1.0
C      1  0.3699540000000  0.5147130000000  0.4602690000000 1.0
C      1  0.5959660000000  0.5535780000000  0.5418530000000 1.0
C      1  0.5214310000000  0.4674100000000  0.4707860000000 1.0
C      1  0.5562380000000  0.5225070000000  0.5410250000000 1.0
END
