TITL C-3866675-3766-196 -70.8742174820285 125000 -411.673710500602 0 0 70 (C1) n - 1
REM
REM in /home/nfs/bkarasulu/CARBON/AIRSS/Generating-Clusters/LCBOP/Only-C1/SD-CG/HFTN-CG/FIRE-CG
REM
REM
REM
REM
REM
REM ./C.cell (11c1c37f851c82e70ff6c80c92926a4b)
REM AIRSS Version 0.9.1 bugfix July 2018 build 013d7b7c2542+ Fri, 06 Jul 2018 19:26:36 +0100
REM compiler GCC version 9.2.1 20190827 (Red Hat 9.2.1-1)
REM options -cpp -mtune=generic -march=x86-64 -g -O0 -fpre-include=/usr/include/finclude/math-vector-fortran.h
REM seed -22317691 301431044 872226184 1022564246 441247215 1902586152 542273989 -1176713234 1375412750 -860353038 143064452 350849672 1848049363 2085824412 1142193141 1478054017 -28666418 -54540878 -535714274 205647481 -780416786 1566392465 -1227402012 -1194716657 1597389272 1833512222 -1030386525 854575589 167083967 1980048497 1948557242 1777782191 -888366288
REM
CELL 1.54180   50.00000   50.00000   50.00000   90.00000   90.00000   90.00000
LATT -1
SFAC C  
C      1  0.5603210000000  0.4700200000000  0.5259580000000 1.0
C      1  0.5523110000000  0.5202580000000  0.6046460000000 1.0
C      1  0.4698140000000  0.5544150000000  0.6485130000000 1.0
C      1  0.5672990000000  0.5540900000000  0.4086750000000 1.0
C      1  0.4917470000000  0.3844990000000  0.4105790000000 1.0
C      1  0.4607630000000  0.5615250000000  0.6251320000000 1.0
C      1  0.5144500000000  0.2883110000000  0.3208490000000 1.0
C      1  0.3633230000000  0.5455270000000  0.5627740000000 1.0
C      1  0.5682660000000  0.5032770000000  0.5918670000000 1.0
C      1  0.5419660000000  0.5800190000000  0.4486310000000 1.0
C      1  0.3991150000000  0.4746800000000  0.5079870000000 1.0
C      1  0.5543920000000  0.6016180000000  0.5145870000000 1.0
C      1  0.5798770000000  0.4941000000000  0.5681410000000 1.0
C      1  0.5128200000000  0.4003790000000  0.4197500000000 1.0
C      1  0.3497350000000  0.3878730000000  0.4479480000000 1.0
C      1  0.4636360000000  0.6151880000000  0.5892890000000 1.0
C      1  0.6472500000000  0.4846070000000  0.5573580000000 1.0
C      1  0.4299460000000  0.5576830000000  0.5879210000000 1.0
C      1  0.4658250000000  0.5830980000000  0.4939450000000 1.0
C      1  0.4426700000000  0.3952910000000  0.4312240000000 1.0
C      1  0.3972640000000  0.4949090000000  0.5250080000000 1.0
C      1  0.5428310000000  0.4361720000000  0.4443600000000 1.0
C      1  0.4676280000000  0.5884520000000  0.5850620000000 1.0
C      1  0.5718740000000  0.4732050000000  0.5005190000000 1.0
C      1  0.5545920000000  0.6052010000000  0.4883240000000 1.0
C      1  0.5100190000000  0.3070960000000  0.3383740000000 1.0
C      1  0.4930900000000  0.5826120000000  0.4534560000000 1.0
C      1  0.5653100000000  0.4771570000000  0.5511850000000 1.0
C      1  0.5559860000000  0.4769350000000  0.4774570000000 1.0
C      1  0.4867200000000  0.5795220000000  0.5660730000000 1.0
C      1  0.5296590000000  0.4174880000000  0.4309540000000 1.0
C      1  0.5798240000000  0.5785340000000  0.5486240000000 1.0
C      1  0.5336280000000  0.5895530000000  0.5569000000000 1.0
C      1  0.5613030000000  0.6242950000000  0.4447250000000 1.0
C      1  0.3939350000000  0.5149510000000  0.5420080000000 1.0
C      1  0.4526230000000  0.5691240000000  0.5995240000000 1.0
C      1  0.5357360000000  0.5410130000000  0.6052190000000 1.0
C      1  0.5438790000000  0.5018020000000  0.4731970000000 1.0
C      1  0.5055140000000  0.3261960000000  0.3561930000000 1.0
C      1  0.3730470000000  0.3997460000000  0.4520930000000 1.0
C      1  0.4098190000000  0.5468350000000  0.5745720000000 1.0
C      1  0.4965060000000  0.3643780000000  0.3918110000000 1.0
C      1  0.4811900000000  0.5687020000000  0.5127730000000 1.0
C      1  0.5010100000000  0.3452910000000  0.3740060000000 1.0
C      1  0.5318790000000  0.5253760000000  0.4748180000000 1.0
C      1  0.5551070000000  0.5671260000000  0.4276620000000 1.0
C      1  0.5997550000000  0.4768370000000  0.5006450000000 1.0
C      1  0.5529310000000  0.6035100000000  0.4604260000000 1.0
C      1  0.3997310000000  0.4543360000000  0.4910130000000 1.0
C      1  0.5176130000000  0.5697320000000  0.4587960000000 1.0
C      1  0.5966830000000  0.5590700000000  0.5549690000000 1.0
C      1  0.6037780000000  0.5063240000000  0.5582820000000 1.0
C      1  0.5176530000000  0.5490460000000  0.4786540000000 1.0
C      1  0.6054010000000  0.5342780000000  0.5585710000000 1.0
C      1  0.5141780000000  0.5775130000000  0.5730420000000 1.0
C      1  0.5517540000000  0.4558910000000  0.4596350000000 1.0
C      1  0.4204860000000  0.4032700000000  0.4433020000000 1.0
C      1  0.3992470000000  0.4339170000000  0.4741440000000 1.0
C      1  0.4658930000000  0.3888150000000  0.4202480000000 1.0
C      1  0.4714490000000  0.5887480000000  0.4682040000000 1.0
C      1  0.6186730000000  0.4833400000000  0.5183730000000 1.0
C      1  0.3887480000000  0.5358770000000  0.5598180000000 1.0
C      1  0.5020030000000  0.5531690000000  0.5017290000000 1.0
C      1  0.5223020000000  0.5610600000000  0.5941500000000 1.0
C      1  0.4788070000000  0.5725710000000  0.5401830000000 1.0
C      1  0.3034540000000  0.3643160000000  0.4397370000000 1.0
C      1  0.3975980000000  0.4123130000000  0.4565130000000 1.0
C      1  0.6238940000000  0.4912410000000  0.5448430000000 1.0
C      1  0.5560630000000  0.5906980000000  0.5402430000000 1.0
C      1  0.3264030000000  0.3759970000000  0.4438080000000 1.0
END
