TITL C-3866676-3738-501 0.000630507636534897 125000 -324.793129412885 0 0 54 (C1) n - 1
REM
REM in /home/nfs/bkarasulu/CARBON/AIRSS/Generating-Clusters/LCBOP/Only-C1/SD-CG/FIRE-CG
REM
REM
REM
REM
REM
REM ./C.cell (11c1c37f851c82e70ff6c80c92926a4b)
REM AIRSS Version 0.9.1 bugfix July 2018 build 013d7b7c2542+ Fri, 06 Jul 2018 19:26:36 +0100
REM compiler GCC version 9.2.1 20190827 (Red Hat 9.2.1-1)
REM options -cpp -mtune=generic -march=x86-64 -g -O0 -fpre-include=/usr/include/finclude/math-vector-fortran.h
REM seed 1310718981 1463289921 -103127575 1386181420 531834064 1318227246 -1899562859 -1733987184 -1090160449 1070601540 -1468734341 544677866 -1447065487 -958436869 1835712726 -1201375730 284756568 -2027976347 -1562233782 -757824226 -1206230589 369254644 -1462737317 697485757 1362197007 -1789254201 -1602467503 -2003257444 1450144397 958816154 707498120 -733815303 1646590549
REM
CELL 1.54180   50.00000   50.00000   50.00000   90.00000   90.00000   90.00000
LATT -1
SFAC C  
C      1  0.5241020000000  0.5343960000000  0.4843510000000 1.0
C      1  0.4405950000000  0.4982620000000  0.6106840000000 1.0
C      1  0.4465620000000  0.4684170000000  0.5732960000000 1.0
C      1  0.5985570000000  0.4804590000000  0.5332050000000 1.0
C      1  0.5404870000000  0.4923850000000  0.5482710000000 1.0
C      1  0.4531780000000  0.4897750000000  0.4620430000000 1.0
C      1  0.4497170000000  0.4941090000000  0.4350740000000 1.0
C      1  0.4988520000000  0.4954870000000  0.4791520000000 1.0
C      1  0.4953050000000  0.4762760000000  0.5717340000000 1.0
C      1  0.5285460000000  0.5023360000000  0.3965250000000 1.0
C      1  0.5024350000000  0.5023450000000  0.3919560000000 1.0
C      1  0.5698210000000  0.5134920000000  0.4750890000000 1.0
C      1  0.5760010000000  0.4669200000000  0.5270810000000 1.0
C      1  0.4305060000000  0.5195850000000  0.4971800000000 1.0
C      1  0.4218640000000  0.5908070000000  0.4838190000000 1.0
C      1  0.4836550000000  0.4487880000000  0.5156220000000 1.0
C      1  0.5554550000000  0.5602740000000  0.5138680000000 1.0
C      1  0.4417740000000  0.4726740000000  0.6009860000000 1.0
C      1  0.4345910000000  0.4940950000000  0.4835250000000 1.0
C      1  0.4455540000000  0.5421960000000  0.4892390000000 1.0
C      1  0.4970540000000  0.5246990000000  0.4812400000000 1.0
C      1  0.4103590000000  0.6140670000000  0.4813230000000 1.0
C      1  0.5334010000000  0.5566880000000  0.4986320000000 1.0
C      1  0.6253140000000  0.4692150000000  0.4639430000000 1.0
C      1  0.5486810000000  0.4741740000000  0.5273640000000 1.0
C      1  0.5849860000000  0.5303290000000  0.4919280000000 1.0
C      1  0.4008550000000  0.4598360000000  0.5597090000000 1.0
C      1  0.4295870000000  0.4846630000000  0.5302910000000 1.0
C      1  0.5700240000000  0.5003830000000  0.4283540000000 1.0
C      1  0.4763600000000  0.4789960000000  0.4760190000000 1.0
C      1  0.5518790000000  0.5015410000000  0.4090790000000 1.0
C      1  0.4665060000000  0.4636030000000  0.4988900000000 1.0
C      1  0.4402020000000  0.4740430000000  0.5055470000000 1.0
C      1  0.4725470000000  0.4618000000000  0.5641450000000 1.0
C      1  0.5111380000000  0.4485330000000  0.5094280000000 1.0
C      1  0.4335300000000  0.5671590000000  0.4863810000000 1.0
C      1  0.4510410000000  0.4991090000000  0.4075950000000 1.0
C      1  0.5559300000000  0.5158700000000  0.5514080000000 1.0
C      1  0.5770560000000  0.5421630000000  0.5165020000000 1.0
C      1  0.4252880000000  0.4710480000000  0.5544520000000 1.0
C      1  0.5308150000000  0.4684210000000  0.5059730000000 1.0
C      1  0.5797880000000  0.5253800000000  0.5393510000000 1.0
C      1  0.4731040000000  0.5386680000000  0.4841290000000 1.0
C      1  0.5422730000000  0.5114060000000  0.4809580000000 1.0
C      1  0.6011610000000  0.5066190000000  0.5397950000000 1.0
C      1  0.5262100000000  0.4876670000000  0.4855730000000 1.0
C      1  0.4239570000000  0.5124980000000  0.5244590000000 1.0
C      1  0.4384390000000  0.4511380000000  0.6175750000000 1.0
C      1  0.4756460000000  0.4445040000000  0.5421600000000 1.0
C      1  0.4762110000000  0.5013360000000  0.3956160000000 1.0
C      1  0.4282290000000  0.5017790000000  0.3927790000000 1.0
C      1  0.5816670000000  0.4992330000000  0.4537170000000 1.0
C      1  0.5187800000000  0.4866800000000  0.5648390000000 1.0
C      1  0.6044250000000  0.4836780000000  0.4581460000000 1.0
END
