TITL C-3866674-3872-447 13248.744963546 125000 -715.904201891158 0 0 119 (C1) n - 1
REM
REM in /home/nfs/bkarasulu/CARBON/AIRSS/Generating-Clusters/LCBOP/Only-C1/SD-CG/FIRE-CG
REM
REM
REM
REM
REM
REM ./C.cell (11c1c37f851c82e70ff6c80c92926a4b)
REM AIRSS Version 0.9.1 bugfix July 2018 build 013d7b7c2542+ Fri, 06 Jul 2018 19:26:36 +0100
REM compiler GCC version 9.2.1 20190827 (Red Hat 9.2.1-1)
REM options -cpp -mtune=generic -march=x86-64 -g -O0 -fpre-include=/usr/include/finclude/math-vector-fortran.h
REM seed -1624015934 2013696289 1541381566 -2030954857 -602922134 -1544692728 -1232266212 1997190633 1574904937 143091706 -1216365679 526589942 -855246712 314714190 1390423194 1838651658 1061111238 -1389280163 931289441 882687293 -743157719 57271793 1798703395 -1340667824 2139375699 1826602443 764039208 -1346285097 -54527332 1150158935 1899313755 -747373871 -852549820
REM
CELL 1.54180   50.00000   50.00000   50.00000   90.00000   90.00000   90.00000
LATT -1
SFAC C  
C      1  0.4843830000000  0.5071470000000  0.4595410000000 1.0
C      1  0.4878130000000  0.5528880000000  0.4854650000000 1.0
C      1  0.4682520000000  0.5726050000000  0.5271830000000 1.0
C      1  0.4439150000000  0.5102680000000  0.5867530000000 1.0
C      1  0.5672040000000  0.4322680000000  0.5072240000000 1.0
C      1  0.5966270000000  0.4707440000000  0.5305210000000 1.0
C      1  0.5048420000000  0.5015630000000  0.5569750000000 1.0
C      1  0.5051160000000  0.4512210000000  0.4689470000000 1.0
C      1  0.5033130000000  0.5950650000000  0.4633460000000 1.0
C      1  0.4433830000000  0.4570790000000  0.5003920000000 1.0
C      1  0.4772290000000  0.4152220000000  0.5424280000000 1.0
C      1  0.5790480000000  0.4506300000000  0.5494970000000 1.0
C      1  0.5389450000000  0.4065770000000  0.5377310000000 1.0
C      1  0.5272310000000  0.4880100000000  0.4407880000000 1.0
C      1  0.4376440000000  0.5142050000000  0.5299860000000 1.0
C      1  0.4977170000000  0.5890060000000  0.4355290000000 1.0
C      1  0.4944830000000  0.4140540000000  0.5655420000000 1.0
C      1  0.4155380000000  0.5033350000000  0.4610520000000 1.0
C      1  0.4850430000000  0.4235460000000  0.4179000000000 1.0
C      1  0.4470080000000  0.5595660000000  0.5711270000000 1.0
C      1  0.4186210000000  0.4062720000000  0.4698810000000 1.0
C      1  0.5298560000000  0.4590940000000  0.6083220000000 1.0
C      1  0.4662290000000  0.4660200000000  0.5483150000000 1.0
C      1  0.5145230000000  0.5454950000000  0.4983530000000 1.0
C      1  0.4821880000000  0.5360610000000  0.4595020000000 1.0
C      1  0.4347370000000  0.5343000000000  0.5735160000000 1.0
C      1  0.4907010000000  0.5900340000000  0.2866940000000 1.0
C      1  0.5828360000000  0.4679690000000  0.4788980000000 1.0
C      1  0.5748370000000  0.4720490000000  0.4516270000000 1.0
C      1  0.4757390000000  0.5722630000000  0.4294900000000 1.0
C      1  0.4132580000000  0.5533120000000  0.3898770000000 1.0
C      1  0.5405480000000  0.4742040000000  0.4971180000000 1.0
C      1  0.5203090000000  0.4116930000000  0.5139980000000 1.0
C      1  0.5727450000000  0.4619460000000  0.5775510000000 1.0
C      1  0.4666720000000  0.5491550000000  0.5090630000000 1.0
C      1  0.5648310000000  0.5180370000000  0.4557690000000 1.0
C      1  0.4080240000000  0.5270550000000  0.4741270000000 1.0
C      1  0.4852930000000  0.4884870000000  0.6112660000000 1.0
C      1  0.5991650000000  0.5107490000000  0.4897560000000 1.0
C      1  0.4084560000000  0.4773670000000  0.4741790000000 1.0
C      1  0.4846670000000  0.4270110000000  0.4764850000000 1.0
C      1  0.4936050000000  0.5030610000000  0.5020920000000 1.0
C      1  0.5719460000000  0.4482090000000  0.4373000000000 1.0
C      1  0.4829720000000  0.4337350000000  0.5835420000000 1.0
C      1  0.5247560000000  0.4492560000000  0.5432650000000 1.0
C      1  0.5079080000000  0.5975280000000  0.3634800000000 1.0
C      1  0.4437090000000  0.5323870000000  0.4293500000000 1.0
C      1  0.5188570000000  0.5928860000000  0.4163570000000 1.0
C      1  0.4727610000000  0.5070370000000  0.5933030000000 1.0
C      1  0.5711550000000  0.5252670000000  0.5394160000000 1.0
C      1  0.4225030000000  0.5398390000000  0.4925340000000 1.0
C      1  0.4933220000000  0.5665840000000  0.5687090000000 1.0
C      1  0.4546500000000  0.4783180000000  0.4888280000000 1.0
C      1  0.5978470000000  0.4831750000000  0.4969870000000 1.0
C      1  0.4074280000000  0.4823970000000  0.5576880000000 1.0
C      1  0.4607570000000  0.4293600000000  0.4594250000000 1.0
C      1  0.4360630000000  0.5066950000000  0.4400020000000 1.0
C      1  0.3996170000000  0.4781170000000  0.5028690000000 1.0
C      1  0.4458430000000  0.4818360000000  0.4295220000000 1.0
C      1  0.5784840000000  0.4895320000000  0.5847800000000 1.0
C      1  0.5523770000000  0.5933050000000  0.4540420000000 1.0
C      1  0.4994560000000  0.4069640000000  0.4934640000000 1.0
C      1  0.4319830000000  0.4295010000000  0.4640210000000 1.0
C      1  0.4728220000000  0.4986370000000  0.4839110000000 1.0
C      1  0.4669670000000  0.4389590000000  0.5338560000000 1.0
C      1  0.5502640000000  0.5074410000000  0.5321870000000 1.0
C      1  0.5243640000000  0.4328970000000  0.4465270000000 1.0
C      1  0.5213710000000  0.4042830000000  0.5613070000000 1.0
C      1  0.5978510000000  0.5173420000000  0.5427290000000 1.0
C      1  0.5517380000000  0.4317480000000  0.4432140000000 1.0
C      1  0.5137340000000  0.4605500000000  0.4977750000000 1.0
C      1  0.5620220000000  0.4560370000000  0.4933920000000 1.0
C      1  0.4963240000000  0.5932210000000  0.3119500000000 1.0
C      1  0.4771440000000  0.5934800000000  0.5090700000000 1.0
C      1  0.4439560000000  0.5326070000000  0.5091900000000 1.0
C      1  0.4173420000000  0.4540400000000  0.4574980000000 1.0
C      1  0.4283030000000  0.4386840000000  0.5115980000000 1.0
C      1  0.5177750000000  0.5176060000000  0.4991610000000 1.0
C      1  0.4912560000000  0.4807380000000  0.5426210000000 1.0
C      1  0.5552390000000  0.4930800000000  0.4468900000000 1.0
C      1  0.5302330000000  0.6018480000000  0.4695410000000 1.0
C      1  0.5049740000000  0.5441200000000  0.5809160000000 1.0
C      1  0.4927910000000  0.5187680000000  0.5759130000000 1.0
C      1  0.4686780000000  0.4399690000000  0.4335010000000 1.0
C      1  0.4468670000000  0.4876910000000  0.5370520000000 1.0
C      1  0.4268110000000  0.4861460000000  0.5805700000000 1.0
C      1  0.5020750000000  0.5960050000000  0.3376750000000 1.0
C      1  0.3995300000000  0.4795060000000  0.5308500000000 1.0
C      1  0.5407200000000  0.5018460000000  0.5060280000000 1.0
C      1  0.5100480000000  0.4192450000000  0.4265350000000 1.0
C      1  0.5704010000000  0.5150250000000  0.5898080000000 1.0
C      1  0.4280200000000  0.5432090000000  0.4088270000000 1.0
C      1  0.4717470000000  0.4687250000000  0.4324200000000 1.0
C      1  0.5448030000000  0.5642470000000  0.5382340000000 1.0
C      1  0.6084700000000  0.4925860000000  0.5437510000000 1.0
C      1  0.5073560000000  0.4729220000000  0.6142170000000 1.0
C      1  0.4685830000000  0.5696630000000  0.5555470000000 1.0
C      1  0.5607560000000  0.5471420000000  0.5542700000000 1.0
C      1  0.4876150000000  0.5837310000000  0.4838240000000 1.0
C      1  0.5136400000000  0.5969140000000  0.3893330000000 1.0
C      1  0.5330940000000  0.4971250000000  0.5527670000000 1.0
C      1  0.4240960000000  0.4628290000000  0.4308510000000 1.0
C      1  0.5842460000000  0.5290090000000  0.4734820000000 1.0
C      1  0.4215430000000  0.5270010000000  0.5496740000000 1.0
C      1  0.4642330000000  0.4548810000000  0.5769870000000 1.0
C      1  0.5179610000000  0.4398150000000  0.5177980000000 1.0
C      1  0.4978770000000  0.4793530000000  0.5152330000000 1.0
C      1  0.5562880000000  0.5387780000000  0.5816260000000 1.0
C      1  0.5524380000000  0.4513760000000  0.5952630000000 1.0
C      1  0.4399080000000  0.4622400000000  0.5893530000000 1.0
C      1  0.4975610000000  0.4798130000000  0.4479290000000 1.0
C      1  0.4664610000000  0.5472780000000  0.4385950000000 1.0
C      1  0.5739900000000  0.5795860000000  0.4652760000000 1.0
C      1  0.5355630000000  0.4694240000000  0.5564330000000 1.0
C      1  0.5454060000000  0.5922360000000  0.4265790000000 1.0
C      1  0.5640220000000  0.4261360000000  0.5358740000000 1.0
C      1  0.5308610000000  0.5450340000000  0.5918860000000 1.0
C      1  0.5293320000000  0.5618270000000  0.5161970000000 1.0
C      1  0.5855640000000  0.5570320000000  0.4738210000000 1.0
END
