TITL C-3866669-3764-176 0.173566090632018 125000 -122.618047667087 0 0 23 (C1) n - 1
REM
REM in /home/nfs/bkarasulu/CARBON/AIRSS/Generating-Clusters/LCBOP/Only-C1/SD-CG/HFTN-CG/FIRE-CG
REM
REM
REM
REM
REM
REM ./C.cell (11c1c37f851c82e70ff6c80c92926a4b)
REM AIRSS Version 0.9.1 bugfix July 2018 build 013d7b7c2542+ Fri, 06 Jul 2018 19:26:36 +0100
REM compiler GCC version 9.2.1 20190827 (Red Hat 9.2.1-1)
REM options -cpp -mtune=generic -march=x86-64 -g -O0 -fpre-include=/usr/include/finclude/math-vector-fortran.h
REM seed 91315754 1365804406 -1573420864 69444823 -1089697349 -1939244975 1699315540 -502374843 295435350 -2123617814 -1339784620 -559615278 643598748 -1511726881 492777021 -1699833393 -367638069 -767501139 -21526841 1083881740 -199665867 1942919748 -314843798 1759427163 -1234068712 1173813472 -925528207 -628894283 -1362086780 -1053247695 1960964822 1518583011 -1563753585
REM
CELL 1.54180   50.00000   50.00000   50.00000   90.00000   90.00000   90.00000
LATT -1
SFAC C  
C      1  0.4487260000000  0.5874560000000  0.4649570000000 1.0
C      1  0.5285830000000  0.3789690000000  0.5283520000000 1.0
C      1  0.5097730000000  0.5236700000000  0.4908940000000 1.0
C      1  0.5392720000000  0.4723140000000  0.5376160000000 1.0
C      1  0.4822830000000  0.5338360000000  0.4912770000000 1.0
C      1  0.4335190000000  0.5461270000000  0.4439790000000 1.0
C      1  0.5383330000000  0.5189140000000  0.5330360000000 1.0
C      1  0.5205070000000  0.5320190000000  0.4654020000000 1.0
C      1  0.4139910000000  0.5326110000000  0.4576190000000 1.0
C      1  0.5237220000000  0.4802610000000  0.5141900000000 1.0
C      1  0.5387790000000  0.3993070000000  0.5419310000000 1.0
C      1  0.5185430000000  0.3589710000000  0.5149770000000 1.0
C      1  0.5226300000000  0.5092480000000  0.5106070000000 1.0
C      1  0.4769590000000  0.5480320000000  0.4661750000000 1.0
C      1  0.4343910000000  0.5458510000000  0.4166060000000 1.0
C      1  0.4645470000000  0.5306250000000  0.5116630000000 1.0
C      1  0.4532160000000  0.5606620000000  0.4584680000000 1.0
C      1  0.5444430000000  0.4469390000000  0.5469680000000 1.0
C      1  0.5494030000000  0.4209770000000  0.5560490000000 1.0
C      1  0.5015300000000  0.5461160000000  0.4510960000000 1.0
C      1  0.4445630000000  0.6124060000000  0.4712260000000 1.0
C      1  0.5478090000000  0.4978700000000  0.5484230000000 1.0
C      1  0.5644770000000  0.4168200000000  0.5784900000000 1.0
END
