TITL C-3866675-3766-238 0.0831557414700196 125000 -1102.21451050708 0 0 178 (C1) n - 1
REM
REM in /home/nfs/bkarasulu/CARBON/AIRSS/Generating-Clusters/LCBOP/Only-C1/SD-CG/HFTN-CG/FIRE-CG
REM
REM
REM
REM
REM
REM ./C.cell (11c1c37f851c82e70ff6c80c92926a4b)
REM AIRSS Version 0.9.1 bugfix July 2018 build 013d7b7c2542+ Fri, 06 Jul 2018 19:26:36 +0100
REM compiler GCC version 9.2.1 20190827 (Red Hat 9.2.1-1)
REM options -cpp -mtune=generic -march=x86-64 -g -O0 -fpre-include=/usr/include/finclude/math-vector-fortran.h
REM seed -856214558 -2078049288 1203485686 1808135186 1572637981 -794170155 184473442 -1895901650 -1026994370 -314524749 835119814 -1006004361 -435066945 -909508425 1465260667 -1813792155 1575280450 447542221 925741415 -1869817764 -1130576566 -1359923097 1520608531 363323926 1663572396 1194767562 262586006 -108287967 -1997354460 -1622422343 1681870443 -550375190 637657067
REM
CELL 1.54180   50.00000   50.00000   50.00000   90.00000   90.00000   90.00000
LATT -1
SFAC C  
C      1  0.5835410000000  0.4934920000000  0.6050250000000 1.0
C      1  0.5529560000000  0.4124750000000  0.5438930000000 1.0
C      1  0.5431420000000  0.5037870000000  0.3910830000000 1.0
C      1  0.5366800000000  0.5074580000000  0.5073350000000 1.0
C      1  0.4719280000000  0.5612500000000  0.4997740000000 1.0
C      1  0.5199390000000  0.4119830000000  0.4323240000000 1.0
C      1  0.5425510000000  0.5206260000000  0.4835740000000 1.0
C      1  0.5412990000000  0.4693120000000  0.4575520000000 1.0
C      1  0.5491770000000  0.5716930000000  0.4701550000000 1.0
C      1  0.5068960000000  0.4003560000000  0.5342870000000 1.0
C      1  0.5532800000000  0.6054720000000  0.5576990000000 1.0
C      1  0.4462620000000  0.4629320000000  0.5394740000000 1.0
C      1  0.5964790000000  0.4888210000000  0.5819150000000 1.0
C      1  0.5876720000000  0.4888460000000  0.4608570000000 1.0
C      1  0.4954010000000  0.4236090000000  0.5204400000000 1.0
C      1  0.4293770000000  0.4525440000000  0.4190740000000 1.0
C      1  0.5919730000000  0.5178250000000  0.5001380000000 1.0
C      1  0.5767520000000  0.4682960000000  0.4168830000000 1.0
C      1  0.4414620000000  0.5031110000000  0.5645180000000 1.0
C      1  0.4630740000000  0.6055310000000  0.5712790000000 1.0
C      1  0.5198240000000  0.4696470000000  0.4055720000000 1.0
C      1  0.5281560000000  0.5675230000000  0.4255480000000 1.0
C      1  0.4338990000000  0.5841380000000  0.4588340000000 1.0
C      1  0.4162830000000  0.4265270000000  0.5306510000000 1.0
C      1  0.4996130000000  0.5345240000000  0.5646630000000 1.0
C      1  0.4826440000000  0.5774490000000  0.4114390000000 1.0
C      1  0.4468740000000  0.5209550000000  0.4716450000000 1.0
C      1  0.5643580000000  0.4602670000000  0.5604970000000 1.0
C      1  0.4882380000000  0.5003420000000  0.3805920000000 1.0
C      1  0.4001760000000  0.4887360000000  0.4511510000000 1.0
C      1  0.5055870000000  0.5738260000000  0.5296990000000 1.0
C      1  0.5183670000000  0.4598880000000  0.6237450000000 1.0
C      1  0.5314720000000  0.5873450000000  0.5978420000000 1.0
C      1  0.4586390000000  0.4885320000000  0.3847310000000 1.0
C      1  0.5463750000000  0.5262790000000  0.4087130000000 1.0
C      1  0.5323590000000  0.4745170000000  0.4310130000000 1.0
C      1  0.5699050000000  0.4375830000000  0.4327340000000 1.0
C      1  0.5780450000000  0.4272210000000  0.4611660000000 1.0
C      1  0.4328150000000  0.5911580000000  0.5073130000000 1.0
C      1  0.5571690000000  0.5807880000000  0.4994940000000 1.0
C      1  0.5897640000000  0.4887540000000  0.4322110000000 1.0
C      1  0.5232960000000  0.4513850000000  0.4700210000000 1.0
C      1  0.4746390000000  0.5165200000000  0.5130380000000 1.0
C      1  0.4864550000000  0.6086550000000  0.5572870000000 1.0
C      1  0.5224960000000  0.4592000000000  0.5387750000000 1.0
C      1  0.5204080000000  0.5486300000000  0.5775860000000 1.0
C      1  0.4479320000000  0.3918510000000  0.5392560000000 1.0
C      1  0.5097640000000  0.5687110000000  0.5966360000000 1.0
C      1  0.4997910000000  0.5938630000000  0.4745280000000 1.0
C      1  0.4262290000000  0.5435020000000  0.5870020000000 1.0
C      1  0.4596790000000  0.5581050000000  0.5433180000000 1.0
C      1  0.5264630000000  0.4078750000000  0.5557040000000 1.0
C      1  0.5373290000000  0.4707990000000  0.5600790000000 1.0
C      1  0.5305250000000  0.5225330000000  0.5306190000000 1.0
C      1  0.4416060000000  0.4965190000000  0.4264510000000 1.0
C      1  0.4476290000000  0.5954980000000  0.4820210000000 1.0
C      1  0.4413210000000  0.5810150000000  0.5345970000000 1.0
C      1  0.5160160000000  0.4925590000000  0.3885950000000 1.0
C      1  0.3953530000000  0.4808050000000  0.5632310000000 1.0
C      1  0.5085800000000  0.5864280000000  0.4172510000000 1.0
C      1  0.6303600000000  0.4714120000000  0.5282420000000 1.0
C      1  0.4071690000000  0.4959330000000  0.4786690000000 1.0
C      1  0.5083990000000  0.5994700000000  0.5410700000000 1.0
C      1  0.5354560000000  0.6090170000000  0.5360770000000 1.0
C      1  0.4408580000000  0.5918420000000  0.5802880000000 1.0
C      1  0.5903310000000  0.4737200000000  0.5591470000000 1.0
C      1  0.5684620000000  0.4709520000000  0.4708520000000 1.0
C      1  0.5333230000000  0.6236600000000  0.4898520000000 1.0
C      1  0.4259290000000  0.5139890000000  0.4905370000000 1.0
C      1  0.5106610000000  0.5486080000000  0.4845850000000 1.0
C      1  0.4193320000000  0.4780970000000  0.4322960000000 1.0
C      1  0.5528130000000  0.5744950000000  0.4397730000000 1.0
C      1  0.5544560000000  0.5413860000000  0.4724680000000 1.0
C      1  0.5122920000000  0.6193850000000  0.4713670000000 1.0
C      1  0.4504130000000  0.5171740000000  0.6552100000000 1.0
C      1  0.5451940000000  0.6061610000000  0.5089820000000 1.0
C      1  0.4983310000000  0.4451290000000  0.5394450000000 1.0
C      1  0.4379200000000  0.4168580000000  0.5475850000000 1.0
C      1  0.5390940000000  0.4588290000000  0.5158350000000 1.0
C      1  0.5695000000000  0.4359790000000  0.5440350000000 1.0
C      1  0.4894170000000  0.4381480000000  0.4109240000000 1.0
C      1  0.4598470000000  0.5363710000000  0.3995270000000 1.0
C      1  0.5236900000000  0.4938310000000  0.5693340000000 1.0
C      1  0.5604420000000  0.4900850000000  0.6181610000000 1.0
C      1  0.5477180000000  0.5459700000000  0.5373940000000 1.0
C      1  0.4792960000000  0.5105610000000  0.4839720000000 1.0
C      1  0.4732120000000  0.4597770000000  0.4161160000000 1.0
C      1  0.4130420000000  0.5009550000000  0.5699590000000 1.0
C      1  0.5582030000000  0.3898920000000  0.4933240000000 1.0
C      1  0.4040270000000  0.4140620000000  0.5077750000000 1.0
C      1  0.4576910000000  0.4879060000000  0.5468770000000 1.0
C      1  0.5988660000000  0.5130160000000  0.4727840000000 1.0
C      1  0.5811510000000  0.4474890000000  0.4841380000000 1.0
C      1  0.5460130000000  0.3646550000000  0.4945100000000 1.0
C      1  0.4869950000000  0.4316190000000  0.4939120000000 1.0
C      1  0.5190660000000  0.5726220000000  0.4723900000000 1.0
C      1  0.4230450000000  0.5692000000000  0.5743310000000 1.0
C      1  0.5763510000000  0.5618400000000  0.4294680000000 1.0
C      1  0.4572740000000  0.5410310000000  0.5178280000000 1.0
C      1  0.5633550000000  0.4817280000000  0.3942840000000 1.0
C      1  0.5124990000000  0.6139210000000  0.4223520000000 1.0
C      1  0.4502920000000  0.4623420000000  0.3985720000000 1.0
C      1  0.4604590000000  0.3915410000000  0.4899910000000 1.0
C      1  0.4670350000000  0.4189130000000  0.4479950000000 1.0
C      1  0.4263200000000  0.4533730000000  0.5211990000000 1.0
C      1  0.4816210000000  0.5008790000000  0.5358630000000 1.0
C      1  0.4902590000000  0.5030560000000  0.4316050000000 1.0
C      1  0.4156920000000  0.5689800000000  0.5457130000000 1.0
C      1  0.3851620000000  0.5336970000000  0.4442180000000 1.0
C      1  0.4914410000000  0.4187200000000  0.4312860000000 1.0
C      1  0.5441470000000  0.5574590000000  0.5635290000000 1.0
C      1  0.4467590000000  0.5632810000000  0.4409070000000 1.0
C      1  0.4356990000000  0.5387620000000  0.4523950000000 1.0
C      1  0.4545150000000  0.4395850000000  0.5552820000000 1.0
C      1  0.5791380000000  0.4955320000000  0.5127830000000 1.0
C      1  0.4456170000000  0.5108620000000  0.4016170000000 1.0
C      1  0.4245480000000  0.4516980000000  0.4926220000000 1.0
C      1  0.4079870000000  0.5539240000000  0.5207590000000 1.0
C      1  0.5245100000000  0.5386080000000  0.4239970000000 1.0
C      1  0.4536460000000  0.3827780000000  0.5144800000000 1.0
C      1  0.4273500000000  0.5327810000000  0.5128450000000 1.0
C      1  0.4993830000000  0.5280790000000  0.4694050000000 1.0
C      1  0.4942540000000  0.4568660000000  0.6067350000000 1.0
C      1  0.4713720000000  0.4140730000000  0.4767580000000 1.0
C      1  0.5168450000000  0.4159630000000  0.5823170000000 1.0
C      1  0.5275750000000  0.4030670000000  0.6047430000000 1.0
C      1  0.4987530000000  0.4563680000000  0.4832150000000 1.0
C      1  0.4113090000000  0.4272620000000  0.4832680000000 1.0
C      1  0.5128160000000  0.6287860000000  0.4448450000000 1.0
C      1  0.5526920000000  0.4071990000000  0.5158360000000 1.0
C      1  0.5727660000000  0.5353080000000  0.4160150000000 1.0
C      1  0.4630970000000  0.4742200000000  0.4620520000000 1.0
C      1  0.4068360000000  0.5466910000000  0.4561290000000 1.0
C      1  0.4958600000000  0.4363700000000  0.5860880000000 1.0
C      1  0.4588730000000  0.5118980000000  0.6311360000000 1.0
C      1  0.3751450000000  0.4647360000000  0.5596340000000 1.0
C      1  0.3813610000000  0.5071850000000  0.4405260000000 1.0
C      1  0.5655400000000  0.5579900000000  0.5173120000000 1.0
C      1  0.5499720000000  0.5839340000000  0.5755150000000 1.0
C      1  0.5082510000000  0.5107510000000  0.5491040000000 1.0
C      1  0.4841820000000  0.4807380000000  0.4797900000000 1.0
C      1  0.4812000000000  0.5662970000000  0.5925990000000 1.0
C      1  0.4174700000000  0.4202950000000  0.4566720000000 1.0
C      1  0.5418780000000  0.4324470000000  0.5053250000000 1.0
C      1  0.5055610000000  0.5242740000000  0.4414740000000 1.0
C      1  0.5525490000000  0.4841680000000  0.5117720000000 1.0
C      1  0.4084150000000  0.5746590000000  0.4990460000000 1.0
C      1  0.5334180000000  0.4836400000000  0.6165000000000 1.0
C      1  0.5115540000000  0.4448040000000  0.3951260000000 1.0
C      1  0.4685560000000  0.4833170000000  0.4347090000000 1.0
C      1  0.5210300000000  0.4319320000000  0.3732910000000 1.0
C      1  0.5873590000000  0.4456550000000  0.5195210000000 1.0
C      1  0.5932910000000  0.5169110000000  0.4261180000000 1.0
C      1  0.4407330000000  0.4644410000000  0.4744710000000 1.0
C      1  0.5356880000000  0.4274490000000  0.4778330000000 1.0
C      1  0.4674970000000  0.5071390000000  0.6048420000000 1.0
C      1  0.5076560000000  0.3742210000000  0.5238020000000 1.0
C      1  0.4991290000000  0.5570330000000  0.5088080000000 1.0
C      1  0.4053230000000  0.5240220000000  0.5849270000000 1.0
C      1  0.4536990000000  0.5252560000000  0.5825020000000 1.0
C      1  0.5997380000000  0.5584050000000  0.4462050000000 1.0
C      1  0.4612230000000  0.5598750000000  0.4164450000000 1.0
C      1  0.5382220000000  0.3912150000000  0.6253650000000 1.0
C      1  0.5906790000000  0.5441290000000  0.5121280000000 1.0
C      1  0.4723730000000  0.5463220000000  0.5698990000000 1.0
C      1  0.5157960000000  0.4957930000000  0.5964350000000 1.0
C      1  0.5232810000000  0.3590330000000  0.5080140000000 1.0
C      1  0.4879640000000  0.4865250000000  0.6009250000000 1.0
C      1  0.4085410000000  0.5718620000000  0.4702960000000 1.0
C      1  0.6141390000000  0.5565370000000  0.5193020000000 1.0
C      1  0.4816080000000  0.4412530000000  0.5622070000000 1.0
C      1  0.4825760000000  0.5294760000000  0.3824420000000 1.0
C      1  0.6054070000000  0.5306130000000  0.4505820000000 1.0
C      1  0.5451220000000  0.4220060000000  0.4259820000000 1.0
C      1  0.4738530000000  0.5859600000000  0.4842560000000 1.0
C      1  0.4386690000000  0.4288840000000  0.4383160000000 1.0
C      1  0.5575550000000  0.4083000000000  0.4707250000000 1.0
C      1  0.6047600000000  0.4649560000000  0.5348600000000 1.0
END
