TITL C-3866675-3766-350 0.392082230745232 125000 -95.635129202226 0 0 17 (Cs) n - 1
REM
REM in /home/nfs/bkarasulu/CARBON/AIRSS/Generating-Clusters/LCBOP/Only-C1/SD-CG/FIRE-CG
REM
REM
REM
REM
REM
REM ./C.cell (11c1c37f851c82e70ff6c80c92926a4b)
REM AIRSS Version 0.9.1 bugfix July 2018 build 013d7b7c2542+ Fri, 06 Jul 2018 19:26:36 +0100
REM compiler GCC version 9.2.1 20190827 (Red Hat 9.2.1-1)
REM options -cpp -mtune=generic -march=x86-64 -g -O0 -fpre-include=/usr/include/finclude/math-vector-fortran.h
REM seed 1716813779 1397385896 512543249 -1752898682 1616109665 639159870 -100277099 646926772 1026988390 1109992727 -407844939 1505141802 1829895048 1512592242 -157018340 1974696595 1481916980 -1165435938 -1263118270 444018343 -366818639 1162061995 560097139 1026931171 909196110 113720328 -589563193 -201886580 588188442 -1121119312 -1044789140 860591497 -1695670408
REM
CELL 1.54180   50.00000   50.00000   50.00000   90.00000   90.00000   90.00000
LATT -1
SFAC C  
C      1  0.5482540000000  0.4563170000000  0.4443690000000 1.0
C      1  0.4202430000000  0.5018100000000  0.5163110000000 1.0
C      1  0.4686810000000  0.4963950000000  0.5017670000000 1.0
C      1  0.5681730000000  0.4463160000000  0.4300350000000 1.0
C      1  0.5880970000000  0.4363130000000  0.4156970000000 1.0
C      1  0.4885010000000  0.4863200000000  0.4873720000000 1.0
C      1  0.4519980000000  0.5278770000000  0.5386010000000 1.0
C      1  0.4755670000000  0.5396140000000  0.5469670000000 1.0
C      1  0.4251880000000  0.5328470000000  0.5487710000000 1.0
C      1  0.4067890000000  0.5171110000000  0.5351760000000 1.0
C      1  0.5084170000000  0.4763180000000  0.4730370000000 1.0
C      1  0.6076930000000  0.4264740000000  0.4015960000000 1.0
C      1  0.4487570000000  0.5075370000000  0.5173290000000 1.0
C      1  0.5283360000000  0.4663170000000  0.4587030000000 1.0
C      1  0.5447180000000  0.5712900000000  0.5685480000000 1.0
C      1  0.5218950000000  0.5608700000000  0.5614630000000 1.0
C      1  0.4986910000000  0.5502760000000  0.5542580000000 1.0
END
