TITL C-3866675-3766-211 0.381777136954246 125000 -170.870371999787 0 0 30 (C1) n - 1
REM
REM in /home/nfs/bkarasulu/CARBON/AIRSS/Generating-Clusters/LCBOP/Only-C1/SD-CG/HFTN-CG/FIRE-CG
REM
REM
REM
REM
REM
REM ./C.cell (11c1c37f851c82e70ff6c80c92926a4b)
REM AIRSS Version 0.9.1 bugfix July 2018 build 013d7b7c2542+ Fri, 06 Jul 2018 19:26:36 +0100
REM compiler GCC version 9.2.1 20190827 (Red Hat 9.2.1-1)
REM options -cpp -mtune=generic -march=x86-64 -g -O0 -fpre-include=/usr/include/finclude/math-vector-fortran.h
REM seed 1254630207 607661896 1651512652 78350053 -97122012 1709133712 1791716617 142236243 1211903972 -2084963129 -1061843623 577386363 -749165793 185589301 418856548 9179310 1383755593 996396986 2060358810 -1776665391 479863433 636311326 -698262268 1043423388 -232676469 -1525900440 -1489784801 -570702158 1562229991 1282833650 -1272217780 644079618 -289188768
REM
CELL 1.54180   50.00000   50.00000   50.00000   90.00000   90.00000   90.00000
LATT -1
SFAC C  
C      1  0.4436460000000  0.5376950000000  0.5300430000000 1.0
C      1  0.4661720000000  0.5442980000000  0.5452950000000 1.0
C      1  0.5101420000000  0.4725640000000  0.4719640000000 1.0
C      1  0.4294450000000  0.5273120000000  0.5101990000000 1.0
C      1  0.4443510000000  0.4855170000000  0.4488670000000 1.0
C      1  0.4910420000000  0.5478480000000  0.5318700000000 1.0
C      1  0.5607660000000  0.5254620000000  0.5366940000000 1.0
C      1  0.5419480000000  0.4026630000000  0.4975430000000 1.0
C      1  0.5436660000000  0.4978750000000  0.4972220000000 1.0
C      1  0.5026440000000  0.5201270000000  0.4847830000000 1.0
C      1  0.4299340000000  0.4994010000000  0.4662590000000 1.0
C      1  0.5189310000000  0.4967130000000  0.4840780000000 1.0
C      1  0.5293120000000  0.5615700000000  0.5596710000000 1.0
C      1  0.5091760000000  0.5679980000000  0.5405610000000 1.0
C      1  0.4906680000000  0.4726870000000  0.4519300000000 1.0
C      1  0.4667660000000  0.4733270000000  0.4374470000000 1.0
C      1  0.5526030000000  0.3799750000000  0.5061640000000 1.0
C      1  0.4653200000000  0.4619910000000  0.4119930000000 1.0
C      1  0.5313030000000  0.4253500000000  0.4889310000000 1.0
C      1  0.5074310000000  0.5933570000000  0.5303620000000 1.0
C      1  0.5587090000000  0.5082940000000  0.5165030000000 1.0
C      1  0.4643360000000  0.5467780000000  0.5724690000000 1.0
C      1  0.4937530000000  0.5317150000000  0.4616410000000 1.0
C      1  0.4246270000000  0.5139820000000  0.4877750000000 1.0
C      1  0.5499760000000  0.5443500000000  0.5519270000000 1.0
C      1  0.4640300000000  0.4514070000000  0.3882120000000 1.0
C      1  0.5282980000000  0.5718400000000  0.5849920000000 1.0
C      1  0.5208060000000  0.4481380000000  0.4804410000000 1.0
C      1  0.5630830000000  0.3576600000000  0.5146430000000 1.0
C      1  0.4971150000000  0.5321050000000  0.5095230000000 1.0
END
