TITL C-3866669-3764-593 -14.2982504179152 125000 -1009.39804860726 0 0 164 (C1) n - 1
REM
REM in /home/nfs/bkarasulu/CARBON/AIRSS/Generating-Clusters/LCBOP/Only-C1/SD-CG/FIRE-CG
REM
REM
REM
REM
REM
REM ./C.cell (11c1c37f851c82e70ff6c80c92926a4b)
REM AIRSS Version 0.9.1 bugfix July 2018 build 013d7b7c2542+ Fri, 06 Jul 2018 19:26:36 +0100
REM compiler GCC version 9.2.1 20190827 (Red Hat 9.2.1-1)
REM options -cpp -mtune=generic -march=x86-64 -g -O0 -fpre-include=/usr/include/finclude/math-vector-fortran.h
REM seed -48818333 -462714608 -1981962470 1983522526 884162533 -368540097 -1803442258 -850585803 -353648133 192766705 -851155182 501597160 1045794412 -36593354 1389105743 1721799488 563230521 731986566 -1796163987 -1336154543 -1367874894 1231643795 1122641034 -325207298 -1729622143 -786170879 -296115823 -305577277 -187049181 -1820608552 1009657676 -2130179934 778999754
REM
CELL 1.54180   50.00000   50.00000   50.00000   90.00000   90.00000   90.00000
LATT -1
SFAC C  
C      1  0.4285970000000  0.4615710000000  0.5602680000000 1.0
C      1  0.4807190000000  0.5303240000000  0.4348010000000 1.0
C      1  0.4572410000000  0.5698240000000  0.5618360000000 1.0
C      1  0.5208540000000  0.5617700000000  0.3905650000000 1.0
C      1  0.3780800000000  0.5685110000000  0.5179860000000 1.0
C      1  0.5515170000000  0.6124140000000  0.4984450000000 1.0
C      1  0.5041390000000  0.4805800000000  0.4898360000000 1.0
C      1  0.5007940000000  0.4896450000000  0.3887380000000 1.0
C      1  0.3665750000000  0.5526460000000  0.5362320000000 1.0
C      1  0.4110170000000  0.5549720000000  0.4836400000000 1.0
C      1  0.5440400000000  0.4399210000000  0.5476870000000 1.0
C      1  0.5037680000000  0.4674370000000  0.5471720000000 1.0
C      1  0.5153440000000  0.4363920000000  0.6032290000000 1.0
C      1  0.4627930000000  0.4661640000000  0.4639260000000 1.0
C      1  0.4749670000000  0.5486620000000  0.5716300000000 1.0
C      1  0.4937770000000  0.4684480000000  0.5729770000000 1.0
C      1  0.5418750000000  0.5144160000000  0.5730460000000 1.0
C      1  0.5566470000000  0.5294190000000  0.5183690000000 1.0
C      1  0.5668870000000  0.5888040000000  0.4947840000000 1.0
C      1  0.5344640000000  0.4322070000000  0.4217300000000 1.0
C      1  0.4082780000000  0.4876140000000  0.4156310000000 1.0
C      1  0.4778900000000  0.4724880000000  0.3901820000000 1.0
C      1  0.4285590000000  0.5632260000000  0.4612990000000 1.0
C      1  0.5358840000000  0.6202810000000  0.4495040000000 1.0
C      1  0.5533870000000  0.5256890000000  0.4712080000000 1.0
C      1  0.6045230000000  0.5536480000000  0.5718780000000 1.0
C      1  0.4577050000000  0.4764130000000  0.5272790000000 1.0
C      1  0.5022000000000  0.5742130000000  0.4086760000000 1.0
C      1  0.5037440000000  0.3736800000000  0.4534940000000 1.0
C      1  0.5590130000000  0.5212700000000  0.4240970000000 1.0
C      1  0.3836460000000  0.4932640000000  0.4092430000000 1.0
C      1  0.6111000000000  0.4986090000000  0.4304350000000 1.0
C      1  0.4986220000000  0.5188310000000  0.3914310000000 1.0
C      1  0.4304180000000  0.5727100000000  0.4345350000000 1.0
C      1  0.6219950000000  0.5285410000000  0.4736300000000 1.0
C      1  0.4384680000000  0.4564840000000  0.5336040000000 1.0
C      1  0.4235590000000  0.5837240000000  0.5239880000000 1.0
C      1  0.4522080000000  0.5495860000000  0.5194410000000 1.0
C      1  0.4498900000000  0.5737070000000  0.4153220000000 1.0
C      1  0.5297570000000  0.4511820000000  0.4015340000000 1.0
C      1  0.5637190000000  0.4957710000000  0.5653930000000 1.0
C      1  0.4642520000000  0.6186110000000  0.5539270000000 1.0
C      1  0.5011410000000  0.5830410000000  0.5493390000000 1.0
C      1  0.5664900000000  0.5486670000000  0.6090420000000 1.0
C      1  0.5445810000000  0.3701240000000  0.5527480000000 1.0
C      1  0.5094450000000  0.5964380000000  0.5245560000000 1.0
C      1  0.5759000000000  0.5752470000000  0.5175300000000 1.0
C      1  0.4747610000000  0.5637340000000  0.4053170000000 1.0
C      1  0.3706730000000  0.5290910000000  0.5482550000000 1.0
C      1  0.4036070000000  0.5719060000000  0.5064940000000 1.0
C      1  0.5442970000000  0.6314520000000  0.4255310000000 1.0
C      1  0.4544920000000  0.5547210000000  0.4703150000000 1.0
C      1  0.4873840000000  0.4872660000000  0.4663120000000 1.0
C      1  0.5221810000000  0.5517560000000  0.4472870000000 1.0
C      1  0.6179360000000  0.5133380000000  0.4518550000000 1.0
C      1  0.6217020000000  0.4608890000000  0.5114290000000 1.0
C      1  0.4841790000000  0.4654750000000  0.5269290000000 1.0
C      1  0.5105670000000  0.4973880000000  0.4482300000000 1.0
C      1  0.5284710000000  0.4387960000000  0.4485570000000 1.0
C      1  0.5304060000000  0.4631800000000  0.5380470000000 1.0
C      1  0.5339600000000  0.4278610000000  0.5031520000000 1.0
C      1  0.4828940000000  0.3866990000000  0.4940370000000 1.0
C      1  0.4052260000000  0.4499730000000  0.5699390000000 1.0
C      1  0.5270360000000  0.4767540000000  0.3900980000000 1.0
C      1  0.4393850000000  0.5645190000000  0.5402520000000 1.0
C      1  0.3831350000000  0.4380720000000  0.5769710000000 1.0
C      1  0.4653590000000  0.5320690000000  0.4579550000000 1.0
C      1  0.4478230000000  0.6259910000000  0.5320550000000 1.0
C      1  0.4647810000000  0.5911660000000  0.5019440000000 1.0
C      1  0.4454710000000  0.4788630000000  0.5770720000000 1.0
C      1  0.3836710000000  0.4788900000000  0.5044440000000 1.0
C      1  0.4910670000000  0.5219670000000  0.5181010000000 1.0
C      1  0.4460900000000  0.4100420000000  0.5166100000000 1.0
C      1  0.4351300000000  0.4808020000000  0.4181490000000 1.0
C      1  0.5610970000000  0.5733180000000  0.4720120000000 1.0
C      1  0.5071780000000  0.4324200000000  0.4924940000000 1.0
C      1  0.4762820000000  0.4203960000000  0.4037470000000 1.0
C      1  0.5369130000000  0.5116080000000  0.6014820000000 1.0
C      1  0.5400650000000  0.4183750000000  0.5297280000000 1.0
C      1  0.5870160000000  0.5532560000000  0.5922610000000 1.0
C      1  0.5947090000000  0.4195290000000  0.5128090000000 1.0
C      1  0.4511750000000  0.4495540000000  0.4853730000000 1.0
C      1  0.3928380000000  0.5107110000000  0.4707140000000 1.0
C      1  0.4654450000000  0.3895690000000  0.4701840000000 1.0
C      1  0.5426660000000  0.5352580000000  0.6163780000000 1.0
C      1  0.4527800000000  0.4832800000000  0.3965260000000 1.0
C      1  0.4691500000000  0.5139760000000  0.5031120000000 1.0
C      1  0.5049730000000  0.4180000000000  0.5865110000000 1.0
C      1  0.4741640000000  0.5303560000000  0.6154480000000 1.0
C      1  0.3797440000000  0.3690680000000  0.5372390000000 1.0
C      1  0.4726810000000  0.3984050000000  0.5182330000000 1.0
C      1  0.5470930000000  0.5190990000000  0.3985190000000 1.0
C      1  0.4749690000000  0.4003650000000  0.4213960000000 1.0
C      1  0.5224290000000  0.4605640000000  0.6128790000000 1.0
C      1  0.4715440000000  0.5112960000000  0.4755380000000 1.0
C      1  0.5152420000000  0.6005260000000  0.4511850000000 1.0
C      1  0.5087250000000  0.3764820000000  0.4822560000000 1.0
C      1  0.5011290000000  0.6020260000000  0.4753470000000 1.0
C      1  0.5773140000000  0.4829250000000  0.3931340000000 1.0
C      1  0.6017930000000  0.4446270000000  0.5235810000000 1.0
C      1  0.3806380000000  0.4877280000000  0.4788250000000 1.0
C      1  0.6052410000000  0.5012020000000  0.5310640000000 1.0
C      1  0.5410390000000  0.3924200000000  0.5396840000000 1.0
C      1  0.5873320000000  0.4583490000000  0.5442880000000 1.0
C      1  0.4467960000000  0.5073150000000  0.5807560000000 1.0
C      1  0.5818100000000  0.3993320000000  0.5006460000000 1.0
C      1  0.5428290000000  0.4595830000000  0.4629560000000 1.0
C      1  0.4790290000000  0.3859630000000  0.4448710000000 1.0
C      1  0.3577750000000  0.3578750000000  0.5457070000000 1.0
C      1  0.5508880000000  0.4924960000000  0.3886410000000 1.0
C      1  0.5517570000000  0.6406240000000  0.4023070000000 1.0
C      1  0.5081060000000  0.5263000000000  0.4424370000000 1.0
C      1  0.5207570000000  0.5445990000000  0.6313280000000 1.0
C      1  0.4917480000000  0.5983480000000  0.5014460000000 1.0
C      1  0.4383960000000  0.6511380000000  0.5278450000000 1.0
C      1  0.4773060000000  0.3791080000000  0.5853940000000 1.0
C      1  0.5127670000000  0.5767910000000  0.4355030000000 1.0
C      1  0.4239000000000  0.3937720000000  0.5215950000000 1.0
C      1  0.4783860000000  0.5342380000000  0.4066520000000 1.0
C      1  0.5335530000000  0.6108660000000  0.5204250000000 1.0
C      1  0.4698660000000  0.4668420000000  0.5849090000000 1.0
C      1  0.5470810000000  0.6273400000000  0.4747730000000 1.0
C      1  0.5377660000000  0.4860950000000  0.4514070000000 1.0
C      1  0.5456710000000  0.5517670000000  0.4633940000000 1.0
C      1  0.5482190000000  0.4521050000000  0.4921530000000 1.0
C      1  0.5104910000000  0.5200210000000  0.5358510000000 1.0
C      1  0.4479000000000  0.5003650000000  0.5152690000000 1.0
C      1  0.6251550000000  0.5411320000000  0.4971680000000 1.0
C      1  0.4424420000000  0.6039020000000  0.5149460000000 1.0
C      1  0.4205590000000  0.5090190000000  0.5103060000000 1.0
C      1  0.5453390000000  0.4078830000000  0.4155500000000 1.0
C      1  0.5669720000000  0.4475050000000  0.5620440000000 1.0
C      1  0.5240570000000  0.5334660000000  0.3896600000000 1.0
C      1  0.5981340000000  0.4870860000000  0.4098560000000 1.0
C      1  0.4459700000000  0.4702490000000  0.4417080000000 1.0
C      1  0.5685280000000  0.5514710000000  0.5272500000000 1.0
C      1  0.5283180000000  0.4868710000000  0.6123450000000 1.0
C      1  0.5850100000000  0.4885200000000  0.5459490000000 1.0
C      1  0.4606370000000  0.5635330000000  0.4962550000000 1.0
C      1  0.5620980000000  0.4698300000000  0.5799780000000 1.0
C      1  0.4943160000000  0.5397330000000  0.6304560000000 1.0
C      1  0.5613220000000  0.3838510000000  0.4925620000000 1.0
C      1  0.4953750000000  0.4565390000000  0.5025800000000 1.0
C      1  0.5284940000000  0.4936950000000  0.4996360000000 1.0
C      1  0.6250240000000  0.5489820000000  0.5229110000000 1.0
C      1  0.5037710000000  0.5551220000000  0.5633810000000 1.0
C      1  0.5450610000000  0.5164430000000  0.4964990000000 1.0
C      1  0.5071510000000  0.4284580000000  0.4641760000000 1.0
C      1  0.4420160000000  0.4377770000000  0.5109560000000 1.0
C      1  0.4101690000000  0.5259150000000  0.4878310000000 1.0
C      1  0.6229150000000  0.4877040000000  0.5154280000000 1.0
C      1  0.3849840000000  0.5067600000000  0.5445000000000 1.0
C      1  0.5217330000000  0.5316020000000  0.5591140000000 1.0
C      1  0.4020100000000  0.3807610000000  0.5288710000000 1.0
C      1  0.3984620000000  0.4947990000000  0.5230050000000 1.0
C      1  0.5561560000000  0.5080150000000  0.4492580000000 1.0
C      1  0.4746930000000  0.5930170000000  0.5588920000000 1.0
C      1  0.4895490000000  0.3994610000000  0.5715210000000 1.0
C      1  0.5356990000000  0.3759000000000  0.4902330000000 1.0
C      1  0.4856360000000  0.4001970000000  0.5433860000000 1.0
C      1  0.5417200000000  0.4722200000000  0.5126820000000 1.0
C      1  0.6181080000000  0.5525340000000  0.5486920000000 1.0
C      1  0.4646410000000  0.5283490000000  0.5888890000000 1.0
C      1  0.4794690000000  0.4442840000000  0.3921300000000 1.0
END
