TITL C-3866673-4222-613 0.00541720009701039 125000 -508.407069662576 0 0 85 (C1) n - 1
REM
REM in /home/nfs/bkarasulu/CARBON/AIRSS/Generating-Clusters/LCBOP/Only-C1/SD-CG/FIRE-CG
REM
REM
REM
REM
REM
REM ./C.cell (11c1c37f851c82e70ff6c80c92926a4b)
REM AIRSS Version 0.9.1 bugfix July 2018 build 013d7b7c2542+ Fri, 06 Jul 2018 19:26:36 +0100
REM compiler GCC version 9.2.1 20190827 (Red Hat 9.2.1-1)
REM options -cpp -mtune=generic -march=x86-64 -g -O0 -fpre-include=/usr/include/finclude/math-vector-fortran.h
REM seed 998769141 -1283504929 1754536871 1959410683 531642196 857775395 -1487043669 2057686056 823314642 -770639420 -1933412861 253843378 356835053 -1028689826 1339155170 1861305968 1530441380 -1725477964 -1789320153 84098397 -1845368191 -802836926 -1024092471 1960679671 -1344156816 -954450011 -1744222469 521774446 -29476639 1200444766 -1235690299 -1574023122 533608234
REM
CELL 1.54180   50.00000   50.00000   50.00000   90.00000   90.00000   90.00000
LATT -1
SFAC C  
C      1  0.4424360000000  0.4808810000000  0.5578450000000 1.0
C      1  0.5464340000000  0.5432490000000  0.5021710000000 1.0
C      1  0.4213240000000  0.4661230000000  0.4662150000000 1.0
C      1  0.5464730000000  0.5106540000000  0.4531810000000 1.0
C      1  0.4716220000000  0.5647100000000  0.5655510000000 1.0
C      1  0.4418000000000  0.4982900000000  0.5356320000000 1.0
C      1  0.6017480000000  0.4646940000000  0.4431420000000 1.0
C      1  0.4665450000000  0.5887480000000  0.4882520000000 1.0
C      1  0.4454780000000  0.4480700000000  0.5411290000000 1.0
C      1  0.4984960000000  0.5081950000000  0.4889700000000 1.0
C      1  0.5248940000000  0.4182140000000  0.4831880000000 1.0
C      1  0.5402090000000  0.5114160000000  0.5740240000000 1.0
C      1  0.4341960000000  0.4623690000000  0.4921180000000 1.0
C      1  0.5689610000000  0.5223000000000  0.5043050000000 1.0
C      1  0.4551070000000  0.5551230000000  0.5248090000000 1.0
C      1  0.4386050000000  0.5827120000000  0.4870720000000 1.0
C      1  0.4989850000000  0.4857470000000  0.4097010000000 1.0
C      1  0.4671840000000  0.5776970000000  0.5390130000000 1.0
C      1  0.5135920000000  0.5089890000000  0.5819560000000 1.0
C      1  0.4466990000000  0.4436960000000  0.5113420000000 1.0
C      1  0.5331730000000  0.5613180000000  0.5644260000000 1.0
C      1  0.4521990000000  0.5117760000000  0.4805940000000 1.0
C      1  0.5173420000000  0.4844660000000  0.5393930000000 1.0
C      1  0.5764410000000  0.4736530000000  0.4488070000000 1.0
C      1  0.5127880000000  0.5765830000000  0.4797800000000 1.0
C      1  0.4283130000000  0.4867980000000  0.4466630000000 1.0
C      1  0.4433720000000  0.4830000000000  0.4217860000000 1.0
C      1  0.5725890000000  0.5009510000000  0.4582470000000 1.0
C      1  0.5151540000000  0.5356810000000  0.4275690000000 1.0
C      1  0.4860880000000  0.5805110000000  0.4680630000000 1.0
C      1  0.4808710000000  0.5926170000000  0.5149100000000 1.0
C      1  0.4721630000000  0.4857980000000  0.4208630000000 1.0
C      1  0.4291560000000  0.5463100000000  0.5185230000000 1.0
C      1  0.5595530000000  0.5218440000000  0.5536520000000 1.0
C      1  0.5016820000000  0.5492660000000  0.5259120000000 1.0
C      1  0.5527620000000  0.4225050000000  0.4874070000000 1.0
C      1  0.5538070000000  0.5656170000000  0.5230560000000 1.0
C      1  0.5683540000000  0.5065740000000  0.5293000000000 1.0
C      1  0.4250470000000  0.5197420000000  0.5275830000000 1.0
C      1  0.4830250000000  0.4430690000000  0.4724300000000 1.0
C      1  0.4897720000000  0.4733750000000  0.5349090000000 1.0
C      1  0.5729660000000  0.4362870000000  0.4986880000000 1.0
C      1  0.5832600000000  0.5126550000000  0.4816780000000 1.0
C      1  0.4688940000000  0.4373240000000  0.5553560000000 1.0
C      1  0.5108980000000  0.4047940000000  0.5044620000000 1.0
C      1  0.4832910000000  0.4145850000000  0.5463850000000 1.0
C      1  0.5201110000000  0.5109980000000  0.5352510000000 1.0
C      1  0.4214050000000  0.5354690000000  0.4499040000000 1.0
C      1  0.4209260000000  0.5648260000000  0.4981790000000 1.0
C      1  0.5257940000000  0.4484500000000  0.4410200000000 1.0
C      1  0.4826890000000  0.4621740000000  0.5626620000000 1.0
C      1  0.5304850000000  0.5845440000000  0.5252280000000 1.0
C      1  0.5117470000000  0.5117370000000  0.4115750000000 1.0
C      1  0.5569660000000  0.5510040000000  0.5503370000000 1.0
C      1  0.4748630000000  0.4380780000000  0.5005490000000 1.0
C      1  0.5106710000000  0.5911110000000  0.5057320000000 1.0
C      1  0.5802130000000  0.4580830000000  0.5130700000000 1.0
C      1  0.5136470000000  0.5688940000000  0.5447670000000 1.0
C      1  0.4741540000000  0.5385800000000  0.5752480000000 1.0
C      1  0.5335520000000  0.5361590000000  0.4505220000000 1.0
C      1  0.5048640000000  0.3719310000000  0.5393590000000 1.0
C      1  0.5201540000000  0.4641060000000  0.5010780000000 1.0
C      1  0.5223660000000  0.5317580000000  0.5177100000000 1.0
C      1  0.4839260000000  0.5107940000000  0.5786260000000 1.0
C      1  0.4652460000000  0.4886400000000  0.5203330000000 1.0
C      1  0.4827130000000  0.5729540000000  0.4414560000000 1.0
C      1  0.4675210000000  0.4849270000000  0.5736150000000 1.0
C      1  0.5098900000000  0.3479290000000  0.5481820000000 1.0
C      1  0.5366480000000  0.4704260000000  0.5240860000000 1.0
C      1  0.4961470000000  0.4521680000000  0.5139370000000 1.0
C      1  0.4742500000000  0.4702650000000  0.4696450000000 1.0
C      1  0.5286020000000  0.4903330000000  0.4599730000000 1.0
C      1  0.4995340000000  0.3977770000000  0.5298200000000 1.0
C      1  0.5324220000000  0.5539180000000  0.4750800000000 1.0
C      1  0.5153700000000  0.4864010000000  0.4836750000000 1.0
C      1  0.4771280000000  0.5426420000000  0.5129660000000 1.0
C      1  0.5538130000000  0.4558980000000  0.4449690000000 1.0
C      1  0.4758330000000  0.5249320000000  0.4910940000000 1.0
C      1  0.5101600000000  0.4344460000000  0.4630490000000 1.0
C      1  0.5638720000000  0.4780180000000  0.5247640000000 1.0
C      1  0.4788820000000  0.4863800000000  0.4483090000000 1.0
C      1  0.5135880000000  0.4620070000000  0.4183030000000 1.0
C      1  0.4960660000000  0.5561620000000  0.4254890000000 1.0
C      1  0.4568030000000  0.4833540000000  0.4911270000000 1.0
C      1  0.4332340000000  0.5127540000000  0.4592530000000 1.0
END
