TITL C-3866669-3764-611 2020.82797401367 125000 -1004.98066093437 0 0 166 (C1) n - 1
REM
REM in /home/nfs/bkarasulu/CARBON/AIRSS/Generating-Clusters/LCBOP/Only-C1/SD-CG/FIRE-CG
REM
REM
REM
REM
REM
REM ./C.cell (11c1c37f851c82e70ff6c80c92926a4b)
REM AIRSS Version 0.9.1 bugfix July 2018 build 013d7b7c2542+ Fri, 06 Jul 2018 19:26:36 +0100
REM compiler GCC version 9.2.1 20190827 (Red Hat 9.2.1-1)
REM options -cpp -mtune=generic -march=x86-64 -g -O0 -fpre-include=/usr/include/finclude/math-vector-fortran.h
REM seed 230598816 -1301333451 1105235358 -146280130 1901342549 1639837085 1836465386 -1367435666 -982004844 -1839365569 -910845861 709519381 -148160551 120462992 662802174 797158515 -1920084385 393302069 394770280 1458074804 -818220323 -663831470 -666538605 459603337 602892057 -1028793046 1074288042 929509618 487442349 -170113791 836476337 -1367956715 -1031498599
REM
CELL 1.54180   50.00000   50.00000   50.00000   90.00000   90.00000   90.00000
LATT -1
SFAC C  
C      1  0.5084560000000  0.4393280000000  0.4472390000000 1.0
C      1  0.4010410000000  0.4659210000000  0.5640050000000 1.0
C      1  0.4426000000000  0.4487270000000  0.4248280000000 1.0
C      1  0.6083880000000  0.5167180000000  0.5360330000000 1.0
C      1  0.5420640000000  0.5752410000000  0.4401610000000 1.0
C      1  0.4427680000000  0.5242220000000  0.5766320000000 1.0
C      1  0.4356390000000  0.4636630000000  0.5125060000000 1.0
C      1  0.3912220000000  0.5027400000000  0.5384090000000 1.0
C      1  0.5973790000000  0.4607080000000  0.4463780000000 1.0
C      1  0.4995620000000  0.5998750000000  0.4380420000000 1.0
C      1  0.4943050000000  0.4865610000000  0.4881780000000 1.0
C      1  0.5227920000000  0.5840380000000  0.5191090000000 1.0
C      1  0.5488500000000  0.4589820000000  0.5896320000000 1.0
C      1  0.5244890000000  0.5316660000000  0.4213060000000 1.0
C      1  0.5777850000000  0.4936260000000  0.4781480000000 1.0
C      1  0.5003110000000  0.4559980000000  0.5898440000000 1.0
C      1  0.5558030000000  0.4310070000000  0.4364310000000 1.0
C      1  0.6002220000000  0.3799310000000  0.4806690000000 1.0
C      1  0.4459000000000  0.4465590000000  0.5730120000000 1.0
C      1  0.5049050000000  0.5855520000000  0.5822030000000 1.0
C      1  0.4617900000000  0.4844580000000  0.3928060000000 1.0
C      1  0.5548730000000  0.4249480000000  0.4930740000000 1.0
C      1  0.5998750000000  0.4060080000000  0.4867060000000 1.0
C      1  0.5125630000000  0.4723800000000  0.5402590000000 1.0
C      1  0.5459030000000  0.4759500000000  0.4488400000000 1.0
C      1  0.5162530000000  0.5794600000000  0.4260680000000 1.0
C      1  0.5566530000000  0.5739300000000  0.4888930000000 1.0
C      1  0.4403550000000  0.5715800000000  0.4654850000000 1.0
C      1  0.5145570000000  0.5334150000000  0.5352910000000 1.0
C      1  0.5061560000000  0.4031150000000  0.4927700000000 1.0
C      1  0.5462300000000  0.5637890000000  0.5151950000000 1.0
C      1  0.5355820000000  0.4497420000000  0.4477370000000 1.0
C      1  0.5067640000000  0.4879720000000  0.4617840000000 1.0
C      1  0.5833630000000  0.5421580000000  0.4255500000000 1.0
C      1  0.3866540000000  0.5526670000000  0.4859700000000 1.0
C      1  0.5583810000000  0.5953470000000  0.5493640000000 1.0
C      1  0.5361130000000  0.6325480000000  0.5236460000000 1.0
C      1  0.3864630000000  0.4749250000000  0.5398840000000 1.0
C      1  0.4831230000000  0.4639090000000  0.5020440000000 1.0
C      1  0.4874310000000  0.6116910000000  0.4594910000000 1.0
C      1  0.4625850000000  0.3790560000000  0.5013030000000 1.0
C      1  0.4618070000000  0.5021790000000  0.4641700000000 1.0
C      1  0.5352810000000  0.6574700000000  0.5160780000000 1.0
C      1  0.4273630000000  0.4692830000000  0.5772380000000 1.0
C      1  0.4577100000000  0.5831520000000  0.4845860000000 1.0
C      1  0.5518210000000  0.4870810000000  0.4217570000000 1.0
C      1  0.5343300000000  0.4051560000000  0.4829340000000 1.0
C      1  0.5991860000000  0.4798230000000  0.4922720000000 1.0
C      1  0.4239950000000  0.4679640000000  0.4389000000000 1.0
C      1  0.5620790000000  0.5523110000000  0.5707810000000 1.0
C      1  0.4977730000000  0.4203070000000  0.4054080000000 1.0
C      1  0.4375900000000  0.4262850000000  0.5530720000000 1.0
C      1  0.5535960000000  0.5054190000000  0.5475960000000 1.0
C      1  0.6033680000000  0.4895250000000  0.4373500000000 1.0
C      1  0.4790680000000  0.5228810000000  0.4543660000000 1.0
C      1  0.4575780000000  0.4089370000000  0.5401260000000 1.0
C      1  0.4193610000000  0.4595700000000  0.4661760000000 1.0
C      1  0.4747400000000  0.5219830000000  0.4260640000000 1.0
C      1  0.3877120000000  0.4636520000000  0.5129620000000 1.0
C      1  0.5057810000000  0.4830620000000  0.4337910000000 1.0
C      1  0.4467380000000  0.5521320000000  0.4118730000000 1.0
C      1  0.5661540000000  0.5643230000000  0.5420500000000 1.0
C      1  0.4573590000000  0.5043260000000  0.4122440000000 1.0
C      1  0.5355470000000  0.5738540000000  0.4690400000000 1.0
C      1  0.5521730000000  0.4834670000000  0.4750760000000 1.0
C      1  0.4661670000000  0.4839970000000  0.5425210000000 1.0
C      1  0.3897000000000  0.4965460000000  0.4658460000000 1.0
C      1  0.5077930000000  0.4953720000000  0.5625630000000 1.0
C      1  0.5880060000000  0.5817900000000  0.4530020000000 1.0
C      1  0.4244360000000  0.5283020000000  0.5554980000000 1.0
C      1  0.5784510000000  0.4470560000000  0.4276310000000 1.0
C      1  0.5000570000000  0.5723710000000  0.5035930000000 1.0
C      1  0.4788830000000  0.5484560000000  0.6013570000000 1.0
C      1  0.5397820000000  0.4890700000000  0.5002230000000 1.0
C      1  0.4582360000000  0.4564860000000  0.4014710000000 1.0
C      1  0.4904040000000  0.4880330000000  0.3861070000000 1.0
C      1  0.5540690000000  0.5303750000000  0.4622580000000 1.0
C      1  0.5042820000000  0.5605420000000  0.5970210000000 1.0
C      1  0.4170300000000  0.4344840000000  0.4819900000000 1.0
C      1  0.4447430000000  0.4253800000000  0.4847100000000 1.0
C      1  0.4552090000000  0.5680800000000  0.5312260000000 1.0
C      1  0.3825830000000  0.4811470000000  0.4884950000000 1.0
C      1  0.4790330000000  0.3941280000000  0.4813790000000 1.0
C      1  0.4458710000000  0.3870870000000  0.5235640000000 1.0
C      1  0.4664580000000  0.4747930000000  0.4548000000000 1.0
C      1  0.4599480000000  0.4305620000000  0.4428780000000 1.0
C      1  0.5708900000000  0.5676800000000  0.4344080000000 1.0
C      1  0.5278270000000  0.5159360000000  0.5542010000000 1.0
C      1  0.4178690000000  0.3949380000000  0.5236740000000 1.0
C      1  0.5256040000000  0.4199250000000  0.5665520000000 1.0
C      1  0.6117610000000  0.5044540000000  0.5077000000000 1.0
C      1  0.4833540000000  0.6095200000000  0.5388240000000 1.0
C      1  0.5458310000000  0.5165550000000  0.5062990000000 1.0
C      1  0.4730000000000  0.4482260000000  0.5842790000000 1.0
C      1  0.5595620000000  0.5073490000000  0.5948540000000 1.0
C      1  0.4287200000000  0.5780570000000  0.5318100000000 1.0
C      1  0.4856760000000  0.5891720000000  0.5607400000000 1.0
C      1  0.5395850000000  0.4065580000000  0.4353220000000 1.0
C      1  0.4145050000000  0.4227740000000  0.5331160000000 1.0
C      1  0.5015040000000  0.4132990000000  0.5197360000000 1.0
C      1  0.4760610000000  0.5477120000000  0.4136000000000 1.0
C      1  0.5258300000000  0.4411450000000  0.5850400000000 1.0
C      1  0.5054070000000  0.5546480000000  0.4143780000000 1.0
C      1  0.4276190000000  0.5251800000000  0.4943660000000 1.0
C      1  0.5417520000000  0.3906760000000  0.4589180000000 1.0
C      1  0.4869670000000  0.4678680000000  0.5301930000000 1.0
C      1  0.5837300000000  0.4293680000000  0.4856060000000 1.0
C      1  0.4246840000000  0.5353630000000  0.4332230000000 1.0
C      1  0.5575420000000  0.3676200000000  0.4604920000000 1.0
C      1  0.4208740000000  0.5050760000000  0.5387200000000 1.0
C      1  0.5689650000000  0.4677080000000  0.4089720000000 1.0
C      1  0.3800210000000  0.5273730000000  0.5470540000000 1.0
C      1  0.5832930000000  0.4934190000000  0.5802480000000 1.0
C      1  0.4789820000000  0.6172150000000  0.5121020000000 1.0
C      1  0.5278010000000  0.5308010000000  0.4503760000000 1.0
C      1  0.5384140000000  0.4688030000000  0.5243870000000 1.0
C      1  0.4605200000000  0.4434920000000  0.5040460000000 1.0
C      1  0.5177690000000  0.4108520000000  0.5425760000000 1.0
C      1  0.5025410000000  0.4712190000000  0.4067160000000 1.0
C      1  0.5865560000000  0.5364710000000  0.5316260000000 1.0
C      1  0.5278880000000  0.5459640000000  0.6027620000000 1.0
C      1  0.3931520000000  0.5614530000000  0.4612430000000 1.0
C      1  0.6042740000000  0.5035960000000  0.5621680000000 1.0
C      1  0.5979370000000  0.4540950000000  0.4765080000000 1.0
C      1  0.5937900000000  0.5177750000000  0.4389210000000 1.0
C      1  0.5122370000000  0.4155370000000  0.4291560000000 1.0
C      1  0.4814570000000  0.4497240000000  0.4503880000000 1.0
C      1  0.5661210000000  0.5183030000000  0.5261030000000 1.0
C      1  0.4061270000000  0.5714360000000  0.5448340000000 1.0
C      1  0.4865700000000  0.4459620000000  0.4018030000000 1.0
C      1  0.4399080000000  0.4843610000000  0.5329970000000 1.0
C      1  0.4811810000000  0.5061780000000  0.5513160000000 1.0
C      1  0.5579950000000  0.4768740000000  0.5461340000000 1.0
C      1  0.4009310000000  0.5457540000000  0.5543890000000 1.0
C      1  0.5378660000000  0.6058070000000  0.5308470000000 1.0
C      1  0.4675340000000  0.5662980000000  0.5570720000000 1.0
C      1  0.4884990000000  0.5108540000000  0.5030750000000 1.0
C      1  0.5384200000000  0.4860460000000  0.5993520000000 1.0
C      1  0.5451510000000  0.4424390000000  0.5131050000000 1.0
C      1  0.5694320000000  0.4678380000000  0.5708530000000 1.0
C      1  0.4708550000000  0.5699120000000  0.5072010000000 1.0
C      1  0.5104080000000  0.4841850000000  0.5897020000000 1.0
C      1  0.4299750000000  0.4781420000000  0.4862880000000 1.0
C      1  0.4194770000000  0.5569300000000  0.4519440000000 1.0
C      1  0.5276670000000  0.6016680000000  0.5864430000000 1.0
C      1  0.5834830000000  0.5207930000000  0.4678220000000 1.0
C      1  0.5518170000000  0.5355200000000  0.5915070000000 1.0
C      1  0.5525820000000  0.6028340000000  0.5759820000000 1.0
C      1  0.4126750000000  0.5018660000000  0.4409800000000 1.0
C      1  0.5094290000000  0.5626290000000  0.4777680000000 1.0
C      1  0.4404260000000  0.5038230000000  0.4820700000000 1.0
C      1  0.5396380000000  0.5102590000000  0.4101030000000 1.0
C      1  0.4707760000000  0.5404090000000  0.6261460000000 1.0
C      1  0.6067550000000  0.5269250000000  0.4869060000000 1.0
C      1  0.4623150000000  0.5459740000000  0.5782560000000 1.0
C      1  0.5817670000000  0.5825570000000  0.4795290000000 1.0
C      1  0.4891970000000  0.5228640000000  0.5289440000000 1.0
C      1  0.5824270000000  0.3631490000000  0.4695790000000 1.0
C      1  0.4382080000000  0.4961170000000  0.5858800000000 1.0
C      1  0.4608380000000  0.4116750000000  0.4652870000000 1.0
C      1  0.5026420000000  0.5379680000000  0.4639640000000 1.0
C      1  0.5304770000000  0.5389890000000  0.5129990000000 1.0
C      1  0.4751210000000  0.4235290000000  0.5236390000000 1.0
C      1  0.4108420000000  0.4437060000000  0.5113620000000 1.0
C      1  0.4046250000000  0.5379180000000  0.4995430000000 1.0
C      1  0.4726970000000  0.6085990000000  0.4840190000000 1.0
END
