TITL C-3866671-3735-638 -707.108704635544 125000 -1134.23494444955 0 0 188 (C1) n - 1
REM
REM in /home/nfs/bkarasulu/CARBON/AIRSS/Generating-Clusters/LCBOP/Only-C1/SD-CG/FIRE-CG
REM
REM
REM
REM
REM
REM ./C.cell (11c1c37f851c82e70ff6c80c92926a4b)
REM AIRSS Version 0.9.1 bugfix July 2018 build 013d7b7c2542+ Fri, 06 Jul 2018 19:26:36 +0100
REM compiler GCC version 9.2.1 20190827 (Red Hat 9.2.1-1)
REM options -cpp -mtune=generic -march=x86-64 -g -O0 -fpre-include=/usr/include/finclude/math-vector-fortran.h
REM seed -774147001 1974528977 -1113495699 -1505840694 991528225 -1237439797 1577458276 -1978450032 1608140256 46319673 -1910213168 -262315636 -124279134 -141464237 1097212840 -532402081 1579372287 1030031748 1718965526 1143963893 741777134 1428045125 -269852026 -1149043060 -1703904862 -1143247108 1203304340 -36110879 753444036 -1516167934 1475723386 922480574 -1727705632
REM
CELL 1.54180   50.00000   50.00000   50.00000   90.00000   90.00000   90.00000
LATT -1
SFAC C  
C      1  0.5549690000000  0.4003560000000  0.5036330000000 1.0
C      1  0.4890380000000  0.5389940000000  0.5387890000000 1.0
C      1  0.4847920000000  0.5981770000000  0.5572570000000 1.0
C      1  0.5280310000000  0.6077270000000  0.4785630000000 1.0
C      1  0.5091350000000  0.4737030000000  0.5586060000000 1.0
C      1  0.4284520000000  0.5045400000000  0.5926900000000 1.0
C      1  0.4855260000000  0.6460900000000  0.5261730000000 1.0
C      1  0.5186200000000  0.4140260000000  0.5544300000000 1.0
C      1  0.5226440000000  0.5810380000000  0.3932060000000 1.0
C      1  0.5634440000000  0.5776950000000  0.4245540000000 1.0
C      1  0.5916400000000  0.4139030000000  0.5386380000000 1.0
C      1  0.4801430000000  0.5214290000000  0.4855680000000 1.0
C      1  0.4778440000000  0.4290180000000  0.5418530000000 1.0
C      1  0.4454550000000  0.5361950000000  0.5976760000000 1.0
C      1  0.3868180000000  0.5210480000000  0.5359520000000 1.0
C      1  0.4926450000000  0.5508080000000  0.6078000000000 1.0
C      1  0.5116690000000  0.5479060000000  0.4244510000000 1.0
C      1  0.3904280000000  0.5535780000000  0.4980780000000 1.0
C      1  0.4743660000000  0.6309800000000  0.4504070000000 1.0
C      1  0.5520850000000  0.5726740000000  0.5435470000000 1.0
C      1  0.5852130000000  0.4899290000000  0.4745400000000 1.0
C      1  0.5249940000000  0.5643100000000  0.4457820000000 1.0
C      1  0.6219950000000  0.5108540000000  0.5319820000000 1.0
C      1  0.4686410000000  0.4289010000000  0.4816470000000 1.0
C      1  0.3784480000000  0.5277240000000  0.4903200000000 1.0
C      1  0.6062200000000  0.4289460000000  0.5562290000000 1.0
C      1  0.5341180000000  0.4613770000000  0.3779830000000 1.0
C      1  0.5364940000000  0.4330960000000  0.3820700000000 1.0
C      1  0.4622930000000  0.5483720000000  0.5309340000000 1.0
C      1  0.4646280000000  0.4468210000000  0.5264310000000 1.0
C      1  0.4161000000000  0.4058990000000  0.5701760000000 1.0
C      1  0.5238100000000  0.5169630000000  0.4674080000000 1.0
C      1  0.5880310000000  0.5167720000000  0.6275990000000 1.0
C      1  0.4237860000000  0.5118830000000  0.4900910000000 1.0
C      1  0.5092870000000  0.5763070000000  0.5185260000000 1.0
C      1  0.5637890000000  0.4640240000000  0.5564990000000 1.0
C      1  0.4419310000000  0.4905760000000  0.4770110000000 1.0
C      1  0.5585600000000  0.4794840000000  0.6145400000000 1.0
C      1  0.5226770000000  0.4281260000000  0.6002060000000 1.0
C      1  0.4220990000000  0.4137100000000  0.4554220000000 1.0
C      1  0.4329930000000  0.5114900000000  0.5179690000000 1.0
C      1  0.4644610000000  0.4735360000000  0.5341520000000 1.0
C      1  0.5984210000000  0.5628290000000  0.5220640000000 1.0
C      1  0.6130040000000  0.4610250000000  0.4474520000000 1.0
C      1  0.4861100000000  0.4336060000000  0.4219850000000 1.0
C      1  0.5135020000000  0.4337800000000  0.5078170000000 1.0
C      1  0.4241380000000  0.5634580000000  0.4058550000000 1.0
C      1  0.4751650000000  0.4313070000000  0.5714080000000 1.0
C      1  0.4405010000000  0.5172440000000  0.4354810000000 1.0
C      1  0.5767910000000  0.5065880000000  0.5808720000000 1.0
C      1  0.4175450000000  0.5655680000000  0.5390300000000 1.0
C      1  0.5259730000000  0.4154010000000  0.3640360000000 1.0
C      1  0.4924590000000  0.6383290000000  0.4686700000000 1.0
C      1  0.4612190000000  0.4419450000000  0.4566850000000 1.0
C      1  0.5736780000000  0.4388940000000  0.4111310000000 1.0
C      1  0.5910960000000  0.4295510000000  0.4787810000000 1.0
C      1  0.4875680000000  0.5116230000000  0.5439120000000 1.0
C      1  0.5026610000000  0.3795660000000  0.5020160000000 1.0
C      1  0.3973820000000  0.5116130000000  0.4768510000000 1.0
C      1  0.4470810000000  0.4441150000000  0.5775490000000 1.0
C      1  0.5699670000000  0.5596590000000  0.5254160000000 1.0
C      1  0.5955630000000  0.4488410000000  0.6006650000000 1.0
C      1  0.5495290000000  0.4370790000000  0.5948880000000 1.0
C      1  0.5644060000000  0.4081910000000  0.5304800000000 1.0
C      1  0.5076120000000  0.5589800000000  0.4959700000000 1.0
C      1  0.4485420000000  0.5311430000000  0.3804480000000 1.0
C      1  0.4645760000000  0.5238190000000  0.4261630000000 1.0
C      1  0.4555320000000  0.4345380000000  0.4126500000000 1.0
C      1  0.4125430000000  0.4290280000000  0.5055670000000 1.0
C      1  0.5949830000000  0.4507900000000  0.4984870000000 1.0
C      1  0.5632530000000  0.6386430000000  0.4684330000000 1.0
C      1  0.5507790000000  0.4236350000000  0.4055100000000 1.0
C      1  0.5008300000000  0.5655290000000  0.4036700000000 1.0
C      1  0.4706820000000  0.5764680000000  0.5737570000000 1.0
C      1  0.5348220000000  0.3814030000000  0.4659730000000 1.0
C      1  0.5156240000000  0.4898170000000  0.4633510000000 1.0
C      1  0.4268370000000  0.4094840000000  0.4856170000000 1.0
C      1  0.5563760000000  0.6149840000000  0.4812150000000 1.0
C      1  0.4590020000000  0.6083420000000  0.4440150000000 1.0
C      1  0.4758400000000  0.4788130000000  0.4181130000000 1.0
C      1  0.5134830000000  0.5332260000000  0.6481260000000 1.0
C      1  0.5369620000000  0.5012010000000  0.4123180000000 1.0
C      1  0.4493200000000  0.5561600000000  0.3942730000000 1.0
C      1  0.3922160000000  0.4879300000000  0.4313410000000 1.0
C      1  0.4970740000000  0.4272580000000  0.4859040000000 1.0
C      1  0.5065990000000  0.6110890000000  0.5718310000000 1.0
C      1  0.3949980000000  0.5631860000000  0.4495070000000 1.0
C      1  0.5843640000000  0.5220100000000  0.4171810000000 1.0
C      1  0.4555660000000  0.4023730000000  0.4893200000000 1.0
C      1  0.5590850000000  0.5464490000000  0.5021910000000 1.0
C      1  0.4085790000000  0.3819900000000  0.5773070000000 1.0
C      1  0.4009070000000  0.5694350000000  0.4766830000000 1.0
C      1  0.5070790000000  0.5519630000000  0.5571990000000 1.0
C      1  0.5542210000000  0.5950230000000  0.5609980000000 1.0
C      1  0.5707410000000  0.4895830000000  0.5608400000000 1.0
C      1  0.4651890000000  0.5932820000000  0.4210910000000 1.0
C      1  0.4420350000000  0.4285820000000  0.4394070000000 1.0
C      1  0.5421050000000  0.4970210000000  0.5157850000000 1.0
C      1  0.5379510000000  0.4496030000000  0.4705990000000 1.0
C      1  0.4071570000000  0.4821850000000  0.4094640000000 1.0
C      1  0.5130100000000  0.5510520000000  0.6275170000000 1.0
C      1  0.4209670000000  0.5682670000000  0.5670110000000 1.0
C      1  0.4827470000000  0.4600980000000  0.4419900000000 1.0
C      1  0.4893260000000  0.4802200000000  0.4634700000000 1.0
C      1  0.4397440000000  0.5054730000000  0.3809600000000 1.0
C      1  0.4092370000000  0.4535460000000  0.4903010000000 1.0
C      1  0.5473260000000  0.5226250000000  0.4523400000000 1.0
C      1  0.4217210000000  0.5882900000000  0.4785970000000 1.0
C      1  0.5676910000000  0.4119110000000  0.4776520000000 1.0
C      1  0.5467980000000  0.5222500000000  0.5089300000000 1.0
C      1  0.4534540000000  0.4642550000000  0.4043050000000 1.0
C      1  0.4922640000000  0.5980560000000  0.5279950000000 1.0
C      1  0.4946070000000  0.5136010000000  0.6495900000000 1.0
C      1  0.5631340000000  0.5569840000000  0.4753330000000 1.0
C      1  0.4321480000000  0.4818120000000  0.3954640000000 1.0
C      1  0.5753020000000  0.5018990000000  0.6087530000000 1.0
C      1  0.5511350000000  0.4719660000000  0.5077250000000 1.0
C      1  0.5369440000000  0.4134270000000  0.4287280000000 1.0
C      1  0.4448100000000  0.5618640000000  0.5813700000000 1.0
C      1  0.4753210000000  0.4912670000000  0.6087680000000 1.0
C      1  0.5071950000000  0.6248760000000  0.4886820000000 1.0
C      1  0.5036950000000  0.4217610000000  0.5795520000000 1.0
C      1  0.5316240000000  0.4829910000000  0.6061940000000 1.0
C      1  0.5109690000000  0.5183100000000  0.4176160000000 1.0
C      1  0.4353780000000  0.4676480000000  0.4950460000000 1.0
C      1  0.4849440000000  0.5060820000000  0.4182050000000 1.0
C      1  0.6026340000000  0.5072710000000  0.4327210000000 1.0
C      1  0.5337430000000  0.6093690000000  0.5718640000000 1.0
C      1  0.4348120000000  0.4947020000000  0.4489760000000 1.0
C      1  0.4724090000000  0.5715850000000  0.4039440000000 1.0
C      1  0.4405910000000  0.5997560000000  0.4635110000000 1.0
C      1  0.5181560000000  0.4791930000000  0.5832920000000 1.0
C      1  0.4559290000000  0.4469150000000  0.5004250000000 1.0
C      1  0.5302950000000  0.3840890000000  0.4947450000000 1.0
C      1  0.4250970000000  0.4310770000000  0.5617230000000 1.0
C      1  0.5176170000000  0.5877180000000  0.4605800000000 1.0
C      1  0.5785380000000  0.6017830000000  0.4944060000000 1.0
C      1  0.5497160000000  0.4033840000000  0.4536470000000 1.0
C      1  0.3770130000000  0.3948620000000  0.4324370000000 1.0
C      1  0.5250100000000  0.5656730000000  0.5403250000000 1.0
C      1  0.4380970000000  0.4698650000000  0.5908670000000 1.0
C      1  0.5554270000000  0.4390950000000  0.5666450000000 1.0
C      1  0.5346250000000  0.4504990000000  0.4992570000000 1.0
C      1  0.5085040000000  0.4175210000000  0.4267940000000 1.0
C      1  0.6247800000000  0.4989320000000  0.5579210000000 1.0
C      1  0.3898430000000  0.4646280000000  0.4737060000000 1.0
C      1  0.4708830000000  0.4962750000000  0.4777060000000 1.0
C      1  0.4111920000000  0.4734160000000  0.5392770000000 1.0
C      1  0.4906280000000  0.4842640000000  0.5402910000000 1.0
C      1  0.4622310000000  0.5113070000000  0.5592290000000 1.0
C      1  0.5052360000000  0.5339630000000  0.4824630000000 1.0
C      1  0.5456160000000  0.4762170000000  0.4289800000000 1.0
C      1  0.5685730000000  0.4528550000000  0.6095110000000 1.0
C      1  0.6065860000000  0.4358870000000  0.4556560000000 1.0
C      1  0.5340330000000  0.4710710000000  0.4535260000000 1.0
C      1  0.4687170000000  0.5355120000000  0.6150240000000 1.0
C      1  0.6190940000000  0.4636720000000  0.5075960000000 1.0
C      1  0.6025320000000  0.4870870000000  0.4520800000000 1.0
C      1  0.4950000000000  0.6231530000000  0.5144410000000 1.0
C      1  0.4756670000000  0.3835090000000  0.4979200000000 1.0
C      1  0.5922240000000  0.5356840000000  0.3949410000000 1.0
C      1  0.3974230000000  0.5489610000000  0.5271490000000 1.0
C      1  0.6103680000000  0.4496020000000  0.5760030000000 1.0
C      1  0.4052020000000  0.5047230000000  0.5776190000000 1.0
C      1  0.5694210000000  0.4635550000000  0.4208080000000 1.0
C      1  0.4357870000000  0.4822210000000  0.5233150000000 1.0
C      1  0.4939080000000  0.5598400000000  0.5812280000000 1.0
C      1  0.5545900000000  0.5651770000000  0.4488690000000 1.0
C      1  0.6248740000000  0.4899970000000  0.5124240000000 1.0
C      1  0.5480970000000  0.5841820000000  0.4027780000000 1.0
C      1  0.4050260000000  0.5631400000000  0.4246140000000 1.0
C      1  0.3990240000000  0.4033650000000  0.4434940000000 1.0
C      1  0.5990210000000  0.5871630000000  0.5058530000000 1.0
C      1  0.4128660000000  0.4432140000000  0.5383310000000 1.0
C      1  0.3898780000000  0.4893650000000  0.4597720000000 1.0
C      1  0.3682370000000  0.5153710000000  0.5141470000000 1.0
C      1  0.5573160000000  0.5201000000000  0.4251580000000 1.0
C      1  0.6229080000000  0.4743990000000  0.5693560000000 1.0
C      1  0.3978240000000  0.4981390000000  0.5509190000000 1.0
C      1  0.4429190000000  0.5683710000000  0.5253050000000 1.0
C      1  0.5462890000000  0.4174670000000  0.5508940000000 1.0
C      1  0.5350340000000  0.4875420000000  0.3854480000000 1.0
C      1  0.4456560000000  0.5250110000000  0.5393420000000 1.0
C      1  0.5764060000000  0.4723240000000  0.4948880000000 1.0
C      1  0.5037980000000  0.4228430000000  0.5323370000000 1.0
C      1  0.6142900000000  0.5386900000000  0.5268060000000 1.0
C      1  0.4702300000000  0.4978270000000  0.5829720000000 1.0
C      1  0.4755390000000  0.5109240000000  0.6289160000000 1.0
END
