TITL C-3866670-4165-734 -4.72098674945744e-07 125000 -675.811184788677 0 0 113 (C1) n - 1
REM
REM in /home/nfs/bkarasulu/CARBON/AIRSS/Generating-Clusters/LCBOP/Only-C1/SD-CG/FIRE-CG
REM
REM
REM
REM
REM
REM ./C.cell (11c1c37f851c82e70ff6c80c92926a4b)
REM AIRSS Version 0.9.1 bugfix July 2018 build 013d7b7c2542+ Fri, 06 Jul 2018 19:26:36 +0100
REM compiler GCC version 9.2.1 20190827 (Red Hat 9.2.1-1)
REM options -cpp -mtune=generic -march=x86-64 -g -O0 -fpre-include=/usr/include/finclude/math-vector-fortran.h
REM seed 1216412815 432339855 -1246287286 -178696586 -1598209767 -205002810 -158582847 -788999774 -22309566 1502899096 -1247805854 983739054 -223600322 -786974497 2020207941 1879374409 869933172 -505294237 -341187589 -271078862 871960405 -384800969 1167123196 -1605556371 -3074403 -2035280215 -1263827447 -1720860414 2080469117 830484936 316161356 -1310053873 -1317415806
REM
CELL 1.54180   50.00000   50.00000   50.00000   90.00000   90.00000   90.00000
LATT -1
SFAC C  
C      1  0.4434640000000  0.4829080000000  0.5819770000000 1.0
C      1  0.4183450000000  0.4813530000000  0.4142550000000 1.0
C      1  0.4110570000000  0.4581650000000  0.4048630000000 1.0
C      1  0.5316230000000  0.4199410000000  0.5630410000000 1.0
C      1  0.5221380000000  0.5082240000000  0.5340350000000 1.0
C      1  0.5516080000000  0.4348490000000  0.4421510000000 1.0
C      1  0.5206700000000  0.5433190000000  0.4227560000000 1.0
C      1  0.5067750000000  0.5846400000000  0.5610530000000 1.0
C      1  0.5183180000000  0.5640450000000  0.5036610000000 1.0
C      1  0.5546490000000  0.5642370000000  0.5418390000000 1.0
C      1  0.5525690000000  0.4150260000000  0.4840150000000 1.0
C      1  0.5636000000000  0.5777660000000  0.4794740000000 1.0
C      1  0.5130720000000  0.4348390000000  0.5783210000000 1.0
C      1  0.4885000000000  0.5218190000000  0.4463350000000 1.0
C      1  0.5389900000000  0.5044080000000  0.4532330000000 1.0
C      1  0.5272900000000  0.4671270000000  0.4030660000000 1.0
C      1  0.6000580000000  0.4913990000000  0.4492450000000 1.0
C      1  0.4678300000000  0.4252060000000  0.5413660000000 1.0
C      1  0.5037440000000  0.5858160000000  0.4490950000000 1.0
C      1  0.4924710000000  0.5113110000000  0.5299180000000 1.0
C      1  0.5036880000000  0.5278170000000  0.4708360000000 1.0
C      1  0.5710670000000  0.5833410000000  0.5292050000000 1.0
C      1  0.4348550000000  0.5372620000000  0.4597290000000 1.0
C      1  0.5032320000000  0.5952730000000  0.5365800000000 1.0
C      1  0.5687340000000  0.5305250000000  0.4830730000000 1.0
C      1  0.4454650000000  0.4261350000000  0.4960350000000 1.0
C      1  0.4698080000000  0.4228650000000  0.5124220000000 1.0
C      1  0.5896960000000  0.3866930000000  0.4975220000000 1.0
C      1  0.4239540000000  0.4447630000000  0.5007060000000 1.0
C      1  0.4793780000000  0.4944390000000  0.4385990000000 1.0
C      1  0.5851660000000  0.4726850000000  0.5117980000000 1.0
C      1  0.4535590000000  0.5658620000000  0.5694480000000 1.0
C      1  0.4835360000000  0.5972130000000  0.4661400000000 1.0
C      1  0.5363930000000  0.4296900000000  0.5363580000000 1.0
C      1  0.5063290000000  0.4132350000000  0.4730400000000 1.0
C      1  0.4932800000000  0.5341160000000  0.4196130000000 1.0
C      1  0.4766600000000  0.5515090000000  0.5787850000000 1.0
C      1  0.4556250000000  0.4845340000000  0.5307820000000 1.0
C      1  0.5640260000000  0.4889620000000  0.5625180000000 1.0
C      1  0.4569200000000  0.5727520000000  0.5029680000000 1.0
C      1  0.4811660000000  0.4915140000000  0.4099580000000 1.0
C      1  0.4891390000000  0.4003690000000  0.4549720000000 1.0
C      1  0.5796900000000  0.4106990000000  0.4895570000000 1.0
C      1  0.5330610000000  0.4295650000000  0.4661890000000 1.0
C      1  0.4314300000000  0.5587910000000  0.4413780000000 1.0
C      1  0.5183130000000  0.4182610000000  0.5183820000000 1.0
C      1  0.5047740000000  0.5012310000000  0.4836840000000 1.0
C      1  0.4883250000000  0.4551420000000  0.6111140000000 1.0
C      1  0.4501770000000  0.5088450000000  0.5711930000000 1.0
C      1  0.5727930000000  0.5886780000000  0.5026010000000 1.0
C      1  0.4622090000000  0.3996880000000  0.4552730000000 1.0
C      1  0.4689020000000  0.6183400000000  0.4563540000000 1.0
C      1  0.5398040000000  0.5254790000000  0.5193620000000 1.0
C      1  0.5044010000000  0.5597460000000  0.5746070000000 1.0
C      1  0.5420710000000  0.4778400000000  0.5815540000000 1.0
C      1  0.5521310000000  0.4757500000000  0.4145920000000 1.0
C      1  0.4644600000000  0.5445920000000  0.5033160000000 1.0
C      1  0.4165170000000  0.4677880000000  0.5167210000000 1.0
C      1  0.4797890000000  0.4869230000000  0.4836460000000 1.0
C      1  0.4601140000000  0.4829530000000  0.5020130000000 1.0
C      1  0.4692630000000  0.5249340000000  0.5845510000000 1.0
C      1  0.4544950000000  0.5347630000000  0.4791390000000 1.0
C      1  0.5831140000000  0.4710630000000  0.4575850000000 1.0
C      1  0.4207060000000  0.5512440000000  0.5303080000000 1.0
C      1  0.4830360000000  0.4852090000000  0.5409090000000 1.0
C      1  0.5663240000000  0.5211720000000  0.5095390000000 1.0
C      1  0.4449690000000  0.5239920000000  0.4096410000000 1.0
C      1  0.5841350000000  0.5206320000000  0.5318390000000 1.0
C      1  0.5266170000000  0.4858070000000  0.4714640000000 1.0
C      1  0.5194290000000  0.4620810000000  0.5707010000000 1.0
C      1  0.5196860000000  0.5701180000000  0.4334290000000 1.0
C      1  0.4112400000000  0.5000770000000  0.4772290000000 1.0
C      1  0.5554800000000  0.5043270000000  0.4114860000000 1.0
C      1  0.4446100000000  0.4105420000000  0.4724280000000 1.0
C      1  0.4221670000000  0.5123770000000  0.4533870000000 1.0
C      1  0.5643600000000  0.4603170000000  0.4368900000000 1.0
C      1  0.5879740000000  0.4610520000000  0.4850560000000 1.0
C      1  0.4428350000000  0.4587270000000  0.5665400000000 1.0
C      1  0.5555270000000  0.5451120000000  0.5645000000000 1.0
C      1  0.4338810000000  0.4663780000000  0.5400730000000 1.0
C      1  0.5044650000000  0.4695150000000  0.5481460000000 1.0
C      1  0.4210190000000  0.5830290000000  0.4479550000000 1.0
C      1  0.5519600000000  0.5521040000000  0.4739070000000 1.0
C      1  0.5349360000000  0.5532280000000  0.5235830000000 1.0
C      1  0.4965660000000  0.4173970000000  0.5005720000000 1.0
C      1  0.5254680000000  0.4779370000000  0.5299730000000 1.0
C      1  0.4469170000000  0.5127180000000  0.5399910000000 1.0
C      1  0.4943930000000  0.4538700000000  0.4553630000000 1.0
C      1  0.4786230000000  0.5887760000000  0.4934350000000 1.0
C      1  0.5275140000000  0.5413720000000  0.5741830000000 1.0
C      1  0.4731730000000  0.5189090000000  0.4028290000000 1.0
C      1  0.5710860000000  0.5187070000000  0.5583100000000 1.0
C      1  0.4639490000000  0.4382970000000  0.5672010000000 1.0
C      1  0.4292230000000  0.5713830000000  0.5109120000000 1.0
C      1  0.5093050000000  0.4713450000000  0.6186810000000 1.0
C      1  0.4303490000000  0.5599800000000  0.5563760000000 1.0
C      1  0.4281420000000  0.5049220000000  0.4255340000000 1.0
C      1  0.5332460000000  0.4812410000000  0.6090230000000 1.0
C      1  0.5400520000000  0.5212070000000  0.4290010000000 1.0
C      1  0.5016470000000  0.5858810000000  0.5100280000000 1.0
C      1  0.4704250000000  0.5289170000000  0.5258550000000 1.0
C      1  0.4767940000000  0.4751370000000  0.4580990000000 1.0
C      1  0.5954320000000  0.4336500000000  0.4861780000000 1.0
C      1  0.5206590000000  0.4577240000000  0.4671720000000 1.0
C      1  0.5016240000000  0.4750740000000  0.3998120000000 1.0
C      1  0.5699590000000  0.4712680000000  0.5368900000000 1.0
C      1  0.4853700000000  0.4378180000000  0.5877700000000 1.0
C      1  0.5219400000000  0.5154600000000  0.5637510000000 1.0
C      1  0.4377010000000  0.5511020000000  0.4148010000000 1.0
C      1  0.5223060000000  0.5491610000000  0.4788630000000 1.0
C      1  0.4210730000000  0.5209460000000  0.5252100000000 1.0
C      1  0.5453140000000  0.4569860000000  0.5310010000000 1.0
C      1  0.4121090000000  0.4967510000000  0.5065760000000 1.0
END
