TITL C-3866676-3738-774 -0.0192416636963131 125000 -938.537812938236 0 0 153 (C1) n - 1
REM
REM in /home/nfs/bkarasulu/CARBON/AIRSS/Generating-Clusters/LCBOP/Only-C1/SD-CG/FIRE-CG
REM
REM
REM
REM
REM
REM ./C.cell (11c1c37f851c82e70ff6c80c92926a4b)
REM AIRSS Version 0.9.1 bugfix July 2018 build 013d7b7c2542+ Fri, 06 Jul 2018 19:26:36 +0100
REM compiler GCC version 9.2.1 20190827 (Red Hat 9.2.1-1)
REM options -cpp -mtune=generic -march=x86-64 -g -O0 -fpre-include=/usr/include/finclude/math-vector-fortran.h
REM seed -920029539 1625036865 289624504 1755424667 1293803434 -925627031 1084840654 473017396 821598293 -1888427612 977554455 1456058327 719728950 1292196769 -983484278 -733009827 1572932304 -1391378924 -565630736 1317251429 861160353 685802275 836442954 -936697158 -1566126896 -324944339 -1656366685 1774219876 -2054132646 541714860 84043648 1580026958 2086348255
REM
CELL 1.54180   50.00000   50.00000   50.00000   90.00000   90.00000   90.00000
LATT -1
SFAC C  
C      1  0.4362470000000  0.4328390000000  0.5538530000000 1.0
C      1  0.4978450000000  0.5148600000000  0.6087020000000 1.0
C      1  0.5886050000000  0.4891570000000  0.5619420000000 1.0
C      1  0.4901510000000  0.4463830000000  0.5612810000000 1.0
C      1  0.5101090000000  0.5263690000000  0.5115400000000 1.0
C      1  0.4421360000000  0.4414870000000  0.4420220000000 1.0
C      1  0.4122600000000  0.4684100000000  0.4002570000000 1.0
C      1  0.4881710000000  0.5477800000000  0.4146200000000 1.0
C      1  0.5610240000000  0.5710430000000  0.5699080000000 1.0
C      1  0.4168340000000  0.5335400000000  0.5425490000000 1.0
C      1  0.4681980000000  0.5481160000000  0.4922410000000 1.0
C      1  0.4961720000000  0.3982500000000  0.5456690000000 1.0
C      1  0.5336740000000  0.4884590000000  0.4539250000000 1.0
C      1  0.5795680000000  0.4849230000000  0.4639940000000 1.0
C      1  0.5878140000000  0.4971410000000  0.4029730000000 1.0
C      1  0.5088030000000  0.4331900000000  0.5015790000000 1.0
C      1  0.5422300000000  0.6560730000000  0.5246690000000 1.0
C      1  0.3360570000000  0.5534890000000  0.5067470000000 1.0
C      1  0.4867500000000  0.4557450000000  0.3823960000000 1.0
C      1  0.4255490000000  0.4619370000000  0.4540880000000 1.0
C      1  0.4542900000000  0.5425670000000  0.5160490000000 1.0
C      1  0.5209610000000  0.4704900000000  0.4714650000000 1.0
C      1  0.5195430000000  0.4891180000000  0.4302780000000 1.0
C      1  0.4357300000000  0.3864760000000  0.5388420000000 1.0
C      1  0.5910050000000  0.4715670000000  0.4104530000000 1.0
C      1  0.4109120000000  0.5857940000000  0.4875350000000 1.0
C      1  0.4140890000000  0.5383020000000  0.4898460000000 1.0
C      1  0.5410220000000  0.5922880000000  0.5640040000000 1.0
C      1  0.4940860000000  0.5367430000000  0.4876150000000 1.0
C      1  0.3595740000000  0.4611030000000  0.4851860000000 1.0
C      1  0.4431180000000  0.4822380000000  0.5749150000000 1.0
C      1  0.4393930000000  0.4611450000000  0.5553020000000 1.0
C      1  0.3422430000000  0.4616440000000  0.5046540000000 1.0
C      1  0.4529070000000  0.4847330000000  0.6018430000000 1.0
C      1  0.6098540000000  0.4736320000000  0.5504240000000 1.0
C      1  0.4427030000000  0.4172040000000  0.4845920000000 1.0
C      1  0.3775630000000  0.4611830000000  0.4657370000000 1.0
C      1  0.5521450000000  0.5145190000000  0.4920590000000 1.0
C      1  0.4947080000000  0.6010780000000  0.5179280000000 1.0
C      1  0.6076050000000  0.5228250000000  0.4766340000000 1.0
C      1  0.4851640000000  0.5334000000000  0.4396160000000 1.0
C      1  0.4493450000000  0.4684440000000  0.5292550000000 1.0
C      1  0.4675180000000  0.6113670000000  0.5153090000000 1.0
C      1  0.5250360000000  0.5557400000000  0.4523030000000 1.0
C      1  0.4990460000000  0.5062440000000  0.3807390000000 1.0
C      1  0.5843430000000  0.4533550000000  0.4292130000000 1.0
C      1  0.4491070000000  0.5984010000000  0.5333860000000 1.0
C      1  0.6004220000000  0.4848900000000  0.5053570000000 1.0
C      1  0.4725410000000  0.5014520000000  0.6110270000000 1.0
C      1  0.4831100000000  0.5299570000000  0.3918190000000 1.0
C      1  0.4819510000000  0.4428620000000  0.4081820000000 1.0
C      1  0.5705010000000  0.4236430000000  0.4908580000000 1.0
C      1  0.6084980000000  0.4452880000000  0.5511670000000 1.0
C      1  0.4933650000000  0.3806120000000  0.4691550000000 1.0
C      1  0.5258790000000  0.4413460000000  0.4710620000000 1.0
C      1  0.4940900000000  0.5886700000000  0.5453070000000 1.0
C      1  0.5986830000000  0.4262140000000  0.5349160000000 1.0
C      1  0.4547230000000  0.5058950000000  0.5621420000000 1.0
C      1  0.5036670000000  0.5386890000000  0.4609340000000 1.0
C      1  0.3991330000000  0.5554760000000  0.5479450000000 1.0
C      1  0.5506150000000  0.4543090000000  0.5638230000000 1.0
C      1  0.6195230000000  0.4836920000000  0.5257320000000 1.0
C      1  0.4431950000000  0.4130480000000  0.5340910000000 1.0
C      1  0.4911550000000  0.4733410000000  0.5594240000000 1.0
C      1  0.4553880000000  0.5191600000000  0.3899590000000 1.0
C      1  0.5911310000000  0.5419330000000  0.4895490000000 1.0
C      1  0.5746700000000  0.4576310000000  0.4554150000000 1.0
C      1  0.5386480000000  0.4400440000000  0.5863950000000 1.0
C      1  0.4438250000000  0.4168660000000  0.4563000000000 1.0
C      1  0.5493550000000  0.6329600000000  0.5343690000000 1.0
C      1  0.5808080000000  0.5671550000000  0.4825940000000 1.0
C      1  0.4566800000000  0.4192760000000  0.5089880000000 1.0
C      1  0.5464500000000  0.4802190000000  0.5228820000000 1.0
C      1  0.4542360000000  0.4903690000000  0.3871110000000 1.0
C      1  0.5587310000000  0.4790810000000  0.6021220000000 1.0
C      1  0.3592870000000  0.5607500000000  0.5160570000000 1.0
C      1  0.4927990000000  0.5155920000000  0.5335740000000 1.0
C      1  0.5136720000000  0.5542370000000  0.5722470000000 1.0
C      1  0.4973240000000  0.3834600000000  0.5231750000000 1.0
C      1  0.4664560000000  0.5783720000000  0.5471070000000 1.0
C      1  0.4812100000000  0.4992970000000  0.5527580000000 1.0
C      1  0.5737840000000  0.4793620000000  0.5142760000000 1.0
C      1  0.5287770000000  0.5015530000000  0.5071930000000 1.0
C      1  0.4213150000000  0.5959430000000  0.5362380000000 1.0
C      1  0.5486370000000  0.5481200000000  0.4392840000000 1.0
C      1  0.5000630000000  0.4197220000000  0.5637390000000 1.0
C      1  0.5549870000000  0.6072350000000  0.5428320000000 1.0
C      1  0.4266890000000  0.3350100000000  0.5444440000000 1.0
C      1  0.5575470000000  0.4394470000000  0.4712560000000 1.0
C      1  0.5761980000000  0.5898200000000  0.5325070000000 1.0
C      1  0.5646250000000  0.5371390000000  0.4208490000000 1.0
C      1  0.5184970000000  0.4714490000000  0.6227150000000 1.0
C      1  0.4803300000000  0.4360650000000  0.5074520000000 1.0
C      1  0.5644760000000  0.5265570000000  0.6057560000000 1.0
C      1  0.5289590000000  0.4503270000000  0.4073160000000 1.0
C      1  0.4550400000000  0.4491580000000  0.4173610000000 1.0
C      1  0.5261040000000  0.5496670000000  0.5218070000000 1.0
C      1  0.5291360000000  0.4788310000000  0.4058970000000 1.0
C      1  0.5564120000000  0.5758240000000  0.4904470000000 1.0
C      1  0.5216430000000  0.4184110000000  0.5819280000000 1.0
C      1  0.4593460000000  0.5511200000000  0.5434760000000 1.0
C      1  0.5026330000000  0.5382660000000  0.5927950000000 1.0
C      1  0.5262460000000  0.4987020000000  0.3852470000000 1.0
C      1  0.4308010000000  0.3606210000000  0.5418500000000 1.0
C      1  0.4914880000000  0.4879480000000  0.4332220000000 1.0
C      1  0.4601780000000  0.4923790000000  0.4793040000000 1.0
C      1  0.5315760000000  0.5720820000000  0.5038300000000 1.0
C      1  0.5074000000000  0.4366970000000  0.4217420000000 1.0
C      1  0.5488800000000  0.5147600000000  0.3812960000000 1.0
C      1  0.5011250000000  0.6255070000000  0.4625500000000 1.0
C      1  0.4967400000000  0.3770020000000  0.4970460000000 1.0
C      1  0.3979720000000  0.4630310000000  0.4470180000000 1.0
C      1  0.5262220000000  0.4370560000000  0.5232310000000 1.0
C      1  0.5482820000000  0.5045360000000  0.6112440000000 1.0
C      1  0.4516820000000  0.5617920000000  0.4732090000000 1.0
C      1  0.5203440000000  0.5004110000000  0.6185460000000 1.0
C      1  0.5095850000000  0.3985740000000  0.4546930000000 1.0
C      1  0.4973160000000  0.5748520000000  0.4205700000000 1.0
C      1  0.5851760000000  0.4194060000000  0.5128200000000 1.0
C      1  0.5766210000000  0.5638980000000  0.5458200000000 1.0
C      1  0.6016310000000  0.4948690000000  0.4789720000000 1.0
C      1  0.5396150000000  0.4571350000000  0.6094170000000 1.0
C      1  0.4949530000000  0.6504620000000  0.4582830000000 1.0
C      1  0.4404260000000  0.4692640000000  0.4006470000000 1.0
C      1  0.4026610000000  0.5883920000000  0.5145230000000 1.0
C      1  0.5118440000000  0.5809420000000  0.4456480000000 1.0
C      1  0.5787360000000  0.5358020000000  0.5371560000000 1.0
C      1  0.5850490000000  0.5178220000000  0.5596200000000 1.0
C      1  0.4233330000000  0.5624980000000  0.4770760000000 1.0
C      1  0.5680880000000  0.4748360000000  0.5752390000000 1.0
C      1  0.3935260000000  0.4662720000000  0.4194020000000 1.0
C      1  0.3845810000000  0.5673780000000  0.5250520000000 1.0
C      1  0.4121340000000  0.5793840000000  0.5586320000000 1.0
C      1  0.5729380000000  0.5291820000000  0.5085550000000 1.0
C      1  0.5696660000000  0.5185640000000  0.4002450000000 1.0
C      1  0.5136750000000  0.4257640000000  0.4480400000000 1.0
C      1  0.4807850000000  0.4825210000000  0.4954080000000 1.0
C      1  0.5394970000000  0.4570750000000  0.5378500000000 1.0
C      1  0.5560300000000  0.5009280000000  0.4662250000000 1.0
C      1  0.5817470000000  0.5299030000000  0.5853580000000 1.0
C      1  0.4380680000000  0.4828520000000  0.4677580000000 1.0
C      1  0.5088210000000  0.4839130000000  0.4926260000000 1.0
C      1  0.4692420000000  0.3744250000000  0.4557390000000 1.0
C      1  0.4744780000000  0.5078640000000  0.4380180000000 1.0
C      1  0.4509170000000  0.3916770000000  0.4458570000000 1.0
C      1  0.5138040000000  0.5827310000000  0.5649970000000 1.0
C      1  0.5077680000000  0.5988330000000  0.4681230000000 1.0
C      1  0.5279260000000  0.5434740000000  0.5498690000000 1.0
C      1  0.4808440000000  0.4830740000000  0.3776110000000 1.0
C      1  0.4265270000000  0.5321270000000  0.5144990000000 1.0
C      1  0.4713960000000  0.4628200000000  0.5127850000000 1.0
C      1  0.4426120000000  0.5312170000000  0.5578230000000 1.0
C      1  0.5109250000000  0.5911390000000  0.4964670000000 1.0
END
