TITL C-3866673-4222-59 2.42386974811198 125000 -221.992754063355 0 0 38 (C1) n - 1
REM
REM in /home/nfs/bkarasulu/CARBON/AIRSS/Generating-Clusters/LCBOP/Only-C1/SD-CG/HFTN-CG/FIRE-CG
REM
REM
REM
REM
REM
REM ./C.cell (11c1c37f851c82e70ff6c80c92926a4b)
REM AIRSS Version 0.9.1 bugfix July 2018 build 013d7b7c2542+ Fri, 06 Jul 2018 19:26:36 +0100
REM compiler GCC version 9.2.1 20190827 (Red Hat 9.2.1-1)
REM options -cpp -mtune=generic -march=x86-64 -g -O0 -fpre-include=/usr/include/finclude/math-vector-fortran.h
REM seed -850922744 28652082 1976867949 1028902872 -1976982836 1577213389 186163845 -1151638157 -82183270 -1826066913 1285802885 -409188249 1155521861 1059915959 863019562 -563522313 2076200269 1280549600 2143678790 -879469469 1175666983 -400273946 1297555475 733116789 1108875351 912598281 1999305422 902344844 -1987337254 987855257 42294322 -473306645 1369190250
REM
CELL 1.54180   50.00000   50.00000   50.00000   90.00000   90.00000   90.00000
LATT -1
SFAC C  
C      1  0.5476400000000  0.5664780000000  0.4122170000000 1.0
C      1  0.5589200000000  0.5265530000000  0.4829680000000 1.0
C      1  0.4245190000000  0.5250560000000  0.5026910000000 1.0
C      1  0.4449800000000  0.5139290000000  0.5179030000000 1.0
C      1  0.4694070000000  0.4823960000000  0.5731470000000 1.0
C      1  0.4740260000000  0.4290210000000  0.5353670000000 1.0
C      1  0.5095920000000  0.5023340000000  0.5440170000000 1.0
C      1  0.5356430000000  0.4632580000000  0.5322960000000 1.0
C      1  0.4556100000000  0.4465100000000  0.5435940000000 1.0
C      1  0.4523260000000  0.4913580000000  0.4469330000000 1.0
C      1  0.4138870000000  0.4398420000000  0.4825350000000 1.0
C      1  0.4058420000000  0.5343380000000  0.4870650000000 1.0
C      1  0.4945390000000  0.4926620000000  0.5657370000000 1.0
C      1  0.4405010000000  0.4921700000000  0.5351590000000 1.0
C      1  0.5346910000000  0.4908250000000  0.5373640000000 1.0
C      1  0.4968200000000  0.5172890000000  0.4393810000000 1.0
C      1  0.4336190000000  0.4541220000000  0.4732650000000 1.0
C      1  0.4959480000000  0.5192640000000  0.5261930000000 1.0
C      1  0.5000720000000  0.4266440000000  0.5300700000000 1.0
C      1  0.5759580000000  0.5449780000000  0.4705680000000 1.0
C      1  0.4612410000000  0.4813140000000  0.5991600000000 1.0
C      1  0.4698090000000  0.5094380000000  0.4375750000000 1.0
C      1  0.4809590000000  0.4674280000000  0.4757180000000 1.0
C      1  0.5629100000000  0.5185280000000  0.5093770000000 1.0
C      1  0.4713860000000  0.5235030000000  0.5165470000000 1.0
C      1  0.5577630000000  0.5070110000000  0.5343050000000 1.0
C      1  0.4548320000000  0.4701990000000  0.4654380000000 1.0
C      1  0.5906140000000  0.5151890000000  0.5763150000000 1.0
C      1  0.5074290000000  0.5358240000000  0.4213920000000 1.0
C      1  0.5033270000000  0.4818220000000  0.4722530000000 1.0
C      1  0.5231720000000  0.4399310000000  0.5292520000000 1.0
C      1  0.5245590000000  0.5532500000000  0.4109640000000 1.0
C      1  0.5695120000000  0.5698840000000  0.4271170000000 1.0
C      1  0.4527490000000  0.4731800000000  0.5517800000000 1.0
C      1  0.5749030000000  0.5113490000000  0.5558810000000 1.0
C      1  0.5130370000000  0.5052120000000  0.4598450000000 1.0
C      1  0.5803120000000  0.5612870000000  0.4499560000000 1.0
C      1  0.5369440000000  0.5166240000000  0.4686550000000 1.0
END
