TITL C-3866669-3764-599 3.41444226660112e-07 125000 -203.095565476048 0 0 34 (C1) n - 1
REM
REM in /home/nfs/bkarasulu/CARBON/AIRSS/Generating-Clusters/LCBOP/Only-C1/SD-CG/FIRE-CG
REM
REM
REM
REM
REM
REM ./C.cell (11c1c37f851c82e70ff6c80c92926a4b)
REM AIRSS Version 0.9.1 bugfix July 2018 build 013d7b7c2542+ Fri, 06 Jul 2018 19:26:36 +0100
REM compiler GCC version 9.2.1 20190827 (Red Hat 9.2.1-1)
REM options -cpp -mtune=generic -march=x86-64 -g -O0 -fpre-include=/usr/include/finclude/math-vector-fortran.h
REM seed -1390387331 291513851 1927199681 -1297201100 -1604326461 -1004349522 -342018905 -694697366 993779204 736589405 1781141993 -751772544 1358211435 -1186174048 -667027535 -1170146723 2069982140 1365117771 -1946223128 1720200503 -1703582627 -854842472 -1859307275 -2016067039 271753786 2137419837 -1690539202 -329487635 -156197960 313876450 2016665574 -681773040 -484669165
REM
CELL 1.54180   50.00000   50.00000   50.00000   90.00000   90.00000   90.00000
LATT -1
SFAC C  
C      1  0.5377870000000  0.4589500000000  0.5204840000000 1.0
C      1  0.5412320000000  0.5447010000000  0.4870510000000 1.0
C      1  0.4836170000000  0.5545700000000  0.4443040000000 1.0
C      1  0.4324550000000  0.5313280000000  0.5421180000000 1.0
C      1  0.4764580000000  0.5577300000000  0.5406370000000 1.0
C      1  0.4691900000000  0.5329790000000  0.4381570000000 1.0
C      1  0.4289590000000  0.5071140000000  0.5302490000000 1.0
C      1  0.5358110000000  0.5112880000000  0.5232580000000 1.0
C      1  0.4797190000000  0.5283280000000  0.5034960000000 1.0
C      1  0.5425120000000  0.4848950000000  0.5315390000000 1.0
C      1  0.4489690000000  0.4659820000000  0.5042970000000 1.0
C      1  0.4915620000000  0.5006640000000  0.5397240000000 1.0
C      1  0.4708130000000  0.4547300000000  0.4896490000000 1.0
C      1  0.4681010000000  0.5062890000000  0.4391170000000 1.0
C      1  0.5003780000000  0.4534980000000  0.5497840000000 1.0
C      1  0.5640670000000  0.4741110000000  0.4845640000000 1.0
C      1  0.4734020000000  0.5036510000000  0.5170900000000 1.0
C      1  0.5117540000000  0.4476630000000  0.5244100000000 1.0
C      1  0.4741090000000  0.4636670000000  0.4631430000000 1.0
C      1  0.5501590000000  0.4977060000000  0.4776700000000 1.0
C      1  0.4930650000000  0.4437690000000  0.5034550000000 1.0
C      1  0.5051030000000  0.5646720000000  0.4564470000000 1.0
C      1  0.4508470000000  0.5506720000000  0.5465580000000 1.0
C      1  0.5563680000000  0.4518670000000  0.5002350000000 1.0
C      1  0.5343570000000  0.4960600000000  0.4545310000000 1.0
C      1  0.4481730000000  0.4911960000000  0.5168580000000 1.0
C      1  0.5264660000000  0.5610130000000  0.4719720000000 1.0
C      1  0.5446640000000  0.5186130000000  0.4968210000000 1.0
C      1  0.5658020000000  0.4266540000000  0.4963820000000 1.0
C      1  0.4946650000000  0.5436700000000  0.5238790000000 1.0
C      1  0.5118480000000  0.5218990000000  0.5349030000000 1.0
C      1  0.4837960000000  0.4843010000000  0.4468020000000 1.0
C      1  0.4922440000000  0.4783680000000  0.5564690000000 1.0
C      1  0.5115500000000  0.4874060000000  0.4439450000000 1.0
END
