TITL C-3866674-3872-618 -166.154679535169 125000 -856.328457375031 0 0 143 (C1) n - 1
REM
REM in /home/nfs/bkarasulu/CARBON/AIRSS/Generating-Clusters/LCBOP/Only-C1/SD-CG/FIRE-CG
REM
REM
REM
REM
REM
REM ./C.cell (11c1c37f851c82e70ff6c80c92926a4b)
REM AIRSS Version 0.9.1 bugfix July 2018 build 013d7b7c2542+ Fri, 06 Jul 2018 19:26:36 +0100
REM compiler GCC version 9.2.1 20190827 (Red Hat 9.2.1-1)
REM options -cpp -mtune=generic -march=x86-64 -g -O0 -fpre-include=/usr/include/finclude/math-vector-fortran.h
REM seed 1610525413 -990769892 507902089 285586709 1076056492 -769697257 -566442321 -859240912 1128629273 2116324332 -1494611094 995425302 632621684 1374951981 -1716984673 -1631465968 1583484741 -367942552 2011792480 301148557 -492152148 1070831305 -1103280160 -623529925 -1838544229 119865894 -2044910660 -64614284 -1304103960 512637838 -877743958 -102284546 -1546780360
REM
CELL 1.54180   50.00000   50.00000   50.00000   90.00000   90.00000   90.00000
LATT -1
SFAC C  
C      1  0.5416680000000  0.5023000000000  0.4325500000000 1.0
C      1  0.5408650000000  0.4758610000000  0.4795280000000 1.0
C      1  0.6098030000000  0.4976450000000  0.4815480000000 1.0
C      1  0.5431370000000  0.4350190000000  0.5478030000000 1.0
C      1  0.5231080000000  0.4211290000000  0.4842460000000 1.0
C      1  0.4867620000000  0.5908380000000  0.5385540000000 1.0
C      1  0.4286710000000  0.5004250000000  0.5769720000000 1.0
C      1  0.4210090000000  0.5882010000000  0.4658020000000 1.0
C      1  0.5531440000000  0.5304740000000  0.5543570000000 1.0
C      1  0.5401550000000  0.5308940000000  0.4327650000000 1.0
C      1  0.4496100000000  0.5929620000000  0.4688700000000 1.0
C      1  0.5830150000000  0.4446020000000  0.5206530000000 1.0
C      1  0.4540330000000  0.5588460000000  0.4165450000000 1.0
C      1  0.5176770000000  0.6500130000000  0.4009720000000 1.0
C      1  0.4962950000000  0.4980450000000  0.4231240000000 1.0
C      1  0.4690300000000  0.6000080000000  0.4502010000000 1.0
C      1  0.5370620000000  0.4388400000000  0.5758640000000 1.0
C      1  0.5622560000000  0.3981530000000  0.5153070000000 1.0
C      1  0.5096500000000  0.6100620000000  0.3409600000000 1.0
C      1  0.4849430000000  0.4904360000000  0.5562140000000 1.0
C      1  0.5841040000000  0.4531250000000  0.4927020000000 1.0
C      1  0.3999930000000  0.5629970000000  0.6018210000000 1.0
C      1  0.4811110000000  0.4868170000000  0.4025800000000 1.0
C      1  0.4981970000000  0.5197270000000  0.5140930000000 1.0
C      1  0.5371220000000  0.4879790000000  0.5827900000000 1.0
C      1  0.5919400000000  0.5554220000000  0.3909420000000 1.0
C      1  0.4521050000000  0.5072240000000  0.5096060000000 1.0
C      1  0.4990930000000  0.5653110000000  0.5865300000000 1.0
C      1  0.4636220000000  0.5345540000000  0.5823840000000 1.0
C      1  0.4641680000000  0.4527920000000  0.5878110000000 1.0
C      1  0.4321680000000  0.5420700000000  0.4242730000000 1.0
C      1  0.5616940000000  0.4051390000000  0.4641860000000 1.0
C      1  0.4925740000000  0.5474900000000  0.5185700000000 1.0
C      1  0.4555850000000  0.5765140000000  0.4920120000000 1.0
C      1  0.5006200000000  0.5473500000000  0.4132170000000 1.0
C      1  0.5691910000000  0.5430380000000  0.3820450000000 1.0
C      1  0.3534760000000  0.5527410000000  0.5361980000000 1.0
C      1  0.5456940000000  0.4197810000000  0.5944070000000 1.0
C      1  0.4802280000000  0.5007980000000  0.5050870000000 1.0
C      1  0.5762210000000  0.5622030000000  0.4578220000000 1.0
C      1  0.4349520000000  0.4302260000000  0.5564540000000 1.0
C      1  0.5180120000000  0.4863020000000  0.4377610000000 1.0
C      1  0.5474420000000  0.4284550000000  0.4728240000000 1.0
C      1  0.5200320000000  0.5555130000000  0.6001160000000 1.0
C      1  0.4185690000000  0.4762100000000  0.5380320000000 1.0
C      1  0.4251900000000  0.4568720000000  0.5592990000000 1.0
C      1  0.5176420000000  0.4238950000000  0.5112480000000 1.0
C      1  0.4395480000000  0.4720270000000  0.5817540000000 1.0
C      1  0.5776190000000  0.3678800000000  0.6453680000000 1.0
C      1  0.4947260000000  0.4588070000000  0.4787660000000 1.0
C      1  0.4334950000000  0.5234490000000  0.4463910000000 1.0
C      1  0.5705030000000  0.5198440000000  0.3675340000000 1.0
C      1  0.5437910000000  0.5544470000000  0.3879140000000 1.0
C      1  0.5332790000000  0.6100140000000  0.5432740000000 1.0
C      1  0.5660470000000  0.3845790000000  0.6283440000000 1.0
C      1  0.5834540000000  0.5574580000000  0.5278830000000 1.0
C      1  0.4921910000000  0.5255090000000  0.4294420000000 1.0
C      1  0.4090250000000  0.5434760000000  0.4095240000000 1.0
C      1  0.5878050000000  0.4667750000000  0.5377640000000 1.0
C      1  0.3896290000000  0.5163490000000  0.5475830000000 1.0
C      1  0.5660240000000  0.5773150000000  0.5650020000000 1.0
C      1  0.4829710000000  0.5626730000000  0.5412040000000 1.0
C      1  0.5138650000000  0.6041300000000  0.4293410000000 1.0
C      1  0.4839790000000  0.5336430000000  0.4566330000000 1.0
C      1  0.5166920000000  0.4719990000000  0.4629660000000 1.0
C      1  0.5552630000000  0.4018420000000  0.6113770000000 1.0
C      1  0.5598700000000  0.5819210000000  0.4496330000000 1.0
C      1  0.5358840000000  0.5339330000000  0.5986160000000 1.0
C      1  0.5484920000000  0.3942170000000  0.4413130000000 1.0
C      1  0.4573050000000  0.4477780000000  0.4403140000000 1.0
C      1  0.4079660000000  0.4776870000000  0.4610670000000 1.0
C      1  0.5104030000000  0.4673490000000  0.5246160000000 1.0
C      1  0.4578450000000  0.4272140000000  0.5740930000000 1.0
C      1  0.5588780000000  0.4533580000000  0.4792460000000 1.0
C      1  0.5553570000000  0.5929870000000  0.5428180000000 1.0
C      1  0.4989830000000  0.4089000000000  0.4722070000000 1.0
C      1  0.5436020000000  0.5159720000000  0.5779590000000 1.0
C      1  0.5221330000000  0.4621400000000  0.5855460000000 1.0
C      1  0.4635180000000  0.4915480000000  0.4602670000000 1.0
C      1  0.4590860000000  0.5189550000000  0.4586520000000 1.0
C      1  0.5290380000000  0.5453620000000  0.4100280000000 1.0
C      1  0.4362680000000  0.5273020000000  0.5839130000000 1.0
C      1  0.5372880000000  0.5940600000000  0.4416600000000 1.0
C      1  0.5218910000000  0.5924170000000  0.3557380000000 1.0
C      1  0.5336150000000  0.5744840000000  0.3713170000000 1.0
C      1  0.5603320000000  0.5751490000000  0.5194790000000 1.0
C      1  0.3900470000000  0.5231240000000  0.4672180000000 1.0
C      1  0.5392180000000  0.5335480000000  0.5290410000000 1.0
C      1  0.4393150000000  0.5319000000000  0.5083390000000 1.0
C      1  0.4812530000000  0.5682690000000  0.4157640000000 1.0
C      1  0.4988000000000  0.3824980000000  0.4867550000000 1.0
C      1  0.4792470000000  0.5545620000000  0.5689190000000 1.0
C      1  0.4540910000000  0.4654130000000  0.4647070000000 1.0
C      1  0.5158960000000  0.6278600000000  0.4145810000000 1.0
C      1  0.5110700000000  0.5591270000000  0.4982940000000 1.0
C      1  0.5837330000000  0.5385210000000  0.4681450000000 1.0
C      1  0.4116320000000  0.5660610000000  0.4821440000000 1.0
C      1  0.4095370000000  0.4515190000000  0.4705780000000 1.0
C      1  0.4453890000000  0.4648790000000  0.4936090000000 1.0
C      1  0.5738300000000  0.3950940000000  0.4885090000000 1.0
C      1  0.5066650000000  0.6086840000000  0.5405680000000 1.0
C      1  0.5375000000000  0.5588410000000  0.5128740000000 1.0
C      1  0.4231340000000  0.4288860000000  0.4844170000000 1.0
C      1  0.4775130000000  0.4273150000000  0.4341410000000 1.0
C      1  0.4579080000000  0.4738980000000  0.3989840000000 1.0
C      1  0.4146830000000  0.4186230000000  0.5095780000000 1.0
C      1  0.4423020000000  0.4805450000000  0.5199180000000 1.0
C      1  0.3908050000000  0.5482670000000  0.4767710000000 1.0
C      1  0.5314400000000  0.5416640000000  0.4576950000000 1.0
C      1  0.5395470000000  0.3806910000000  0.5187320000000 1.0
C      1  0.6045070000000  0.4708620000000  0.4833310000000 1.0
C      1  0.5067990000000  0.5468940000000  0.4714440000000 1.0
C      1  0.4795010000000  0.4316770000000  0.4790260000000 1.0
C      1  0.4451770000000  0.4579910000000  0.4166210000000 1.0
C      1  0.4240950000000  0.4160260000000  0.5347730000000 1.0
C      1  0.4106260000000  0.4993470000000  0.5534980000000 1.0
C      1  0.4107190000000  0.5066910000000  0.4564900000000 1.0
C      1  0.3710610000000  0.5342680000000  0.5415900000000 1.0
C      1  0.5892860000000  0.3516720000000  0.6621270000000 1.0
C      1  0.4643300000000  0.4774780000000  0.5417140000000 1.0
C      1  0.5446660000000  0.4978710000000  0.4979620000000 1.0
C      1  0.4515600000000  0.4239790000000  0.4802300000000 1.0
C      1  0.4989030000000  0.4098390000000  0.4422990000000 1.0
C      1  0.4882470000000  0.3830430000000  0.5773470000000 1.0
C      1  0.4796100000000  0.5158090000000  0.5964820000000 1.0
C      1  0.5812220000000  0.4918780000000  0.5303700000000 1.0
C      1  0.5221170000000  0.4428160000000  0.5302580000000 1.0
C      1  0.4881250000000  0.5916400000000  0.4310560000000 1.0
C      1  0.5098990000000  0.4863070000000  0.5447350000000 1.0
C      1  0.4727690000000  0.4040060000000  0.5769950000000 1.0
C      1  0.5714640000000  0.5038680000000  0.5063060000000 1.0
C      1  0.4924370000000  0.4741800000000  0.5030210000000 1.0
C      1  0.4863460000000  0.4921320000000  0.5844260000000 1.0
C      1  0.5232090000000  0.3991440000000  0.4316520000000 1.0
C      1  0.5998970000000  0.5410480000000  0.5119090000000 1.0
C      1  0.5262120000000  0.5134370000000  0.5133880000000 1.0
C      1  0.5654070000000  0.4236590000000  0.5309790000000 1.0
C      1  0.4346600000000  0.5575320000000  0.4983930000000 1.0
C      1  0.5921340000000  0.5204060000000  0.4906900000000 1.0
C      1  0.4173510000000  0.5455450000000  0.5932620000000 1.0
C      1  0.4919130000000  0.4644450000000  0.5917170000000 1.0
C      1  0.5742510000000  0.5506960000000  0.5557700000000 1.0
C      1  0.5166510000000  0.3737770000000  0.5056650000000 1.0
END
