TITL C-3866672-3872-130 -0.0519459845812964 125000 -480.825549572038 0 0 79 (C1) n - 1
REM
REM in /home/nfs/bkarasulu/CARBON/AIRSS/Generating-Clusters/LCBOP/Only-C1/SD-CG/HFTN-CG/FIRE-CG
REM
REM
REM
REM
REM
REM ./C.cell (11c1c37f851c82e70ff6c80c92926a4b)
REM AIRSS Version 0.9.1 bugfix July 2018 build 013d7b7c2542+ Fri, 06 Jul 2018 19:26:36 +0100
REM compiler GCC version 9.2.1 20190827 (Red Hat 9.2.1-1)
REM options -cpp -mtune=generic -march=x86-64 -g -O0 -fpre-include=/usr/include/finclude/math-vector-fortran.h
REM seed -1261330920 592327524 -925812890 -1947357152 1791011540 -351385688 -2031224630 -2136169048 937358348 1657320745 613542404 1675330969 212660580 22174392 -454071778 64027175 -1981096751 962092037 1808878902 -1879139115 -201263867 919885147 245468568 2023068503 -1747386103 1114512678 -608639858 1000945534 -535889738 -538148446 1649157534 1942087476 -760040704
REM
CELL 1.54180   50.00000   50.00000   50.00000   90.00000   90.00000   90.00000
LATT -1
SFAC C  
C      1  0.5349890000000  0.5263530000000  0.4410710000000 1.0
C      1  0.6099870000000  0.5068390000000  0.4726970000000 1.0
C      1  0.4386510000000  0.5024660000000  0.4805920000000 1.0
C      1  0.5107490000000  0.5343000000000  0.4541200000000 1.0
C      1  0.6043190000000  0.4253470000000  0.5360660000000 1.0
C      1  0.5275520000000  0.4195780000000  0.4908630000000 1.0
C      1  0.5652240000000  0.5554500000000  0.4977340000000 1.0
C      1  0.4539700000000  0.6072010000000  0.4859740000000 1.0
C      1  0.5078290000000  0.4255360000000  0.4705080000000 1.0
C      1  0.4138970000000  0.5495100000000  0.4855140000000 1.0
C      1  0.3886300000000  0.4825930000000  0.5387950000000 1.0
C      1  0.5724100000000  0.5028550000000  0.5280080000000 1.0
C      1  0.4898360000000  0.4726310000000  0.6003470000000 1.0
C      1  0.5059600000000  0.4376760000000  0.5360240000000 1.0
C      1  0.5433460000000  0.4785960000000  0.4308320000000 1.0
C      1  0.4801050000000  0.4221830000000  0.4760260000000 1.0
C      1  0.5715370000000  0.4949980000000  0.5006850000000 1.0
C      1  0.4856520000000  0.5437420000000  0.5447930000000 1.0
C      1  0.4144220000000  0.6046950000000  0.5561620000000 1.0
C      1  0.4148750000000  0.5756650000000  0.4808780000000 1.0
C      1  0.5519600000000  0.4775780000000  0.4895620000000 1.0
C      1  0.4515910000000  0.5776550000000  0.5422180000000 1.0
C      1  0.4792740000000  0.5003740000000  0.3751050000000 1.0
C      1  0.4552220000000  0.4935430000000  0.3841290000000 1.0
C      1  0.3872520000000  0.4581670000000  0.5297870000000 1.0
C      1  0.5397060000000  0.4573630000000  0.4487710000000 1.0
C      1  0.4662840000000  0.4567760000000  0.5579960000000 1.0
C      1  0.5168730000000  0.5102300000000  0.5005610000000 1.0
C      1  0.5560340000000  0.4544760000000  0.4729800000000 1.0
C      1  0.4763230000000  0.5679300000000  0.5334250000000 1.0
C      1  0.5546860000000  0.5337030000000  0.5629090000000 1.0
C      1  0.5218600000000  0.5007920000000  0.5728010000000 1.0
C      1  0.5584300000000  0.5376270000000  0.4517350000000 1.0
C      1  0.4243510000000  0.5252550000000  0.4881260000000 1.0
C      1  0.4325290000000  0.4909360000000  0.4557810000000 1.0
C      1  0.4384570000000  0.4883130000000  0.4040630000000 1.0
C      1  0.4595540000000  0.4915550000000  0.4965670000000 1.0
C      1  0.4561470000000  0.4784720000000  0.5430930000000 1.0
C      1  0.4654930000000  0.4109130000000  0.5418450000000 1.0
C      1  0.5706470000000  0.5284690000000  0.5403530000000 1.0
C      1  0.4313100000000  0.4869350000000  0.4295910000000 1.0
C      1  0.5084020000000  0.5069770000000  0.5269420000000 1.0
C      1  0.5098620000000  0.5301510000000  0.4820610000000 1.0
C      1  0.4711740000000  0.4604350000000  0.5854830000000 1.0
C      1  0.5186350000000  0.4891220000000  0.5468540000000 1.0
C      1  0.5062560000000  0.5450680000000  0.5646790000000 1.0
C      1  0.5922550000000  0.3735380000000  0.4573550000000 1.0
C      1  0.4624650000000  0.4988670000000  0.5244860000000 1.0
C      1  0.4898080000000  0.5452760000000  0.4405040000000 1.0
C      1  0.5716730000000  0.5372370000000  0.4764800000000 1.0
C      1  0.5544950000000  0.4283800000000  0.4850150000000 1.0
C      1  0.5110220000000  0.4882290000000  0.5952860000000 1.0
C      1  0.3992280000000  0.5326270000000  0.5520550000000 1.0
C      1  0.5030380000000  0.4723280000000  0.4755910000000 1.0
C      1  0.5191960000000  0.4615360000000  0.5427620000000 1.0
C      1  0.5422660000000  0.5717310000000  0.4982690000000 1.0
C      1  0.5852980000000  0.3925280000000  0.4737910000000 1.0
C      1  0.3923100000000  0.5075790000000  0.5468450000000 1.0
C      1  0.4768630000000  0.6010900000000  0.4981200000000 1.0
C      1  0.5773170000000  0.4129900000000  0.4910340000000 1.0
C      1  0.5182500000000  0.4203130000000  0.5175300000000 1.0
C      1  0.5130270000000  0.4512230000000  0.4582550000000 1.0
C      1  0.4096570000000  0.5569440000000  0.5534150000000 1.0
C      1  0.4250850000000  0.5801210000000  0.5507370000000 1.0
C      1  0.4757300000000  0.4705290000000  0.4852130000000 1.0
C      1  0.5184860000000  0.5788160000000  0.5081640000000 1.0
C      1  0.4652610000000  0.4439110000000  0.4833080000000 1.0
C      1  0.5918990000000  0.4183670000000  0.5142450000000 1.0
C      1  0.5048170000000  0.5059700000000  0.3799020000000 1.0
C      1  0.4789230000000  0.4345440000000  0.5449990000000 1.0
C      1  0.4912170000000  0.5826260000000  0.5137330000000 1.0
C      1  0.5244300000000  0.4862280000000  0.4887330000000 1.0
C      1  0.5357960000000  0.5045680000000  0.4226060000000 1.0
C      1  0.5251120000000  0.5078960000000  0.3969500000000 1.0
C      1  0.4825960000000  0.5180540000000  0.5323010000000 1.0
C      1  0.5283600000000  0.5285190000000  0.5713800000000 1.0
C      1  0.5853520000000  0.5127900000000  0.4828560000000 1.0
C      1  0.4298130000000  0.5976910000000  0.4799580000000 1.0
C      1  0.5767090000000  0.5499270000000  0.5230140000000 1.0
END
