TITL C-3866671-3735-339 -3.21973205212076 125000 -105.101897915171 0 0 19 (C1) n - 1
REM
REM in /home/nfs/bkarasulu/CARBON/AIRSS/Generating-Clusters/LCBOP/Only-C1/SD-CG/FIRE-CG
REM
REM
REM
REM
REM
REM ./C.cell (11c1c37f851c82e70ff6c80c92926a4b)
REM AIRSS Version 0.9.1 bugfix July 2018 build 013d7b7c2542+ Fri, 06 Jul 2018 19:26:36 +0100
REM compiler GCC version 9.2.1 20190827 (Red Hat 9.2.1-1)
REM options -cpp -mtune=generic -march=x86-64 -g -O0 -fpre-include=/usr/include/finclude/math-vector-fortran.h
REM seed 198146333 191253170 -2096622585 -843398709 1665427634 -1698226783 -84754770 335412010 -448484239 -1916504805 -351253369 -890674791 -1563280650 1501605667 1431745984 1216551743 796960560 -2139627428 -1704833840 -1166491159 -493935582 1971803252 -190920289 -404767289 -569072664 1591067905 -1744674168 -1630442369 481746931 -1914603092 1576295556 -615913041 784601261
REM
CELL 1.54180   50.00000   50.00000   50.00000   90.00000   90.00000   90.00000
LATT -1
SFAC C  
C      1  0.4575620000000  0.5535160000000  0.5235040000000 1.0
C      1  0.5376190000000  0.4760060000000  0.4954700000000 1.0
C      1  0.4625330000000  0.4782860000000  0.4967110000000 1.0
C      1  0.5144250000000  0.4905380000000  0.5008450000000 1.0
C      1  0.4310350000000  0.5159150000000  0.5101880000000 1.0
C      1  0.5065480000000  0.5402810000000  0.5188650000000 1.0
C      1  0.4409710000000  0.5622100000000  0.5009170000000 1.0
C      1  0.4455310000000  0.5284730000000  0.5321240000000 1.0
C      1  0.4891560000000  0.4789970000000  0.4968110000000 1.0
C      1  0.5160430000000  0.5168980000000  0.5103600000000 1.0
C      1  0.5596300000000  0.4622040000000  0.4903660000000 1.0
C      1  0.6074590000000  0.4584220000000  0.4891740000000 1.0
C      1  0.5803540000000  0.4214080000000  0.4750580000000 1.0
C      1  0.4401800000000  0.5868850000000  0.4897040000000 1.0
C      1  0.4394200000000  0.4908700000000  0.5013850000000 1.0
C      1  0.4853710000000  0.5555890000000  0.5244890000000 1.0
C      1  0.4254590000000  0.5388960000000  0.4932380000000 1.0
C      1  0.5827590000000  0.4474690000000  0.4849140000000 1.0
C      1  0.5779450000000  0.3971360000000  0.4658770000000 1.0
END
