TITL C-3866671-3735-726 4.95983902176928e-05 125000 -475.894218806069 0 0 79 (C1) n - 1
REM
REM in /home/nfs/bkarasulu/CARBON/AIRSS/Generating-Clusters/LCBOP/Only-C1/SD-CG/FIRE-CG
REM
REM
REM
REM
REM
REM ./C.cell (11c1c37f851c82e70ff6c80c92926a4b)
REM AIRSS Version 0.9.1 bugfix July 2018 build 013d7b7c2542+ Fri, 06 Jul 2018 19:26:36 +0100
REM compiler GCC version 9.2.1 20190827 (Red Hat 9.2.1-1)
REM options -cpp -mtune=generic -march=x86-64 -g -O0 -fpre-include=/usr/include/finclude/math-vector-fortran.h
REM seed -895964723 -1862822210 1149277032 -369296444 -432126595 1683804957 -1707047852 -1049525206 -1145379037 -86464247 -2098172024 55298991 -566362702 -70780012 444015859 1835875469 1452296263 1464224310 1882134158 500225670 1224687333 -1179313969 -1355708008 1986189278 -433837730 -1446765659 -847982100 1221318011 -369668258 -218421901 -940676208 -1475652412 -687248556
REM
CELL 1.54180   50.00000   50.00000   50.00000   90.00000   90.00000   90.00000
LATT -1
SFAC C  
C      1  0.5115500000000  0.5705530000000  0.4832150000000 1.0
C      1  0.5225480000000  0.4408460000000  0.3839550000000 1.0
C      1  0.4570590000000  0.4835910000000  0.5754090000000 1.0
C      1  0.5038190000000  0.4636230000000  0.5224750000000 1.0
C      1  0.4453270000000  0.5914410000000  0.5323510000000 1.0
C      1  0.4659980000000  0.4848700000000  0.4994900000000 1.0
C      1  0.5276690000000  0.4923030000000  0.5941680000000 1.0
C      1  0.5046460000000  0.5171620000000  0.5291500000000 1.0
C      1  0.5278950000000  0.4655130000000  0.5900630000000 1.0
C      1  0.5446870000000  0.4906170000000  0.5255550000000 1.0
C      1  0.5772730000000  0.5149580000000  0.4798390000000 1.0
C      1  0.4687190000000  0.5897480000000  0.5159970000000 1.0
C      1  0.5497740000000  0.4328580000000  0.5284450000000 1.0
C      1  0.4705620000000  0.5521780000000  0.4533450000000 1.0
C      1  0.4339930000000  0.5105270000000  0.4558340000000 1.0
C      1  0.4814790000000  0.4628190000000  0.5064900000000 1.0
C      1  0.4202570000000  0.5488660000000  0.5368880000000 1.0
C      1  0.4806180000000  0.5058730000000  0.4874960000000 1.0
C      1  0.5754630000000  0.4859950000000  0.4789670000000 1.0
C      1  0.5322090000000  0.4329960000000  0.5512910000000 1.0
C      1  0.4980040000000  0.4699750000000  0.5513650000000 1.0
C      1  0.4142560000000  0.5275270000000  0.5191950000000 1.0
C      1  0.5300810000000  0.5133700000000  0.4888780000000 1.0
C      1  0.5328870000000  0.5660140000000  0.4652360000000 1.0
C      1  0.5312640000000  0.5158790000000  0.5180590000000 1.0
C      1  0.4653400000000  0.5436640000000  0.5100880000000 1.0
C      1  0.4385900000000  0.4385540000000  0.5227520000000 1.0
C      1  0.5635280000000  0.5523620000000  0.5139340000000 1.0
C      1  0.4666690000000  0.5686150000000  0.4970260000000 1.0
C      1  0.5705370000000  0.4614400000000  0.4385600000000 1.0
C      1  0.5210230000000  0.4377650000000  0.4590340000000 1.0
C      1  0.5118760000000  0.4169190000000  0.4987230000000 1.0
C      1  0.4386760000000  0.4827320000000  0.5071310000000 1.0
C      1  0.4690440000000  0.4639520000000  0.5588730000000 1.0
C      1  0.5302790000000  0.5373400000000  0.5720200000000 1.0
C      1  0.4516860000000  0.5328370000000  0.4486370000000 1.0
C      1  0.5456800000000  0.4415370000000  0.4756230000000 1.0
C      1  0.5171870000000  0.4458980000000  0.4094090000000 1.0
C      1  0.4717420000000  0.4392370000000  0.4652630000000 1.0
C      1  0.4615030000000  0.5587990000000  0.5632420000000 1.0
C      1  0.4717060000000  0.4827110000000  0.4460150000000 1.0
C      1  0.4938250000000  0.5829500000000  0.5301700000000 1.0
C      1  0.4845820000000  0.5236610000000  0.5097010000000 1.0
C      1  0.5189870000000  0.5117190000000  0.5756080000000 1.0
C      1  0.4532140000000  0.4445010000000  0.5450590000000 1.0
C      1  0.5657030000000  0.4613380000000  0.4666410000000 1.0
C      1  0.5255280000000  0.5112790000000  0.4238860000000 1.0
C      1  0.4250650000000  0.5015610000000  0.5225330000000 1.0
C      1  0.5775680000000  0.5316600000000  0.5032140000000 1.0
C      1  0.4590140000000  0.5355640000000  0.5786710000000 1.0
C      1  0.5394570000000  0.4273840000000  0.5019040000000 1.0
C      1  0.5634690000000  0.4778950000000  0.4185620000000 1.0
C      1  0.5681090000000  0.4780030000000  0.5345040000000 1.0
C      1  0.4836370000000  0.5669650000000  0.4743210000000 1.0
C      1  0.5374400000000  0.5560710000000  0.5540880000000 1.0
C      1  0.4875400000000  0.5027260000000  0.4593530000000 1.0
C      1  0.5262330000000  0.4861640000000  0.4843820000000 1.0
C      1  0.5165720000000  0.5742300000000  0.5128880000000 1.0
C      1  0.5086550000000  0.4488720000000  0.4355390000000 1.0
C      1  0.5032000000000  0.5012720000000  0.5535340000000 1.0
C      1  0.5284990000000  0.4365660000000  0.3589390000000 1.0
C      1  0.4387720000000  0.5677890000000  0.5474020000000 1.0
C      1  0.4821620000000  0.4566260000000  0.4430200000000 1.0
C      1  0.4550100000000  0.5093900000000  0.5820880000000 1.0
C      1  0.4866050000000  0.5709880000000  0.5555840000000 1.0
C      1  0.4443850000000  0.4829220000000  0.4548700000000 1.0
C      1  0.4975330000000  0.4270490000000  0.4756020000000 1.0
C      1  0.5528030000000  0.5515450000000  0.4545880000000 1.0
C      1  0.5071620000000  0.5142960000000  0.4430140000000 1.0
C      1  0.5461130000000  0.4976700000000  0.4136950000000 1.0
C      1  0.5184000000000  0.4529280000000  0.5665070000000 1.0
C      1  0.5402530000000  0.5632870000000  0.5265670000000 1.0
C      1  0.5715740000000  0.4510770000000  0.5317440000000 1.0
C      1  0.5273610000000  0.4722790000000  0.5098860000000 1.0
C      1  0.5695460000000  0.5305070000000  0.4571770000000 1.0
C      1  0.4445370000000  0.4523940000000  0.4726290000000 1.0
C      1  0.4335390000000  0.4547960000000  0.4997920000000 1.0
C      1  0.4108710000000  0.5187510000000  0.4698580000000 1.0
C      1  0.4039710000000  0.5308630000000  0.4929950000000 1.0
END
