TITL C-3866676-3738-738 9.89684842993571 125000 -1036.89565622587 0 0 172 (C1) n - 1
REM
REM in /home/nfs/bkarasulu/CARBON/AIRSS/Generating-Clusters/LCBOP/Only-C1/SD-CG/FIRE-CG
REM
REM
REM
REM
REM
REM ./C.cell (11c1c37f851c82e70ff6c80c92926a4b)
REM AIRSS Version 0.9.1 bugfix July 2018 build 013d7b7c2542+ Fri, 06 Jul 2018 19:26:36 +0100
REM compiler GCC version 9.2.1 20190827 (Red Hat 9.2.1-1)
REM options -cpp -mtune=generic -march=x86-64 -g -O0 -fpre-include=/usr/include/finclude/math-vector-fortran.h
REM seed 1710888247 -609053891 213465839 706165119 1488008448 877870713 363324069 901009827 -1806374058 -1108581384 -541856521 -1975409706 1620765004 -1631090672 -737189063 1440649824 1094074749 1273348177 -758670469 1571052099 1160829558 720955536 -1250517332 1277126019 -993960740 1846992483 775527110 -704683059 -2023694581 1857036183 -2098806497 710718093 2114627468
REM
CELL 1.54180   50.00000   50.00000   50.00000   90.00000   90.00000   90.00000
LATT -1
SFAC C  
C      1  0.4963490000000  0.5749820000000  0.4200880000000 1.0
C      1  0.3884110000000  0.5698480000000  0.4599630000000 1.0
C      1  0.4341840000000  0.5345100000000  0.4483790000000 1.0
C      1  0.4189060000000  0.4411100000000  0.5141640000000 1.0
C      1  0.4295250000000  0.5404070000000  0.4752830000000 1.0
C      1  0.4938950000000  0.4184100000000  0.5739150000000 1.0
C      1  0.6044630000000  0.5043200000000  0.5585780000000 1.0
C      1  0.4775990000000  0.5326640000000  0.5213230000000 1.0
C      1  0.4450620000000  0.5389380000000  0.5211090000000 1.0
C      1  0.5574330000000  0.4468220000000  0.4828710000000 1.0
C      1  0.4362570000000  0.5080140000000  0.4019030000000 1.0
C      1  0.4399160000000  0.4856870000000  0.5162410000000 1.0
C      1  0.5321870000000  0.5998580000000  0.5443480000000 1.0
C      1  0.4199010000000  0.4693440000000  0.4514530000000 1.0
C      1  0.5778690000000  0.4387460000000  0.4628480000000 1.0
C      1  0.3883490000000  0.5421550000000  0.4520810000000 1.0
C      1  0.4714020000000  0.5301830000000  0.4747830000000 1.0
C      1  0.4445440000000  0.4714360000000  0.6033230000000 1.0
C      1  0.4291860000000  0.4700010000000  0.5791660000000 1.0
C      1  0.6200160000000  0.4681820000000  0.5269520000000 1.0
C      1  0.4926140000000  0.6118910000000  0.5093790000000 1.0
C      1  0.5617730000000  0.5251770000000  0.5928260000000 1.0
C      1  0.4852990000000  0.5116600000000  0.4023480000000 1.0
C      1  0.4571370000000  0.5116210000000  0.5710460000000 1.0
C      1  0.5125080000000  0.5353050000000  0.4538880000000 1.0
C      1  0.4676220000000  0.4856660000000  0.5055090000000 1.0
C      1  0.5562850000000  0.5180020000000  0.4156070000000 1.0
C      1  0.5772780000000  0.4527940000000  0.5836880000000 1.0
C      1  0.5802450000000  0.4900150000000  0.5560850000000 1.0
C      1  0.5141790000000  0.4829280000000  0.5158160000000 1.0
C      1  0.5237940000000  0.4388980000000  0.4109110000000 1.0
C      1  0.5636340000000  0.5003730000000  0.6036250000000 1.0
C      1  0.4590770000000  0.4014890000000  0.4598490000000 1.0
C      1  0.4042640000000  0.5858750000000  0.4752020000000 1.0
C      1  0.5551980000000  0.5331620000000  0.4663740000000 1.0
C      1  0.5144170000000  0.4681730000000  0.5906720000000 1.0
C      1  0.5245070000000  0.4644230000000  0.5648270000000 1.0
C      1  0.5015100000000  0.5283730000000  0.5665740000000 1.0
C      1  0.4097810000000  0.5349320000000  0.4333380000000 1.0
C      1  0.5790410000000  0.4262850000000  0.5916620000000 1.0
C      1  0.3754850000000  0.4982560000000  0.5143050000000 1.0
C      1  0.5284330000000  0.4550590000000  0.4724830000000 1.0
C      1  0.5382640000000  0.5964130000000  0.4732650000000 1.0
C      1  0.5212650000000  0.4524130000000  0.6125770000000 1.0
C      1  0.4228750000000  0.5130530000000  0.5148640000000 1.0
C      1  0.4330950000000  0.4021510000000  0.4484600000000 1.0
C      1  0.6000330000000  0.5314390000000  0.5662040000000 1.0
C      1  0.4621150000000  0.5676320000000  0.5954100000000 1.0
C      1  0.5446380000000  0.4612860000000  0.4064150000000 1.0
C      1  0.5312420000000  0.3867440000000  0.5276530000000 1.0
C      1  0.6209310000000  0.4797150000000  0.4806340000000 1.0
C      1  0.4801360000000  0.4115720000000  0.4427290000000 1.0
C      1  0.4298660000000  0.4622230000000  0.5289340000000 1.0
C      1  0.4958190000000  0.4888940000000  0.5928640000000 1.0
C      1  0.4601840000000  0.5192040000000  0.4466460000000 1.0
C      1  0.4363010000000  0.5280920000000  0.5682490000000 1.0
C      1  0.3720060000000  0.4688250000000  0.5133650000000 1.0
C      1  0.5064200000000  0.4457750000000  0.4912690000000 1.0
C      1  0.6286610000000  0.5203740000000  0.5233510000000 1.0
C      1  0.4729600000000  0.4293310000000  0.4204110000000 1.0
C      1  0.5751840000000  0.4996400000000  0.4883930000000 1.0
C      1  0.4917290000000  0.4677300000000  0.5049640000000 1.0
C      1  0.5319680000000  0.5491560000000  0.4722900000000 1.0
C      1  0.6098290000000  0.4611350000000  0.4336650000000 1.0
C      1  0.5703210000000  0.5600720000000  0.5034780000000 1.0
C      1  0.4442840000000  0.4356710000000  0.4164190000000 1.0
C      1  0.5768930000000  0.4563730000000  0.5050240000000 1.0
C      1  0.4588330000000  0.6048040000000  0.5243040000000 1.0
C      1  0.4841660000000  0.5090100000000  0.5776300000000 1.0
C      1  0.3871720000000  0.5235570000000  0.4746920000000 1.0
C      1  0.6250200000000  0.5096900000000  0.4804030000000 1.0
C      1  0.4787060000000  0.5746360000000  0.4617950000000 1.0
C      1  0.6313820000000  0.4593670000000  0.5012060000000 1.0
C      1  0.4676320000000  0.4904120000000  0.4533390000000 1.0
C      1  0.5735040000000  0.5408870000000  0.5719260000000 1.0
C      1  0.5654790000000  0.5063090000000  0.4631030000000 1.0
C      1  0.5029650000000  0.5284200000000  0.5386170000000 1.0
C      1  0.3685420000000  0.5063130000000  0.4861810000000 1.0
C      1  0.4048740000000  0.4280400000000  0.4956000000000 1.0
C      1  0.4467440000000  0.4957990000000  0.6180330000000 1.0
C      1  0.5579010000000  0.5839080000000  0.4904610000000 1.0
C      1  0.5421100000000  0.5644840000000  0.4285990000000 1.0
C      1  0.4456610000000  0.4741840000000  0.4556940000000 1.0
C      1  0.4117820000000  0.5898380000000  0.5366900000000 1.0
C      1  0.3953060000000  0.5148340000000  0.5288580000000 1.0
C      1  0.5157330000000  0.5587290000000  0.4939740000000 1.0
C      1  0.5262130000000  0.5797260000000  0.6226530000000 1.0
C      1  0.6167330000000  0.4539660000000  0.4083870000000 1.0
C      1  0.4921500000000  0.4725680000000  0.4067710000000 1.0
C      1  0.3615180000000  0.4827200000000  0.4713040000000 1.0
C      1  0.4072870000000  0.4441970000000  0.4507570000000 1.0
C      1  0.4130010000000  0.5231010000000  0.4082090000000 1.0
C      1  0.4130300000000  0.5217220000000  0.4872410000000 1.0
C      1  0.5501020000000  0.5833560000000  0.5559800000000 1.0
C      1  0.5623310000000  0.5012360000000  0.5383990000000 1.0
C      1  0.5654800000000  0.5072880000000  0.5127980000000 1.0
C      1  0.5833850000000  0.4597740000000  0.4440890000000 1.0
C      1  0.4413900000000  0.5597970000000  0.4933330000000 1.0
C      1  0.4694280000000  0.5600350000000  0.4846220000000 1.0
C      1  0.5925260000000  0.4551270000000  0.5308980000000 1.0
C      1  0.4521290000000  0.5222570000000  0.6211430000000 1.0
C      1  0.5277090000000  0.5291600000000  0.5215620000000 1.0
C      1  0.4912780000000  0.6006540000000  0.4599890000000 1.0
C      1  0.4572730000000  0.4066550000000  0.5134030000000 1.0
C      1  0.4883090000000  0.5595030000000  0.5082070000000 1.0
C      1  0.5083520000000  0.5989540000000  0.5298980000000 1.0
C      1  0.6015650000000  0.4259690000000  0.4744640000000 1.0
C      1  0.5158560000000  0.4007130000000  0.4751880000000 1.0
C      1  0.3713780000000  0.4591890000000  0.4846640000000 1.0
C      1  0.5963070000000  0.5495280000000  0.4909460000000 1.0
C      1  0.4533770000000  0.4332470000000  0.5588270000000 1.0
C      1  0.4914310000000  0.5759330000000  0.5341390000000 1.0
C      1  0.5402030000000  0.3723020000000  0.5065030000000 1.0
C      1  0.5350940000000  0.5887620000000  0.4437130000000 1.0
C      1  0.3915920000000  0.5413420000000  0.5402540000000 1.0
C      1  0.6231680000000  0.4333880000000  0.4900990000000 1.0
C      1  0.4750400000000  0.5126260000000  0.4982990000000 1.0
C      1  0.4945670000000  0.4446020000000  0.4074190000000 1.0
C      1  0.5300100000000  0.5319920000000  0.4264470000000 1.0
C      1  0.4240590000000  0.4255850000000  0.4355340000000 1.0
C      1  0.4911410000000  0.5562820000000  0.4422970000000 1.0
C      1  0.3660780000000  0.4534680000000  0.5351030000000 1.0
C      1  0.5804920000000  0.5329540000000  0.4189450000000 1.0
C      1  0.5681980000000  0.4842350000000  0.4432900000000 1.0
C      1  0.4359730000000  0.4555830000000  0.5557110000000 1.0
C      1  0.4944170000000  0.4881910000000  0.4629780000000 1.0
C      1  0.4264910000000  0.5851980000000  0.4929610000000 1.0
C      1  0.5150430000000  0.4724240000000  0.4503610000000 1.0
C      1  0.4668000000000  0.5853470000000  0.5459140000000 1.0
C      1  0.5091640000000  0.4181090000000  0.4979180000000 1.0
C      1  0.5705530000000  0.4742510000000  0.6016220000000 1.0
C      1  0.4586470000000  0.5475380000000  0.6135990000000 1.0
C      1  0.5080660000000  0.4077580000000  0.4487490000000 1.0
C      1  0.5130370000000  0.5474110000000  0.5832950000000 1.0
C      1  0.4656080000000  0.4175390000000  0.5377430000000 1.0
C      1  0.4610880000000  0.5161110000000  0.4146170000000 1.0
C      1  0.4902560000000  0.5735320000000  0.3932690000000 1.0
C      1  0.5560530000000  0.4879400000000  0.4171900000000 1.0
C      1  0.5947410000000  0.5471060000000  0.4370390000000 1.0
C      1  0.3907350000000  0.4402460000000  0.4744210000000 1.0
C      1  0.5529530000000  0.5469770000000  0.5251930000000 1.0
C      1  0.5322420000000  0.3784200000000  0.4813050000000 1.0
C      1  0.5246470000000  0.4725190000000  0.5395240000000 1.0
C      1  0.4369960000000  0.4556540000000  0.3979270000000 1.0
C      1  0.5789980000000  0.4010870000000  0.5983100000000 1.0
C      1  0.6277390000000  0.4707880000000  0.4530260000000 1.0
C      1  0.6230770000000  0.4962990000000  0.5380360000000 1.0
C      1  0.4536350000000  0.5727340000000  0.5684390000000 1.0
C      1  0.5269660000000  0.4172460000000  0.4294010000000 1.0
C      1  0.4700140000000  0.4320070000000  0.5833480000000 1.0
C      1  0.5209900000000  0.5075500000000  0.5013480000000 1.0
C      1  0.4600870000000  0.3994440000000  0.4878330000000 1.0
C      1  0.4621480000000  0.4487830000000  0.6048500000000 1.0
C      1  0.4342280000000  0.4816470000000  0.3924220000000 1.0
C      1  0.4085700000000  0.5634770000000  0.5478530000000 1.0
C      1  0.5104920000000  0.5123740000000  0.4136610000000 1.0
C      1  0.5123070000000  0.4843360000000  0.4233460000000 1.0
C      1  0.5058450000000  0.6088900000000  0.4829760000000 1.0
C      1  0.6168770000000  0.5299920000000  0.4993140000000 1.0
C      1  0.5986330000000  0.5551720000000  0.4625050000000 1.0
C      1  0.5817970000000  0.4615560000000  0.5571050000000 1.0
C      1  0.5120390000000  0.4075320000000  0.5250310000000 1.0
C      1  0.5912660000000  0.4775010000000  0.4896180000000 1.0
C      1  0.4844740000000  0.5718280000000  0.3679170000000 1.0
C      1  0.4308390000000  0.5998060000000  0.5169690000000 1.0
C      1  0.5195850000000  0.5637300000000  0.6031670000000 1.0
C      1  0.4934530000000  0.4126970000000  0.5455020000000 1.0
C      1  0.4313250000000  0.5552740000000  0.5627710000000 1.0
C      1  0.5095090000000  0.5102790000000  0.4730040000000 1.0
C      1  0.5080800000000  0.5972710000000  0.4353860000000 1.0
C      1  0.5250790000000  0.4381160000000  0.6340380000000 1.0
C      1  0.5591970000000  0.5567080000000  0.5522880000000 1.0
END
