TITL C-3866675-3766-717 1234.33271697622 125000 -1183.64984239762 0 0 193 (C1) n - 1
REM
REM in /home/nfs/bkarasulu/CARBON/AIRSS/Generating-Clusters/LCBOP/Only-C1/SD-CG/FIRE-CG
REM
REM
REM
REM
REM
REM ./C.cell (11c1c37f851c82e70ff6c80c92926a4b)
REM AIRSS Version 0.9.1 bugfix July 2018 build 013d7b7c2542+ Fri, 06 Jul 2018 19:26:36 +0100
REM compiler GCC version 9.2.1 20190827 (Red Hat 9.2.1-1)
REM options -cpp -mtune=generic -march=x86-64 -g -O0 -fpre-include=/usr/include/finclude/math-vector-fortran.h
REM seed -1758569393 -773943981 -868634346 897180881 -1461017304 1679793093 256942250 480092993 -1258501472 2032101278 1020932093 -1930937092 -2143014451 1003797716 -1821041134 -177592023 -264290901 988180797 -2093586361 -252401632 -310704323 -1961373843 1183420100 -142951411 1566479877 -803564918 -1101610452 -1381054847 -2040849467 -397342110 2067192636 1457091908 375783965
REM
CELL 1.54180   50.00000   50.00000   50.00000   90.00000   90.00000   90.00000
LATT -1
SFAC C  
C      1  0.5496930000000  0.4846310000000  0.5234750000000 1.0
C      1  0.4390100000000  0.4719390000000  0.3849770000000 1.0
C      1  0.5913250000000  0.4098150000000  0.5627510000000 1.0
C      1  0.5100140000000  0.5254920000000  0.4041260000000 1.0
C      1  0.5243010000000  0.4831200000000  0.5053230000000 1.0
C      1  0.5778250000000  0.4716110000000  0.5167020000000 1.0
C      1  0.3851410000000  0.4402670000000  0.5746580000000 1.0
C      1  0.4565110000000  0.4677140000000  0.4612130000000 1.0
C      1  0.4516630000000  0.5365990000000  0.4470390000000 1.0
C      1  0.6266910000000  0.4648030000000  0.5118400000000 1.0
C      1  0.4011720000000  0.4749120000000  0.4517210000000 1.0
C      1  0.4634340000000  0.5180770000000  0.3749600000000 1.0
C      1  0.4074380000000  0.4210890000000  0.4823250000000 1.0
C      1  0.4654290000000  0.4034010000000  0.5221260000000 1.0
C      1  0.5411040000000  0.5632280000000  0.4006410000000 1.0
C      1  0.4100910000000  0.5851220000000  0.4446070000000 1.0
C      1  0.4611550000000  0.5085520000000  0.5447100000000 1.0
C      1  0.4484580000000  0.5709470000000  0.5563320000000 1.0
C      1  0.5187290000000  0.3829840000000  0.5028630000000 1.0
C      1  0.4697030000000  0.4837890000000  0.5562520000000 1.0
C      1  0.4823690000000  0.5046490000000  0.5041780000000 1.0
C      1  0.5014300000000  0.4642700000000  0.5116310000000 1.0
C      1  0.3921190000000  0.5212130000000  0.5587100000000 1.0
C      1  0.4795410000000  0.6024590000000  0.4121940000000 1.0
C      1  0.4989860000000  0.5743080000000  0.5310150000000 1.0
C      1  0.4772290000000  0.5441190000000  0.3665190000000 1.0
C      1  0.4342240000000  0.4287300000000  0.4188560000000 1.0
C      1  0.5656980000000  0.5907680000000  0.4874490000000 1.0
C      1  0.5615300000000  0.4599930000000  0.4606730000000 1.0
C      1  0.4628840000000  0.4875560000000  0.3754720000000 1.0
C      1  0.5444290000000  0.4937770000000  0.4007510000000 1.0
C      1  0.5561810000000  0.5702210000000  0.4478300000000 1.0
C      1  0.4786070000000  0.5298160000000  0.4413210000000 1.0
C      1  0.4591910000000  0.4732870000000  0.6418290000000 1.0
C      1  0.5874180000000  0.4595080000000  0.4480670000000 1.0
C      1  0.5298960000000  0.5427780000000  0.5793310000000 1.0
C      1  0.4443390000000  0.4131150000000  0.4418590000000 1.0
C      1  0.4725640000000  0.6138170000000  0.4621640000000 1.0
C      1  0.3816520000000  0.4989200000000  0.5472990000000 1.0
C      1  0.5151360000000  0.5933600000000  0.5186340000000 1.0
C      1  0.5698280000000  0.4164720000000  0.4770290000000 1.0
C      1  0.6269500000000  0.4858610000000  0.5599660000000 1.0
C      1  0.3906320000000  0.5531450000000  0.4915140000000 1.0
C      1  0.4302030000000  0.5033560000000  0.4701950000000 1.0
C      1  0.4469090000000  0.4119310000000  0.5665210000000 1.0
C      1  0.4299250000000  0.5883940000000  0.4924660000000 1.0
C      1  0.6058140000000  0.5050320000000  0.4573940000000 1.0
C      1  0.4025840000000  0.5640290000000  0.4296670000000 1.0
C      1  0.4310800000000  0.4793610000000  0.4541790000000 1.0
C      1  0.4662770000000  0.4475720000000  0.6014760000000 1.0
C      1  0.4539470000000  0.5305450000000  0.4994770000000 1.0
C      1  0.5038610000000  0.4361150000000  0.4688740000000 1.0
C      1  0.4831510000000  0.5278830000000  0.5445660000000 1.0
C      1  0.3943900000000  0.4826170000000  0.5281570000000 1.0
C      1  0.3690970000000  0.5054500000000  0.4800150000000 1.0
C      1  0.5734050000000  0.4165200000000  0.4289370000000 1.0
C      1  0.4557820000000  0.5965780000000  0.5071580000000 1.0
C      1  0.4221810000000  0.5959000000000  0.4661610000000 1.0
C      1  0.4573050000000  0.4262060000000  0.5872950000000 1.0
C      1  0.5310280000000  0.5124650000000  0.4169570000000 1.0
C      1  0.5662610000000  0.5500580000000  0.4055950000000 1.0
C      1  0.5053360000000  0.5122050000000  0.5544350000000 1.0
C      1  0.5341140000000  0.5292970000000  0.5069920000000 1.0
C      1  0.4956980000000  0.3856290000000  0.4851650000000 1.0
C      1  0.5259730000000  0.4343470000000  0.4835630000000 1.0
C      1  0.4957880000000  0.5427830000000  0.4797730000000 1.0
C      1  0.5769340000000  0.5716090000000  0.4677250000000 1.0
C      1  0.6122360000000  0.4217290000000  0.4587730000000 1.0
C      1  0.6075540000000  0.5436590000000  0.5637740000000 1.0
C      1  0.6148290000000  0.5260450000000  0.5844920000000 1.0
C      1  0.5173970000000  0.4839710000000  0.6085640000000 1.0
C      1  0.4993530000000  0.6070430000000  0.5690930000000 1.0
C      1  0.4574150000000  0.5249280000000  0.4024630000000 1.0
C      1  0.5745970000000  0.4457480000000  0.5339100000000 1.0
C      1  0.4860300000000  0.5504990000000  0.5274460000000 1.0
C      1  0.4184260000000  0.4960040000000  0.5180280000000 1.0
C      1  0.6152030000000  0.5312690000000  0.4666910000000 1.0
C      1  0.5084580000000  0.5365940000000  0.5973400000000 1.0
C      1  0.4511760000000  0.4725410000000  0.6670730000000 1.0
C      1  0.4589860000000  0.5632380000000  0.5828550000000 1.0
C      1  0.5349460000000  0.3885770000000  0.5240320000000 1.0
C      1  0.4582140000000  0.5935690000000  0.5387690000000 1.0
C      1  0.5399130000000  0.5419350000000  0.5323750000000 1.0
C      1  0.3933520000000  0.5150510000000  0.4206520000000 1.0
C      1  0.6102900000000  0.4982730000000  0.5794570000000 1.0
C      1  0.4512140000000  0.4635940000000  0.5557020000000 1.0
C      1  0.4068260000000  0.4565410000000  0.5714220000000 1.0
C      1  0.4438530000000  0.5269100000000  0.4721850000000 1.0
C      1  0.5159470000000  0.5583030000000  0.4694050000000 1.0
C      1  0.4926670000000  0.5197510000000  0.4627890000000 1.0
C      1  0.4588570000000  0.5347980000000  0.5914030000000 1.0
C      1  0.5810460000000  0.5333000000000  0.4962590000000 1.0
C      1  0.5496100000000  0.4976780000000  0.5512510000000 1.0
C      1  0.5957290000000  0.4333430000000  0.4379320000000 1.0
C      1  0.5484140000000  0.4337430000000  0.5388390000000 1.0
C      1  0.3888710000000  0.4820040000000  0.4807460000000 1.0
C      1  0.5204350000000  0.5920640000000  0.5772390000000 1.0
C      1  0.5272430000000  0.5870020000000  0.4144470000000 1.0
C      1  0.5451510000000  0.4413230000000  0.5987270000000 1.0
C      1  0.4708760000000  0.4717570000000  0.6163430000000 1.0
C      1  0.5824290000000  0.5132450000000  0.4421060000000 1.0
C      1  0.5365230000000  0.4694760000000  0.3887280000000 1.0
C      1  0.4459350000000  0.4443030000000  0.5053490000000 1.0
C      1  0.4448090000000  0.4475000000000  0.4001980000000 1.0
C      1  0.3899070000000  0.4898680000000  0.4300500000000 1.0
C      1  0.5405110000000  0.4473600000000  0.4058600000000 1.0
C      1  0.5995270000000  0.6119020000000  0.5157330000000 1.0
C      1  0.4429270000000  0.4720790000000  0.6917980000000 1.0
C      1  0.5973440000000  0.4260990000000  0.4831620000000 1.0
C      1  0.6255730000000  0.5348190000000  0.6079810000000 1.0
C      1  0.5846510000000  0.4875970000000  0.5847760000000 1.0
C      1  0.5580380000000  0.4848250000000  0.5761010000000 1.0
C      1  0.4636840000000  0.5823140000000  0.6021550000000 1.0
C      1  0.5233270000000  0.4828850000000  0.4751080000000 1.0
C      1  0.5790780000000  0.5707840000000  0.5327810000000 1.0
C      1  0.4995630000000  0.5872090000000  0.3999840000000 1.0
C      1  0.5295680000000  0.3951770000000  0.4492170000000 1.0
C      1  0.5949500000000  0.5475000000000  0.5391170000000 1.0
C      1  0.4099650000000  0.5379970000000  0.4213320000000 1.0
C      1  0.4257360000000  0.4525990000000  0.5504170000000 1.0
C      1  0.4011200000000  0.4361750000000  0.5067370000000 1.0
C      1  0.5958910000000  0.4314720000000  0.5466350000000 1.0
C      1  0.4872950000000  0.4198620000000  0.5288680000000 1.0
C      1  0.5109360000000  0.5111160000000  0.5081840000000 1.0
C      1  0.5526390000000  0.4165040000000  0.5906730000000 1.0
C      1  0.4828240000000  0.4726080000000  0.4497760000000 1.0
C      1  0.4747770000000  0.4077460000000  0.4400390000000 1.0
C      1  0.5356340000000  0.5506740000000  0.4509840000000 1.0
C      1  0.4742230000000  0.4458120000000  0.3998220000000 1.0
C      1  0.3746190000000  0.5320840000000  0.4848340000000 1.0
C      1  0.4419130000000  0.5076910000000  0.5253530000000 1.0
C      1  0.5397400000000  0.5948590000000  0.5310780000000 1.0
C      1  0.4778380000000  0.4773440000000  0.5031480000000 1.0
C      1  0.5944830000000  0.5497480000000  0.4766650000000 1.0
C      1  0.3874230000000  0.4626080000000  0.5060160000000 1.0
C      1  0.5483300000000  0.4047100000000  0.5432510000000 1.0
C      1  0.5035100000000  0.4420460000000  0.5278170000000 1.0
C      1  0.4846870000000  0.4678140000000  0.3822850000000 1.0
C      1  0.5348400000000  0.6026220000000  0.4739610000000 1.0
C      1  0.4300010000000  0.5492920000000  0.5179940000000 1.0
C      1  0.5922110000000  0.5253660000000  0.5208970000000 1.0
C      1  0.4588680000000  0.4623960000000  0.4894130000000 1.0
C      1  0.5239550000000  0.4455250000000  0.5464410000000 1.0
C      1  0.4959760000000  0.5637440000000  0.3808050000000 1.0
C      1  0.6040460000000  0.4768180000000  0.4658100000000 1.0
C      1  0.5571620000000  0.5106640000000  0.4590250000000 1.0
C      1  0.5525870000000  0.4392270000000  0.4780800000000 1.0
C      1  0.4839880000000  0.5251110000000  0.4146200000000 1.0
C      1  0.4260320000000  0.4124080000000  0.4641810000000 1.0
C      1  0.4978740000000  0.4847960000000  0.5607170000000 1.0
C      1  0.4895680000000  0.4928870000000  0.6093280000000 1.0
C      1  0.4714450000000  0.6122650000000  0.4356190000000 1.0
C      1  0.5188930000000  0.5477430000000  0.3891070000000 1.0
C      1  0.5506450000000  0.5696200000000  0.5432010000000 1.0
C      1  0.4839740000000  0.4309850000000  0.4228620000000 1.0
C      1  0.4378600000000  0.5335400000000  0.4214120000000 1.0
C      1  0.4799840000000  0.6050900000000  0.4880880000000 1.0
C      1  0.5117780000000  0.4695930000000  0.3749610000000 1.0
C      1  0.4142340000000  0.5067340000000  0.6278510000000 1.0
C      1  0.4419760000000  0.4103190000000  0.5377370000000 1.0
C      1  0.4257260000000  0.4346320000000  0.5258090000000 1.0
C      1  0.4839830000000  0.5212540000000  0.6011740000000 1.0
C      1  0.5557930000000  0.5241190000000  0.4876790000000 1.0
C      1  0.4988360000000  0.4482820000000  0.4421230000000 1.0
C      1  0.4774340000000  0.6098420000000  0.5532400000000 1.0
C      1  0.6019700000000  0.4592760000000  0.4941860000000 1.0
C      1  0.4329690000000  0.5225180000000  0.5862900000000 1.0
C      1  0.5247130000000  0.4505590000000  0.4287080000000 1.0
C      1  0.5373520000000  0.5696690000000  0.5712640000000 1.0
C      1  0.4147330000000  0.5652910000000  0.5015170000000 1.0
C      1  0.4172140000000  0.5333920000000  0.5641350000000 1.0
C      1  0.4123290000000  0.4776810000000  0.5895190000000 1.0
C      1  0.4206550000000  0.5018170000000  0.6016650000000 1.0
C      1  0.5590210000000  0.4263330000000  0.4065980000000 1.0
C      1  0.5639670000000  0.4028570000000  0.5680900000000 1.0
C      1  0.5815400000000  0.5914310000000  0.5120150000000 1.0
C      1  0.5478220000000  0.4835390000000  0.4624930000000 1.0
C      1  0.4128470000000  0.4980880000000  0.4907010000000 1.0
C      1  0.4299400000000  0.5517760000000  0.5457930000000 1.0
C      1  0.5169970000000  0.4644790000000  0.5660610000000 1.0
C      1  0.5589220000000  0.4032430000000  0.4515260000000 1.0
C      1  0.4997800000000  0.4925200000000  0.4617790000000 1.0
C      1  0.5096760000000  0.6025300000000  0.4921260000000 1.0
C      1  0.4992540000000  0.3935780000000  0.4564710000000 1.0
C      1  0.5330490000000  0.5231460000000  0.5556520000000 1.0
C      1  0.4773340000000  0.5475940000000  0.5007390000000 1.0
C      1  0.5383210000000  0.5247270000000  0.4413680000000 1.0
C      1  0.5356910000000  0.4683830000000  0.5896270000000 1.0
C      1  0.4707180000000  0.3876990000000  0.4991210000000 1.0
C      1  0.5965410000000  0.4975400000000  0.5253860000000 1.0
C      1  0.5387030000000  0.5943440000000  0.4428760000000 1.0
C      1  0.6217130000000  0.4844800000000  0.5324160000000 1.0
C      1  0.5807490000000  0.5313300000000  0.4194830000000 1.0
END
