TITL C-3866670-4165-298 2.59639361779893 125000 -721.732011187959 0 0 119 (C1) n - 1
REM
REM in /home/nfs/bkarasulu/CARBON/AIRSS/Generating-Clusters/LCBOP/Only-C1/SD-CG/FIRE-CG
REM
REM
REM
REM
REM
REM ./C.cell (11c1c37f851c82e70ff6c80c92926a4b)
REM AIRSS Version 0.9.1 bugfix July 2018 build 013d7b7c2542+ Fri, 06 Jul 2018 19:26:36 +0100
REM compiler GCC version 9.2.1 20190827 (Red Hat 9.2.1-1)
REM options -cpp -mtune=generic -march=x86-64 -g -O0 -fpre-include=/usr/include/finclude/math-vector-fortran.h
REM seed 15335721 -1093605405 -307871731 1127514427 1183967956 -206992610 98283323 -2124063419 -388109748 -381929347 -1923221118 1398381649 -1472181770 -1493408952 1905538824 2058873906 -1911485617 -1517297133 -1880599086 2117182248 -129384406 1279127996 2052962454 2034913319 -816151531 -819486159 898556152 1035811419 -1779995082 -879924964 1957121873 -143944911 -950583446
REM
CELL 1.54180   50.00000   50.00000   50.00000   90.00000   90.00000   90.00000
LATT -1
SFAC C  
C      1  0.3997980000000  0.4479300000000  0.5059300000000 1.0
C      1  0.4735460000000  0.5136680000000  0.5570780000000 1.0
C      1  0.5270450000000  0.3863830000000  0.3966140000000 1.0
C      1  0.5029010000000  0.4796740000000  0.3788180000000 1.0
C      1  0.4219340000000  0.4319450000000  0.4997910000000 1.0
C      1  0.5563040000000  0.4411770000000  0.4410320000000 1.0
C      1  0.4645980000000  0.4524230000000  0.4852300000000 1.0
C      1  0.5277430000000  0.5716820000000  0.4459650000000 1.0
C      1  0.4957520000000  0.4175870000000  0.5015690000000 1.0
C      1  0.4711550000000  0.5616830000000  0.5693110000000 1.0
C      1  0.4896200000000  0.4991770000000  0.6075970000000 1.0
C      1  0.5858590000000  0.5574960000000  0.4502600000000 1.0
C      1  0.3508610000000  0.4380440000000  0.4855800000000 1.0
C      1  0.4980220000000  0.5103430000000  0.5180620000000 1.0
C      1  0.4589180000000  0.5361850000000  0.5671510000000 1.0
C      1  0.5004880000000  0.5623340000000  0.5698770000000 1.0
C      1  0.3955530000000  0.4462340000000  0.5694290000000 1.0
C      1  0.5382790000000  0.5238940000000  0.4017520000000 1.0
C      1  0.5659150000000  0.5440400000000  0.4352610000000 1.0
C      1  0.5395840000000  0.4364600000000  0.5650770000000 1.0
C      1  0.5478320000000  0.4641120000000  0.3895880000000 1.0
C      1  0.5393880000000  0.5280700000000  0.5329070000000 1.0
C      1  0.4675360000000  0.4924130000000  0.4099050000000 1.0
C      1  0.4560020000000  0.4709040000000  0.5834130000000 1.0
C      1  0.4172110000000  0.4940030000000  0.5155950000000 1.0
C      1  0.3981450000000  0.4683830000000  0.5511380000000 1.0
C      1  0.5203580000000  0.4585740000000  0.3862740000000 1.0
C      1  0.5044550000000  0.4591560000000  0.5342020000000 1.0
C      1  0.5334590000000  0.5975350000000  0.4505370000000 1.0
C      1  0.4448840000000  0.5540150000000  0.4995000000000 1.0
C      1  0.4759070000000  0.5849580000000  0.5297160000000 1.0
C      1  0.5163420000000  0.4794670000000  0.5511820000000 1.0
C      1  0.4633560000000  0.4996760000000  0.4642910000000 1.0
C      1  0.5325910000000  0.5744970000000  0.5241340000000 1.0
C      1  0.5880560000000  0.4827270000000  0.5204390000000 1.0
C      1  0.5127370000000  0.4590500000000  0.4833780000000 1.0
C      1  0.5344250000000  0.5235190000000  0.4634330000000 1.0
C      1  0.4586750000000  0.4931520000000  0.5417690000000 1.0
C      1  0.5196180000000  0.4151940000000  0.5190120000000 1.0
C      1  0.4594340000000  0.5778540000000  0.5071580000000 1.0
C      1  0.4495340000000  0.4310590000000  0.4979200000000 1.0
C      1  0.5420880000000  0.5069670000000  0.5798840000000 1.0
C      1  0.5002340000000  0.5533020000000  0.4948790000000 1.0
C      1  0.5916910000000  0.5006740000000  0.4961750000000 1.0
C      1  0.5508110000000  0.5212000000000  0.4859170000000 1.0
C      1  0.5148790000000  0.5028280000000  0.4587360000000 1.0
C      1  0.4618940000000  0.5833160000000  0.5538260000000 1.0
C      1  0.4468760000000  0.4977970000000  0.5127960000000 1.0
C      1  0.4615620000000  0.4683810000000  0.5551940000000 1.0
C      1  0.4453970000000  0.5082640000000  0.4204970000000 1.0
C      1  0.5004290000000  0.5240040000000  0.6055050000000 1.0
C      1  0.5679070000000  0.4774570000000  0.4014870000000 1.0
C      1  0.5968990000000  0.4904120000000  0.4697380000000 1.0
C      1  0.5635000000000  0.5233460000000  0.4156940000000 1.0
C      1  0.4278930000000  0.4742640000000  0.5882050000000 1.0
C      1  0.4118390000000  0.4500290000000  0.5915280000000 1.0
C      1  0.4117500000000  0.5164590000000  0.5563370000000 1.0
C      1  0.5779730000000  0.5274930000000  0.4940630000000 1.0
C      1  0.5215170000000  0.4627290000000  0.5093290000000 1.0
C      1  0.5543240000000  0.6098370000000  0.4623380000000 1.0
C      1  0.4670480000000  0.4643640000000  0.4151640000000 1.0
C      1  0.4039840000000  0.4697880000000  0.5233000000000 1.0
C      1  0.4113340000000  0.4898360000000  0.5676680000000 1.0
C      1  0.4698740000000  0.4230830000000  0.5403890000000 1.0
C      1  0.5620460000000  0.5682400000000  0.5226050000000 1.0
C      1  0.4687050000000  0.4151330000000  0.5133250000000 1.0
C      1  0.5731030000000  0.4955030000000  0.5427080000000 1.0
C      1  0.4918290000000  0.4404290000000  0.4826430000000 1.0
C      1  0.4825730000000  0.4427720000000  0.4111490000000 1.0
C      1  0.5856840000000  0.4528360000000  0.5594250000000 1.0
C      1  0.4056610000000  0.5178370000000  0.5276310000000 1.0
C      1  0.5114960000000  0.5201730000000  0.4003380000000 1.0
C      1  0.5413830000000  0.4259660000000  0.5362460000000 1.0
C      1  0.4571890000000  0.5682600000000  0.4153530000000 1.0
C      1  0.5276640000000  0.5222710000000  0.5585770000000 1.0
C      1  0.3746260000000  0.4426280000000  0.4952410000000 1.0
C      1  0.5026390000000  0.5073650000000  0.5496020000000 1.0
C      1  0.5454300000000  0.4834160000000  0.5423380000000 1.0
C      1  0.4237470000000  0.5285970000000  0.4636880000000 1.0
C      1  0.4307470000000  0.5340550000000  0.5674120000000 1.0
C      1  0.5069710000000  0.4363000000000  0.3983230000000 1.0
C      1  0.4793990000000  0.4492870000000  0.5445420000000 1.0
C      1  0.4802970000000  0.4734040000000  0.5990890000000 1.0
C      1  0.4881390000000  0.5125440000000  0.4561090000000 1.0
C      1  0.5167480000000  0.4367920000000  0.5824450000000 1.0
C      1  0.5659070000000  0.4344790000000  0.5222380000000 1.0
C      1  0.5861900000000  0.5433390000000  0.5594410000000 1.0
C      1  0.5403600000000  0.4614280000000  0.4454830000000 1.0
C      1  0.4584240000000  0.5307580000000  0.5076490000000 1.0
C      1  0.4989110000000  0.4516730000000  0.5964360000000 1.0
C      1  0.4408620000000  0.5099110000000  0.4494930000000 1.0
C      1  0.5764850000000  0.5991230000000  0.4733900000000 1.0
C      1  0.4202080000000  0.5450750000000  0.4875430000000 1.0
C      1  0.5608260000000  0.4555360000000  0.5740250000000 1.0
C      1  0.5774700000000  0.5567100000000  0.4990080000000 1.0
C      1  0.5763060000000  0.4977930000000  0.4194450000000 1.0
C      1  0.5218010000000  0.4748430000000  0.4614510000000 1.0
C      1  0.5086660000000  0.5465880000000  0.5924350000000 1.0
C      1  0.5839700000000  0.5719580000000  0.4752670000000 1.0
C      1  0.5528360000000  0.4817230000000  0.5855770000000 1.0
C      1  0.4334220000000  0.5278180000000  0.4040400000000 1.0
C      1  0.4903270000000  0.4899070000000  0.5012900000000 1.0
C      1  0.4850390000000  0.5390700000000  0.4463690000000 1.0
C      1  0.4011670000000  0.5380060000000  0.5080420000000 1.0
C      1  0.5099370000000  0.5749160000000  0.5440540000000 1.0
C      1  0.5168820000000  0.4103740000000  0.3971320000000 1.0
C      1  0.4861110000000  0.5337730000000  0.5087870000000 1.0
C      1  0.4632900000000  0.4831940000000  0.4901820000000 1.0
C      1  0.5397880000000  0.5464280000000  0.4475820000000 1.0
C      1  0.5196260000000  0.5712630000000  0.4988840000000 1.0
C      1  0.5760490000000  0.5650190000000  0.5472240000000 1.0
C      1  0.4751830000000  0.5603130000000  0.4335650000000 1.0
C      1  0.5399680000000  0.5115570000000  0.5092590000000 1.0
C      1  0.4386200000000  0.5541660000000  0.4018650000000 1.0
C      1  0.5860610000000  0.4541220000000  0.5297040000000 1.0
C      1  0.4917680000000  0.5004090000000  0.3951810000000 1.0
C      1  0.5849310000000  0.5167340000000  0.5567300000000 1.0
C      1  0.5908390000000  0.4920520000000  0.4433700000000 1.0
C      1  0.5401740000000  0.4836320000000  0.5135470000000 1.0
END
