TITL C-3866672-3872-22 6562.88009808158 125000 -714.786213454856 0 0 117 (C1) n - 1
REM
REM in /home/nfs/bkarasulu/CARBON/AIRSS/Generating-Clusters/LCBOP/Only-C1/SD-CG/HFTN-CG/FIRE-CG
REM
REM
REM
REM
REM
REM ./C.cell (11c1c37f851c82e70ff6c80c92926a4b)
REM AIRSS Version 0.9.1 bugfix July 2018 build 013d7b7c2542+ Fri, 06 Jul 2018 19:26:36 +0100
REM compiler GCC version 9.2.1 20190827 (Red Hat 9.2.1-1)
REM options -cpp -mtune=generic -march=x86-64 -g -O0 -fpre-include=/usr/include/finclude/math-vector-fortran.h
REM seed 1502670839 784757806 1542057131 -1640808106 1719798270 668707676 -146186854 -968236012 -997630641 533539307 -713136666 -1896193843 114485254 119202450 -1142292056 282037778 -1565118986 1120250149 590572296 -601042216 693427732 -202331554 -1943579694 -1565105011 -1118372964 35612194 1728642519 -384831503 1661341529 1943655712 685684601 -445409206 -1014823630
REM
CELL 1.54180   50.00000   50.00000   50.00000   90.00000   90.00000   90.00000
LATT -1
SFAC C  
C      1  0.4828800000000  0.5550930000000  0.5125820000000 1.0
C      1  0.5041560000000  0.5021250000000  0.5450210000000 1.0
C      1  0.4834820000000  0.5163670000000  0.4841800000000 1.0
C      1  0.5619120000000  0.5228690000000  0.4614400000000 1.0
C      1  0.5088610000000  0.6068490000000  0.5724800000000 1.0
C      1  0.4849710000000  0.5051750000000  0.4104380000000 1.0
C      1  0.5104290000000  0.5163260000000  0.4767420000000 1.0
C      1  0.5474870000000  0.5305730000000  0.5487260000000 1.0
C      1  0.4592850000000  0.5133710000000  0.5322650000000 1.0
C      1  0.4283180000000  0.5834510000000  0.5159300000000 1.0
C      1  0.5218480000000  0.4254440000000  0.4267680000000 1.0
C      1  0.4629180000000  0.6915430000000  0.5684480000000 1.0
C      1  0.5062550000000  0.6333160000000  0.6396640000000 1.0
C      1  0.5798920000000  0.5438080000000  0.4991860000000 1.0
C      1  0.5848560000000  0.4428240000000  0.5008100000000 1.0
C      1  0.5457500000000  0.4754280000000  0.4538610000000 1.0
C      1  0.5927490000000  0.5213050000000  0.4231910000000 1.0
C      1  0.5518720000000  0.5487170000000  0.3975930000000 1.0
C      1  0.5641100000000  0.4500080000000  0.5738130000000 1.0
C      1  0.5081320000000  0.4548810000000  0.4790260000000 1.0
C      1  0.4343840000000  0.5031100000000  0.4155180000000 1.0
C      1  0.5087500000000  0.5309250000000  0.5905070000000 1.0
C      1  0.3863680000000  0.5219020000000  0.5324440000000 1.0
C      1  0.5630170000000  0.3831640000000  0.5162030000000 1.0
C      1  0.5910170000000  0.4684940000000  0.4908920000000 1.0
C      1  0.5565110000000  0.5556960000000  0.5091120000000 1.0
C      1  0.4182840000000  0.4945410000000  0.4699310000000 1.0
C      1  0.5159390000000  0.5859090000000  0.5277340000000 1.0
C      1  0.4786170000000  0.3320730000000  0.5924770000000 1.0
C      1  0.4934570000000  0.5266790000000  0.4273220000000 1.0
C      1  0.4108390000000  0.5777170000000  0.4968590000000 1.0
C      1  0.5647660000000  0.5757350000000  0.5530200000000 1.0
C      1  0.5109890000000  0.3932770000000  0.4623990000000 1.0
C      1  0.5901060000000  0.4952770000000  0.4899630000000 1.0
C      1  0.4826390000000  0.3957440000000  0.4606860000000 1.0
C      1  0.5759050000000  0.3950630000000  0.4956480000000 1.0
C      1  0.5095170000000  0.5664900000000  0.5068570000000 1.0
C      1  0.5713530000000  0.4214100000000  0.4858680000000 1.0
C      1  0.5119120000000  0.3619080000000  0.5648100000000 1.0
C      1  0.4404390000000  0.6831890000000  0.5555660000000 1.0
C      1  0.5016560000000  0.6302580000000  0.6141950000000 1.0
C      1  0.4737960000000  0.5284500000000  0.5075960000000 1.0
C      1  0.4614640000000  0.4752060000000  0.4752910000000 1.0
C      1  0.4494130000000  0.5866800000000  0.5339230000000 1.0
C      1  0.4351110000000  0.5238610000000  0.4349350000000 1.0
C      1  0.5307760000000  0.4469440000000  0.4077290000000 1.0
C      1  0.5451720000000  0.4868770000000  0.5287030000000 1.0
C      1  0.4167900000000  0.4805890000000  0.4235140000000 1.0
C      1  0.5304370000000  0.4125670000000  0.4521530000000 1.0
C      1  0.4809280000000  0.6730000000000  0.5769150000000 1.0
C      1  0.5739570000000  0.5096440000000  0.4391170000000 1.0
C      1  0.4368340000000  0.6565780000000  0.5512340000000 1.0
C      1  0.4951420000000  0.3468690000000  0.5787790000000 1.0
C      1  0.4700500000000  0.5674650000000  0.5354200000000 1.0
C      1  0.5265620000000  0.4650370000000  0.5303030000000 1.0
C      1  0.4422270000000  0.4184580000000  0.4870280000000 1.0
C      1  0.5551350000000  0.4600670000000  0.3994830000000 1.0
C      1  0.4645110000000  0.5031340000000  0.4688710000000 1.0
C      1  0.4964280000000  0.6273040000000  0.5869090000000 1.0
C      1  0.5263650000000  0.4373550000000  0.4923350000000 1.0
C      1  0.4813270000000  0.4572380000000  0.4858280000000 1.0
C      1  0.4264470000000  0.4247390000000  0.4643120000000 1.0
C      1  0.4025450000000  0.5466300000000  0.5703070000000 1.0
C      1  0.5319750000000  0.5037570000000  0.3949120000000 1.0
C      1  0.4551860000000  0.6359630000000  0.5585700000000 1.0
C      1  0.4529550000000  0.4823810000000  0.5293430000000 1.0
C      1  0.5510990000000  0.4849420000000  0.3852390000000 1.0
C      1  0.4819080000000  0.5173310000000  0.5530190000000 1.0
C      1  0.5525620000000  0.5001820000000  0.5867290000000 1.0
C      1  0.4324470000000  0.4558480000000  0.4216710000000 1.0
C      1  0.5205150000000  0.4711800000000  0.4603820000000 1.0
C      1  0.4456990000000  0.4377180000000  0.5084130000000 1.0
C      1  0.4781490000000  0.6447130000000  0.5740540000000 1.0
C      1  0.5869270000000  0.4397700000000  0.5294760000000 1.0
C      1  0.4337400000000  0.5266570000000  0.5398130000000 1.0
C      1  0.4074890000000  0.5319220000000  0.5477910000000 1.0
C      1  0.5067570000000  0.4908730000000  0.3990590000000 1.0
C      1  0.4869320000000  0.5650010000000  0.5591340000000 1.0
C      1  0.4586450000000  0.4625890000000  0.4109870000000 1.0
C      1  0.4264200000000  0.4350210000000  0.4395140000000 1.0
C      1  0.5208080000000  0.5337660000000  0.4324170000000 1.0
C      1  0.4827700000000  0.4482620000000  0.4088280000000 1.0
C      1  0.5065440000000  0.4625010000000  0.4008360000000 1.0
C      1  0.5327800000000  0.5564180000000  0.4926080000000 1.0
C      1  0.5684700000000  0.4819300000000  0.4391350000000 1.0
C      1  0.5318010000000  0.5338280000000  0.4651950000000 1.0
C      1  0.5750990000000  0.4632600000000  0.4192040000000 1.0
C      1  0.5672090000000  0.4351950000000  0.5496540000000 1.0
C      1  0.4026870000000  0.4853330000000  0.4479230000000 1.0
C      1  0.5550930000000  0.5552740000000  0.5377420000000 1.0
C      1  0.5651090000000  0.5118720000000  0.5634450000000 1.0
C      1  0.5294590000000  0.5118060000000  0.5358530000000 1.0
C      1  0.5285040000000  0.3769770000000  0.5506970000000 1.0
C      1  0.4919530000000  0.4243700000000  0.4217710000000 1.0
C      1  0.5014650000000  0.4743290000000  0.5399700000000 1.0
C      1  0.5367180000000  0.5288880000000  0.4088300000000 1.0
C      1  0.4330870000000  0.4753350000000  0.4852620000000 1.0
C      1  0.5701080000000  0.4918490000000  0.5425290000000 1.0
C      1  0.4737330000000  0.4454450000000  0.5112750000000 1.0
C      1  0.4896250000000  0.5389300000000  0.5705940000000 1.0
C      1  0.5449190000000  0.3933760000000  0.5354210000000 1.0
C      1  0.5449990000000  0.4246940000000  0.4743450000000 1.0
C      1  0.4599790000000  0.4920080000000  0.4084480000000 1.0
C      1  0.4337520000000  0.4654320000000  0.5122250000000 1.0
C      1  0.5299100000000  0.5148310000000  0.5964560000000 1.0
C      1  0.5570560000000  0.4719080000000  0.5883030000000 1.0
C      1  0.4765960000000  0.4645890000000  0.5325130000000 1.0
C      1  0.4387460000000  0.5145570000000  0.4614560000000 1.0
C      1  0.5444970000000  0.4217170000000  0.5377870000000 1.0
C      1  0.4512030000000  0.6099190000000  0.5494950000000 1.0
C      1  0.4635830000000  0.3999890000000  0.4812690000000 1.0
C      1  0.5071110000000  0.5853270000000  0.5550410000000 1.0
C      1  0.3678490000000  0.5121850000000  0.5168940000000 1.0
C      1  0.3943430000000  0.5701540000000  0.4781430000000 1.0
C      1  0.4758870000000  0.4055590000000  0.4349210000000 1.0
C      1  0.5789090000000  0.5204590000000  0.4842680000000 1.0
C      1  0.5301900000000  0.4391560000000  0.5202840000000 1.0
END
