TITL C-3866669-3764-317 0.791762625012483 125000 -1022.64424314743 0 0 169 (C1) n - 1
REM
REM in /home/nfs/bkarasulu/CARBON/AIRSS/Generating-Clusters/LCBOP/Only-C1/SD-CG/FIRE-CG
REM
REM
REM
REM
REM
REM ./C.cell (11c1c37f851c82e70ff6c80c92926a4b)
REM AIRSS Version 0.9.1 bugfix July 2018 build 013d7b7c2542+ Fri, 06 Jul 2018 19:26:36 +0100
REM compiler GCC version 9.2.1 20190827 (Red Hat 9.2.1-1)
REM options -cpp -mtune=generic -march=x86-64 -g -O0 -fpre-include=/usr/include/finclude/math-vector-fortran.h
REM seed -1916473296 791429852 260136907 1727458531 -2859639 502733997 1154451773 -2122363835 1549557172 1270737099 25670733 -148820354 1794960739 -1198336234 -1544543342 -798314854 -103390863 -833536524 -1131647858 -21145702 821449335 -981215639 -836288459 -622438516 1972381227 -1611446007 -1212107341 208930966 -629716860 1661640764 1515848947 -493928191 -1985147471
REM
CELL 1.54180   50.00000   50.00000   50.00000   90.00000   90.00000   90.00000
LATT -1
SFAC C  
C      1  0.3967420000000  0.4948050000000  0.3889270000000 1.0
C      1  0.4275880000000  0.5589350000000  0.3858890000000 1.0
C      1  0.5732650000000  0.5112260000000  0.5308560000000 1.0
C      1  0.4862680000000  0.5679770000000  0.3864740000000 1.0
C      1  0.6152720000000  0.5083350000000  0.5584160000000 1.0
C      1  0.5233130000000  0.5020000000000  0.6169510000000 1.0
C      1  0.4351720000000  0.4679030000000  0.5321840000000 1.0
C      1  0.5289750000000  0.6043870000000  0.5156570000000 1.0
C      1  0.4762830000000  0.4972530000000  0.5010290000000 1.0
C      1  0.4793890000000  0.5290470000000  0.5913040000000 1.0
C      1  0.5536790000000  0.5403960000000  0.4046130000000 1.0
C      1  0.3724680000000  0.4631090000000  0.5375450000000 1.0
C      1  0.5453250000000  0.5192910000000  0.3899450000000 1.0
C      1  0.5038790000000  0.4845750000000  0.5419930000000 1.0
C      1  0.6194750000000  0.4663620000000  0.4573170000000 1.0
C      1  0.6163890000000  0.5998910000000  0.5355800000000 1.0
C      1  0.4458890000000  0.4373300000000  0.4973440000000 1.0
C      1  0.5085700000000  0.5552790000000  0.4534600000000 1.0
C      1  0.4167700000000  0.5113030000000  0.3835060000000 1.0
C      1  0.5328090000000  0.5215930000000  0.5984770000000 1.0
C      1  0.4689560000000  0.5934350000000  0.5360640000000 1.0
C      1  0.5448190000000  0.4139630000000  0.4680840000000 1.0
C      1  0.4826720000000  0.5631260000000  0.4998280000000 1.0
C      1  0.4700620000000  0.5482720000000  0.5226100000000 1.0
C      1  0.6244720000000  0.4844250000000  0.5018120000000 1.0
C      1  0.5050900000000  0.4549480000000  0.5503220000000 1.0
C      1  0.5206990000000  0.5339240000000  0.4953300000000 1.0
C      1  0.3741420000000  0.6743960000000  0.4606810000000 1.0
C      1  0.4901180000000  0.6200140000000  0.3352340000000 1.0
C      1  0.4563630000000  0.4494950000000  0.5222970000000 1.0
C      1  0.5913750000000  0.5149770000000  0.6402750000000 1.0
C      1  0.4485530000000  0.5004320000000  0.4969440000000 1.0
C      1  0.5584690000000  0.5332310000000  0.6071410000000 1.0
C      1  0.6162840000000  0.4486450000000  0.5348520000000 1.0
C      1  0.5750120000000  0.4316270000000  0.5241230000000 1.0
C      1  0.6078420000000  0.5347360000000  0.4496700000000 1.0
C      1  0.4090770000000  0.5702070000000  0.4042900000000 1.0
C      1  0.4437570000000  0.5806780000000  0.5429860000000 1.0
C      1  0.4890860000000  0.5807300000000  0.5532050000000 1.0
C      1  0.5560810000000  0.5496000000000  0.4310200000000 1.0
C      1  0.5302840000000  0.4250770000000  0.5819720000000 1.0
C      1  0.4177800000000  0.4553510000000  0.5518120000000 1.0
C      1  0.4169190000000  0.3785400000000  0.4649940000000 1.0
C      1  0.5659220000000  0.4738010000000  0.4880340000000 1.0
C      1  0.4703740000000  0.4997060000000  0.4124520000000 1.0
C      1  0.4643060000000  0.4747200000000  0.4309910000000 1.0
C      1  0.4260120000000  0.5352910000000  0.4713720000000 1.0
C      1  0.5725780000000  0.5595220000000  0.4751260000000 1.0
C      1  0.5781800000000  0.3832000000000  0.5870070000000 1.0
C      1  0.4414200000000  0.5549160000000  0.5265080000000 1.0
C      1  0.3966490000000  0.6297090000000  0.4445350000000 1.0
C      1  0.4805300000000  0.6018780000000  0.3513070000000 1.0
C      1  0.5521920000000  0.5675450000000  0.5412990000000 1.0
C      1  0.5326660000000  0.4935280000000  0.4273000000000 1.0
C      1  0.5561820000000  0.4965370000000  0.4406880000000 1.0
C      1  0.4601130000000  0.4437700000000  0.5690240000000 1.0
C      1  0.4609970000000  0.5257130000000  0.3990520000000 1.0
C      1  0.4497310000000  0.4493470000000  0.4715510000000 1.0
C      1  0.4564980000000  0.4573680000000  0.5936130000000 1.0
C      1  0.3787120000000  0.4813860000000  0.4055550000000 1.0
C      1  0.5419120000000  0.4610830000000  0.4773600000000 1.0
C      1  0.3792940000000  0.4429720000000  0.5162920000000 1.0
C      1  0.6215720000000  0.5142810000000  0.4613590000000 1.0
C      1  0.5504530000000  0.4254860000000  0.5389890000000 1.0
C      1  0.5654180000000  0.5195180000000  0.6315980000000 1.0
C      1  0.3903400000000  0.4759560000000  0.4818340000000 1.0
C      1  0.5784590000000  0.5401660000000  0.4518440000000 1.0
C      1  0.4774450000000  0.5016240000000  0.5994640000000 1.0
C      1  0.4182660000000  0.5465680000000  0.5651730000000 1.0
C      1  0.4195980000000  0.3980660000000  0.4820420000000 1.0
C      1  0.4764190000000  0.4483250000000  0.6119430000000 1.0
C      1  0.5429280000000  0.5022170000000  0.6379590000000 1.0
C      1  0.5475190000000  0.5487380000000  0.5624650000000 1.0
C      1  0.4703040000000  0.5825620000000  0.3684200000000 1.0
C      1  0.4352890000000  0.5315010000000  0.3886070000000 1.0
C      1  0.6268940000000  0.5323700000000  0.5521450000000 1.0
C      1  0.3635150000000  0.4894300000000  0.5299860000000 1.0
C      1  0.6134310000000  0.3994180000000  0.5266970000000 1.0
C      1  0.5687740000000  0.5123690000000  0.4588030000000 1.0
C      1  0.4365890000000  0.5102120000000  0.4727170000000 1.0
C      1  0.6495850000000  0.4897980000000  0.5120890000000 1.0
C      1  0.4268440000000  0.4892540000000  0.4558410000000 1.0
C      1  0.4338470000000  0.5710810000000  0.5694720000000 1.0
C      1  0.3936290000000  0.5313590000000  0.5261380000000 1.0
C      1  0.3348090000000  0.4573050000000  0.3855140000000 1.0
C      1  0.4936320000000  0.4369270000000  0.3863300000000 1.0
C      1  0.6247800000000  0.4952090000000  0.6086270000000 1.0
C      1  0.6019220000000  0.4243020000000  0.5303560000000 1.0
C      1  0.5047090000000  0.6068630000000  0.5037010000000 1.0
C      1  0.4493000000000  0.5704750000000  0.5930940000000 1.0
C      1  0.4429920000000  0.5757330000000  0.3693670000000 1.0
C      1  0.5014790000000  0.4593940000000  0.6040590000000 1.0
C      1  0.5752930000000  0.5666800000000  0.5243910000000 1.0
C      1  0.4453620000000  0.4686410000000  0.4507120000000 1.0
C      1  0.4284950000000  0.4881150000000  0.5134560000000 1.0
C      1  0.4754310000000  0.4452950000000  0.5444020000000 1.0
C      1  0.4808950000000  0.5472340000000  0.4041820000000 1.0
C      1  0.5506060000000  0.5762370000000  0.4675160000000 1.0
C      1  0.5961860000000  0.4970790000000  0.5407680000000 1.0
C      1  0.6227260000000  0.4955360000000  0.5821190000000 1.0
C      1  0.4016740000000  0.4910530000000  0.5034890000000 1.0
C      1  0.5991680000000  0.3815910000000  0.6023710000000 1.0
C      1  0.4296870000000  0.5012540000000  0.5899740000000 1.0
C      1  0.4917860000000  0.4662980000000  0.4386620000000 1.0
C      1  0.5464960000000  0.4110840000000  0.5632100000000 1.0
C      1  0.4024230000000  0.4247900000000  0.5197650000000 1.0
C      1  0.3853030000000  0.6522380000000  0.4526750000000 1.0
C      1  0.5325880000000  0.4482610000000  0.5371160000000 1.0
C      1  0.4929370000000  0.4253580000000  0.4108950000000 1.0
C      1  0.6037700000000  0.4736690000000  0.5225820000000 1.0
C      1  0.5141790000000  0.5915500000000  0.5586460000000 1.0
C      1  0.4859700000000  0.5520380000000  0.5478700000000 1.0
C      1  0.5906910000000  0.3317400000000  0.5135640000000 1.0
C      1  0.5454100000000  0.5009100000000  0.5324010000000 1.0
C      1  0.4960810000000  0.4388050000000  0.4342410000000 1.0
C      1  0.6176290000000  0.3747060000000  0.5179490000000 1.0
C      1  0.3821360000000  0.5681700000000  0.4000150000000 1.0
C      1  0.5666760000000  0.3284250000000  0.5247690000000 1.0
C      1  0.5075330000000  0.4908410000000  0.4391610000000 1.0
C      1  0.5352740000000  0.4946470000000  0.3988220000000 1.0
C      1  0.3993900000000  0.4824070000000  0.4560890000000 1.0
C      1  0.3560360000000  0.4689650000000  0.3951420000000 1.0
C      1  0.4651010000000  0.5506830000000  0.6025380000000 1.0
C      1  0.5028730000000  0.5517830000000  0.4823380000000 1.0
C      1  0.4179010000000  0.5239140000000  0.5817960000000 1.0
C      1  0.4193860000000  0.5833420000000  0.4274340000000 1.0
C      1  0.5500520000000  0.4708340000000  0.5309900000000 1.0
C      1  0.4171140000000  0.5423510000000  0.5364320000000 1.0
C      1  0.5499050000000  0.3412090000000  0.5411120000000 1.0
C      1  0.4876480000000  0.5437010000000  0.4344350000000 1.0
C      1  0.3841510000000  0.4808210000000  0.4329720000000 1.0
C      1  0.5264990000000  0.5105670000000  0.5088810000000 1.0
C      1  0.5012140000000  0.4875510000000  0.6085580000000 1.0
C      1  0.5969860000000  0.5833170000000  0.5302980000000 1.0
C      1  0.5168790000000  0.4676710000000  0.4909240000000 1.0
C      1  0.5661760000000  0.5493210000000  0.5851620000000 1.0
C      1  0.4812980000000  0.5914600000000  0.5086430000000 1.0
C      1  0.5246800000000  0.5277270000000  0.5698840000000 1.0
C      1  0.4223970000000  0.4197410000000  0.4994220000000 1.0
C      1  0.6101260000000  0.3499240000000  0.5118200000000 1.0
C      1  0.5721930000000  0.5020650000000  0.4844030000000 1.0
C      1  0.5770160000000  0.5217100000000  0.5048630000000 1.0
C      1  0.5467910000000  0.3626940000000  0.5565050000000 1.0
C      1  0.3760480000000  0.4530840000000  0.4898600000000 1.0
C      1  0.5569300000000  0.3855960000000  0.5689880000000 1.0
C      1  0.5452310000000  0.4396900000000  0.4582360000000 1.0
C      1  0.5246320000000  0.5024890000000  0.5539240000000 1.0
C      1  0.5747050000000  0.4620250000000  0.5145110000000 1.0
C      1  0.4530710000000  0.4862970000000  0.5945870000000 1.0
C      1  0.4414060000000  0.5724390000000  0.4408880000000 1.0
C      1  0.5491850000000  0.4427830000000  0.4301470000000 1.0
C      1  0.4838380000000  0.4847410000000  0.3885590000000 1.0
C      1  0.5036690000000  0.4886950000000  0.5100250000000 1.0
C      1  0.3920380000000  0.4649590000000  0.5584450000000 1.0
C      1  0.4902040000000  0.5133300000000  0.4337220000000 1.0
C      1  0.4957390000000  0.5358270000000  0.5687130000000 1.0
C      1  0.5765720000000  0.5498660000000  0.5014490000000 1.0
C      1  0.5441790000000  0.4486930000000  0.4041560000000 1.0
C      1  0.6214430000000  0.4884700000000  0.4735200000000 1.0
C      1  0.3833430000000  0.5065040000000  0.5187460000000 1.0
C      1  0.5127270000000  0.4474580000000  0.5804690000000 1.0
C      1  0.5349640000000  0.5901670000000  0.5394460000000 1.0
C      1  0.6139790000000  0.5039590000000  0.6313650000000 1.0
C      1  0.5022790000000  0.4637230000000  0.3823820000000 1.0
C      1  0.4140450000000  0.4274340000000  0.5456300000000 1.0
C      1  0.4079080000000  0.6071750000000  0.4363470000000 1.0
C      1  0.5349430000000  0.5640690000000  0.4463420000000 1.0
C      1  0.4622970000000  0.5566010000000  0.4455470000000 1.0
C      1  0.5299670000000  0.4685940000000  0.3889230000000 1.0
END
