TITL C-3866671-3735-34 0.0175083624567026 125000 -293.349856755206 0 0 49 (C1) n - 1
REM
REM in /home/nfs/bkarasulu/CARBON/AIRSS/Generating-Clusters/LCBOP/Only-C1/SD-CG/HFTN-CG/FIRE-CG
REM
REM
REM
REM
REM
REM ./C.cell (11c1c37f851c82e70ff6c80c92926a4b)
REM AIRSS Version 0.9.1 bugfix July 2018 build 013d7b7c2542+ Fri, 06 Jul 2018 19:26:36 +0100
REM compiler GCC version 9.2.1 20190827 (Red Hat 9.2.1-1)
REM options -cpp -mtune=generic -march=x86-64 -g -O0 -fpre-include=/usr/include/finclude/math-vector-fortran.h
REM seed 362631380 247704458 2094608240 1309832593 -1832431182 1227769634 -1688817352 374297369 748698187 -389875375 -559425719 90536277 -618472478 -509595987 -695261911 1214905821 1684497695 446159128 651336450 1923147967 -1456203291 -1113457964 249790972 563879242 2006079797 1281467487 -1287569177 1649738288 -1939727398 -766554172 -806796215 -1040320465 1052092895
REM
CELL 1.54180   50.00000   50.00000   50.00000   90.00000   90.00000   90.00000
LATT -1
SFAC C  
C      1  0.5247280000000  0.5131670000000  0.4447330000000 1.0
C      1  0.5260050000000  0.5543620000000  0.4703470000000 1.0
C      1  0.4024630000000  0.5742260000000  0.5526020000000 1.0
C      1  0.4594610000000  0.5179200000000  0.4329280000000 1.0
C      1  0.5066250000000  0.5673850000000  0.4832480000000 1.0
C      1  0.4745200000000  0.5173380000000  0.5460870000000 1.0
C      1  0.4752410000000  0.4726480000000  0.5631710000000 1.0
C      1  0.5158340000000  0.5008380000000  0.5766050000000 1.0
C      1  0.5647270000000  0.5229250000000  0.4691340000000 1.0
C      1  0.5580530000000  0.5586050000000  0.5616030000000 1.0
C      1  0.4613700000000  0.4920400000000  0.5469650000000 1.0
C      1  0.5392660000000  0.5319540000000  0.4599260000000 1.0
C      1  0.5120030000000  0.4284930000000  0.5215000000000 1.0
C      1  0.5010760000000  0.4532470000000  0.4816890000000 1.0
C      1  0.4307470000000  0.5331860000000  0.4995150000000 1.0
C      1  0.4525040000000  0.5197020000000  0.4590100000000 1.0
C      1  0.4943610000000  0.4298030000000  0.5415210000000 1.0
C      1  0.4309640000000  0.5351900000000  0.4704590000000 1.0
C      1  0.4782390000000  0.4458150000000  0.5555870000000 1.0
C      1  0.4452840000000  0.4872060000000  0.5238800000000 1.0
C      1  0.5130520000000  0.4702260000000  0.4245200000000 1.0
C      1  0.4641240000000  0.5064700000000  0.4821080000000 1.0
C      1  0.5619660000000  0.4544390000000  0.4732080000000 1.0
C      1  0.5410680000000  0.5391060000000  0.5583440000000 1.0
C      1  0.5042860000000  0.5127010000000  0.5091790000000 1.0
C      1  0.5735640000000  0.4734620000000  0.4583270000000 1.0
C      1  0.5208600000000  0.5201740000000  0.5564860000000 1.0
C      1  0.4605930000000  0.5695710000000  0.5087740000000 1.0
C      1  0.4523290000000  0.4447150000000  0.4964850000000 1.0
C      1  0.4405610000000  0.4612780000000  0.5140060000000 1.0
C      1  0.5732800000000  0.5276380000000  0.4955160000000 1.0
C      1  0.4187490000000  0.5659090000000  0.5340340000000 1.0
C      1  0.5212710000000  0.4425570000000  0.4989270000000 1.0
C      1  0.4362430000000  0.5565250000000  0.5145570000000 1.0
C      1  0.5757510000000  0.5001250000000  0.4564320000000 1.0
C      1  0.5009630000000  0.5204800000000  0.5360660000000 1.0
C      1  0.4451140000000  0.5081490000000  0.5046450000000 1.0
C      1  0.5480940000000  0.4516750000000  0.4975620000000 1.0
C      1  0.5130760000000  0.4524640000000  0.4048670000000 1.0
C      1  0.4843430000000  0.5725070000000  0.4969830000000 1.0
C      1  0.5137140000000  0.4873430000000  0.4464440000000 1.0
C      1  0.4752170000000  0.4419010000000  0.4828190000000 1.0
C      1  0.5031260000000  0.4798050000000  0.4716850000000 1.0
C      1  0.5593210000000  0.4650700000000  0.5197060000000 1.0
C      1  0.4912080000000  0.5003790000000  0.4873430000000 1.0
C      1  0.5700640000000  0.4884350000000  0.5270010000000 1.0
C      1  0.4956950000000  0.4831860000000  0.5799720000000 1.0
C      1  0.5132050000000  0.4347600000000  0.3857320000000 1.0
C      1  0.5756900000000  0.5128980000000  0.5177630000000 1.0
END
