TITL C-3866674-3872-687 -3.74293443679927e-06 125000 -388.558102261023 0 0 64 (C1) n - 1
REM
REM in /home/nfs/bkarasulu/CARBON/AIRSS/Generating-Clusters/LCBOP/Only-C1/SD-CG/FIRE-CG
REM
REM
REM
REM
REM
REM ./C.cell (11c1c37f851c82e70ff6c80c92926a4b)
REM AIRSS Version 0.9.1 bugfix July 2018 build 013d7b7c2542+ Fri, 06 Jul 2018 19:26:36 +0100
REM compiler GCC version 9.2.1 20190827 (Red Hat 9.2.1-1)
REM options -cpp -mtune=generic -march=x86-64 -g -O0 -fpre-include=/usr/include/finclude/math-vector-fortran.h
REM seed 901533674 -811177001 -1910640547 -1997159220 366824761 782468014 2033065582 328368078 -51901770 1823866739 -1695802830 -1961753387 -246378201 319904107 277916092 1794731903 1538887962 1971315037 1944638284 1675965664 612695149 -1173319455 463984364 121526138 2088698445 523133184 -794099186 -481421361 -253200795 715779578 -227329436 1856512765 -2042589697
REM
CELL 1.54180   50.00000   50.00000   50.00000   90.00000   90.00000   90.00000
LATT -1
SFAC C  
C      1  0.4822800000000  0.4906940000000  0.5723720000000 1.0
C      1  0.5150660000000  0.4265170000000  0.5521410000000 1.0
C      1  0.4280760000000  0.4943970000000  0.5102190000000 1.0
C      1  0.5518510000000  0.5308460000000  0.4882920000000 1.0
C      1  0.5561440000000  0.5306050000000  0.4595890000000 1.0
C      1  0.5738010000000  0.5111850000000  0.4498360000000 1.0
C      1  0.5770200000000  0.4375800000000  0.5075040000000 1.0
C      1  0.4573230000000  0.5031950000000  0.5744510000000 1.0
C      1  0.5916590000000  0.4493620000000  0.4884820000000 1.0
C      1  0.4605950000000  0.4663490000000  0.4197320000000 1.0
C      1  0.5113010000000  0.5137500000000  0.5383920000000 1.0
C      1  0.4228970000000  0.5017060000000  0.5369650000000 1.0
C      1  0.5511960000000  0.4374950000000  0.5182440000000 1.0
C      1  0.5875010000000  0.4888040000000  0.4546790000000 1.0
C      1  0.4531840000000  0.5136110000000  0.4214950000000 1.0
C      1  0.4898950000000  0.4668780000000  0.4843780000000 1.0
C      1  0.4701760000000  0.4706200000000  0.5211650000000 1.0
C      1  0.4565110000000  0.5231180000000  0.4479920000000 1.0
C      1  0.5452540000000  0.5439740000000  0.5464600000000 1.0
C      1  0.5078580000000  0.4476670000000  0.5702880000000 1.0
C      1  0.4619170000000  0.5583470000000  0.4811080000000 1.0
C      1  0.4680190000000  0.4573550000000  0.5436920000000 1.0
C      1  0.4562710000000  0.5488920000000  0.5279380000000 1.0
C      1  0.5284850000000  0.4637520000000  0.5818300000000 1.0
C      1  0.4429810000000  0.5130270000000  0.4939760000000 1.0
C      1  0.4689660000000  0.4920570000000  0.4114930000000 1.0
C      1  0.4966750000000  0.4975360000000  0.4133610000000 1.0
C      1  0.4546050000000  0.5028470000000  0.4695610000000 1.0
C      1  0.4369470000000  0.4419850000000  0.5007740000000 1.0
C      1  0.5319280000000  0.4528030000000  0.5041980000000 1.0
C      1  0.5009160000000  0.5176540000000  0.4596420000000 1.0
C      1  0.4258740000000  0.4666940000000  0.5029020000000 1.0
C      1  0.4344380000000  0.5057220000000  0.5607740000000 1.0
C      1  0.4743900000000  0.5596230000000  0.5448380000000 1.0
C      1  0.5248730000000  0.5742380000000  0.4843120000000 1.0
C      1  0.5039540000000  0.4436120000000  0.4958830000000 1.0
C      1  0.5194830000000  0.5390800000000  0.4258520000000 1.0
C      1  0.5417720000000  0.4259470000000  0.5421720000000 1.0
C      1  0.4597470000000  0.4596040000000  0.4459110000000 1.0
C      1  0.5066470000000  0.5031010000000  0.5645020000000 1.0
C      1  0.5944190000000  0.4674700000000  0.4690930000000 1.0
C      1  0.4586920000000  0.4257620000000  0.5025680000000 1.0
C      1  0.5394630000000  0.5192970000000  0.5333230000000 1.0
C      1  0.4829820000000  0.4622260000000  0.5667340000000 1.0
C      1  0.4670530000000  0.4755230000000  0.4682900000000 1.0
C      1  0.5083010000000  0.5147100000000  0.4320880000000 1.0
C      1  0.4686700000000  0.5490960000000  0.4544880000000 1.0
C      1  0.5089010000000  0.4872800000000  0.4895370000000 1.0
C      1  0.4992670000000  0.5656430000000  0.5532730000000 1.0
C      1  0.4923890000000  0.5602710000000  0.4419340000000 1.0
C      1  0.5259810000000  0.5616990000000  0.5541320000000 1.0
C      1  0.5233300000000  0.5693980000000  0.4568440000000 1.0
C      1  0.4866740000000  0.4244830000000  0.5089250000000 1.0
C      1  0.5347570000000  0.4821060000000  0.5003930000000 1.0
C      1  0.5396680000000  0.5487050000000  0.4436870000000 1.0
C      1  0.5020530000000  0.5862010000000  0.4954620000000 1.0
C      1  0.5479320000000  0.5084180000000  0.5075120000000 1.0
C      1  0.4959200000000  0.4153550000000  0.5342140000000 1.0
C      1  0.5002500000000  0.5137650000000  0.4876610000000 1.0
C      1  0.5431350000000  0.5569070000000  0.4972560000000 1.0
C      1  0.4961300000000  0.5213290000000  0.5150980000000 1.0
C      1  0.5288020000000  0.4908030000000  0.5780520000000 1.0
C      1  0.4760220000000  0.5809550000000  0.4908060000000 1.0
C      1  0.4507350000000  0.5403680000000  0.5012340000000 1.0
END
