TITL C-3866670-4165-206 -1.53939093617678e-06 125000 -544.019713191284 0 0 90 (C1) n - 1
REM
REM in /home/nfs/bkarasulu/CARBON/AIRSS/Generating-Clusters/LCBOP/Only-C1/SD-CG/HFTN-CG/FIRE-CG
REM
REM
REM
REM
REM
REM ./C.cell (11c1c37f851c82e70ff6c80c92926a4b)
REM AIRSS Version 0.9.1 bugfix July 2018 build 013d7b7c2542+ Fri, 06 Jul 2018 19:26:36 +0100
REM compiler GCC version 9.2.1 20190827 (Red Hat 9.2.1-1)
REM options -cpp -mtune=generic -march=x86-64 -g -O0 -fpre-include=/usr/include/finclude/math-vector-fortran.h
REM seed -338719150 -1765971112 -42905561 1840682234 -1979686614 -148223888 498279042 -1653194528 -1951677860 -235475152 -1383061249 1737143396 -1736329847 -1488588238 -1142764845 1537308084 427975929 1093759682 245630681 1343719514 1337693479 134563503 896604161 1509213448 -379358448 1601845290 -2092898275 -770188065 1187755666 -656467065 1404797519 1207833173 1512235165
REM
CELL 1.54180   50.00000   50.00000   50.00000   90.00000   90.00000   90.00000
LATT -1
SFAC C  
C      1  0.4947080000000  0.4588580000000  0.5248080000000 1.0
C      1  0.5348690000000  0.4655520000000  0.5723530000000 1.0
C      1  0.4448430000000  0.4694800000000  0.4336460000000 1.0
C      1  0.4832620000000  0.5229190000000  0.4956630000000 1.0
C      1  0.5426560000000  0.4586690000000  0.4207610000000 1.0
C      1  0.5457060000000  0.4676800000000  0.4854580000000 1.0
C      1  0.5252330000000  0.4493660000000  0.4784470000000 1.0
C      1  0.4814300000000  0.4545050000000  0.4976430000000 1.0
C      1  0.5800740000000  0.5375080000000  0.5604920000000 1.0
C      1  0.4217770000000  0.4566450000000  0.4950790000000 1.0
C      1  0.5216110000000  0.4083350000000  0.5090250000000 1.0
C      1  0.5191380000000  0.5783720000000  0.5126770000000 1.0
C      1  0.5671440000000  0.4562170000000  0.5007720000000 1.0
C      1  0.4410000000000  0.5511500000000  0.5908610000000 1.0
C      1  0.5968470000000  0.5068090000000  0.4806540000000 1.0
C      1  0.5518860000000  0.4590600000000  0.5525380000000 1.0
C      1  0.5540100000000  0.5396430000000  0.5648850000000 1.0
C      1  0.4805400000000  0.5118480000000  0.4684000000000 1.0
C      1  0.4846810000000  0.5010430000000  0.5545020000000 1.0
C      1  0.4403580000000  0.4873660000000  0.5657040000000 1.0
C      1  0.4577590000000  0.4710480000000  0.4063600000000 1.0
C      1  0.4680870000000  0.4894300000000  0.5740960000000 1.0
C      1  0.5085340000000  0.4132940000000  0.5320120000000 1.0
C      1  0.4968970000000  0.4888110000000  0.4638610000000 1.0
C      1  0.4642190000000  0.4794330000000  0.4973560000000 1.0
C      1  0.4527390000000  0.4496540000000  0.4521460000000 1.0
C      1  0.5707760000000  0.5585390000000  0.4692600000000 1.0
C      1  0.5049300000000  0.5572990000000  0.5263700000000 1.0
C      1  0.4826430000000  0.5943620000000  0.4783810000000 1.0
C      1  0.4201940000000  0.5621290000000  0.5333740000000 1.0
C      1  0.5627010000000  0.5354760000000  0.4275300000000 1.0
C      1  0.4878210000000  0.5615030000000  0.5717500000000 1.0
C      1  0.4612080000000  0.5759720000000  0.4806100000000 1.0
C      1  0.4950190000000  0.5178420000000  0.4109530000000 1.0
C      1  0.4227590000000  0.5062910000000  0.5764790000000 1.0
C      1  0.4800250000000  0.4449600000000  0.5856150000000 1.0
C      1  0.5509450000000  0.4929620000000  0.4744830000000 1.0
C      1  0.5680940000000  0.5350230000000  0.4542580000000 1.0
C      1  0.4923290000000  0.4874590000000  0.5314340000000 1.0
C      1  0.6124860000000  0.5103240000000  0.5018690000000 1.0
C      1  0.4721510000000  0.4354480000000  0.5598410000000 1.0
C      1  0.4380460000000  0.5338720000000  0.4704640000000 1.0
C      1  0.4183680000000  0.5032220000000  0.5092110000000 1.0
C      1  0.4569230000000  0.6226500000000  0.5480850000000 1.0
C      1  0.4223100000000  0.5242140000000  0.4922440000000 1.0
C      1  0.4433800000000  0.4926220000000  0.3934130000000 1.0
C      1  0.4819630000000  0.5395790000000  0.4204010000000 1.0
C      1  0.5320710000000  0.4836150000000  0.4112870000000 1.0
C      1  0.4241570000000  0.5307930000000  0.5870940000000 1.0
C      1  0.5044510000000  0.4911430000000  0.4076350000000 1.0
C      1  0.4659500000000  0.5549060000000  0.4360500000000 1.0
C      1  0.4621360000000  0.4323480000000  0.4939380000000 1.0
C      1  0.5873550000000  0.4453210000000  0.4835630000000 1.0
C      1  0.5718190000000  0.5107840000000  0.4685260000000 1.0
C      1  0.6106340000000  0.4337790000000  0.4934400000000 1.0
C      1  0.4860070000000  0.4683980000000  0.4079050000000 1.0
C      1  0.4979890000000  0.4591510000000  0.4722380000000 1.0
C      1  0.4870970000000  0.4723690000000  0.5883470000000 1.0
C      1  0.4648520000000  0.5615580000000  0.5851670000000 1.0
C      1  0.4495640000000  0.5995990000000  0.5384090000000 1.0
C      1  0.6144600000000  0.5192520000000  0.5268450000000 1.0
C      1  0.4339470000000  0.4685230000000  0.5442160000000 1.0
C      1  0.4224240000000  0.4757410000000  0.5174510000000 1.0
C      1  0.4319430000000  0.5085360000000  0.4130450000000 1.0
C      1  0.5044430000000  0.5947680000000  0.4945020000000 1.0
C      1  0.5221020000000  0.4388500000000  0.4215430000000 1.0
C      1  0.6324910000000  0.4236630000000  0.5033930000000 1.0
C      1  0.4829410000000  0.5468990000000  0.5108420000000 1.0
C      1  0.5469090000000  0.5780100000000  0.5097390000000 1.0
C      1  0.4948820000000  0.4460880000000  0.4243350000000 1.0
C      1  0.4463600000000  0.4430000000000  0.5494480000000 1.0
C      1  0.5150190000000  0.4818700000000  0.5847630000000 1.0
C      1  0.4401440000000  0.4422760000000  0.4779800000000 1.0
C      1  0.5669340000000  0.4538340000000  0.4342750000000 1.0
C      1  0.4934200000000  0.4352110000000  0.5408760000000 1.0
C      1  0.5274100000000  0.4223890000000  0.4868560000000 1.0
C      1  0.4388800000000  0.4976460000000  0.4391710000000 1.0
C      1  0.4607810000000  0.5646380000000  0.5069940000000 1.0
C      1  0.4433870000000  0.5749220000000  0.5266840000000 1.0
C      1  0.4819280000000  0.4452300000000  0.4499810000000 1.0
C      1  0.5642210000000  0.4560030000000  0.5288400000000 1.0
C      1  0.5199820000000  0.5101700000000  0.5823520000000 1.0
C      1  0.5074050000000  0.5507980000000  0.5544850000000 1.0
C      1  0.4776170000000  0.5001620000000  0.5108230000000 1.0
C      1  0.4531740000000  0.5125100000000  0.4582820000000 1.0
C      1  0.5653470000000  0.5721040000000  0.4914620000000 1.0
C      1  0.5267960000000  0.5333140000000  0.5669090000000 1.0
C      1  0.4512060000000  0.5583730000000  0.4606160000000 1.0
C      1  0.5821440000000  0.4472930000000  0.4555240000000 1.0
C      1  0.6021430000000  0.5297210000000  0.5479470000000 1.0
END
