TITL C-3866669-3764-646 0.434832687996387 125000 -289.114348712173 0 0 50 (C1) n - 1
REM
REM in /home/nfs/bkarasulu/CARBON/AIRSS/Generating-Clusters/LCBOP/Only-C1/SD-CG/FIRE-CG
REM
REM
REM
REM
REM
REM ./C.cell (11c1c37f851c82e70ff6c80c92926a4b)
REM AIRSS Version 0.9.1 bugfix July 2018 build 013d7b7c2542+ Fri, 06 Jul 2018 19:26:36 +0100
REM compiler GCC version 9.2.1 20190827 (Red Hat 9.2.1-1)
REM options -cpp -mtune=generic -march=x86-64 -g -O0 -fpre-include=/usr/include/finclude/math-vector-fortran.h
REM seed 1975873440 -324759593 1634117750 -1905750040 977570135 -978307861 -2056179822 407454485 -237026968 -841243656 1970177948 -949762420 1428619076 1242378757 674796665 977269636 1112306658 -2112229731 1758116307 687805435 172257729 1095784882 560688398 774585204 1628507813 419038050 -1423753196 -245000418 -203925435 1906832552 290766 1108873763 -2083568913
REM
CELL 1.54180   50.00000   50.00000   50.00000   90.00000   90.00000   90.00000
LATT -1
SFAC C  
C      1  0.5683140000000  0.4043980000000  0.5462980000000 1.0
C      1  0.4448680000000  0.5394380000000  0.4734550000000 1.0
C      1  0.4166520000000  0.5072170000000  0.5790010000000 1.0
C      1  0.5176780000000  0.5559410000000  0.5586020000000 1.0
C      1  0.4189750000000  0.4739390000000  0.4591580000000 1.0
C      1  0.4839090000000  0.5071100000000  0.4386330000000 1.0
C      1  0.4773980000000  0.4834090000000  0.4572840000000 1.0
C      1  0.5118670000000  0.5109250000000  0.4463030000000 1.0
C      1  0.5915720000000  0.5131180000000  0.4651700000000 1.0
C      1  0.4599670000000  0.5267450000000  0.5247700000000 1.0
C      1  0.4493230000000  0.5919080000000  0.4704410000000 1.0
C      1  0.5132990000000  0.4512640000000  0.4995530000000 1.0
C      1  0.5825180000000  0.4921430000000  0.4801410000000 1.0
C      1  0.5336930000000  0.5615610000000  0.5789520000000 1.0
C      1  0.5085890000000  0.4300070000000  0.5168280000000 1.0
C      1  0.4515760000000  0.5142570000000  0.4792800000000 1.0
C      1  0.5018220000000  0.5502340000000  0.5381860000000 1.0
C      1  0.4372620000000  0.5095130000000  0.5285400000000 1.0
C      1  0.5009090000000  0.5244260000000  0.4959350000000 1.0
C      1  0.4820600000000  0.5953400000000  0.5015980000000 1.0
C      1  0.4850250000000  0.5428420000000  0.5147900000000 1.0
C      1  0.4925360000000  0.4966860000000  0.4999610000000 1.0
C      1  0.5399420000000  0.4714220000000  0.4628050000000 1.0
C      1  0.5241180000000  0.4834690000000  0.4420790000000 1.0
C      1  0.5910790000000  0.4163800000000  0.5395190000000 1.0
C      1  0.5497150000000  0.5671820000000  0.5993060000000 1.0
C      1  0.5654740000000  0.5727100000000  0.6193250000000 1.0
C      1  0.4661850000000  0.6095660000000  0.4837460000000 1.0
C      1  0.5398620000000  0.4900530000000  0.5062630000000 1.0
C      1  0.6078190000000  0.4557720000000  0.5101820000000 1.0
C      1  0.4778290000000  0.4624210000000  0.4368290000000 1.0
C      1  0.5143320000000  0.5272750000000  0.4703060000000 1.0
C      1  0.5059090000000  0.4639300000000  0.4286970000000 1.0
C      1  0.4068870000000  0.5061760000000  0.6031500000000 1.0
C      1  0.5194820000000  0.4121340000000  0.5332960000000 1.0
C      1  0.4265790000000  0.5082770000000  0.5544600000000 1.0
C      1  0.5549780000000  0.4865140000000  0.4821500000000 1.0
C      1  0.4653790000000  0.5009620000000  0.4166890000000 1.0
C      1  0.4174620000000  0.4811920000000  0.4852370000000 1.0
C      1  0.6002530000000  0.4755140000000  0.4941110000000 1.0
C      1  0.5131850000000  0.4788770000000  0.5076620000000 1.0
C      1  0.4300630000000  0.4706870000000  0.4345550000000 1.0
C      1  0.6048890000000  0.4348990000000  0.5263610000000 1.0
C      1  0.4540640000000  0.5648600000000  0.4795910000000 1.0
C      1  0.4550710000000  0.4730490000000  0.4206850000000 1.0
C      1  0.4754950000000  0.5671520000000  0.5001980000000 1.0
C      1  0.5276190000000  0.4482080000000  0.4749460000000 1.0
C      1  0.5418330000000  0.4026260000000  0.5442160000000 1.0
C      1  0.4243860000000  0.4933880000000  0.5084820000000 1.0
C      1  0.4702970000000  0.4928830000000  0.4822770000000 1.0
END
