TITL C-3866671-3735-154 -0.121163254668353 125000 -107.697636245878 0 0 20 (C1) n - 1
REM
REM in /home/nfs/bkarasulu/CARBON/AIRSS/Generating-Clusters/LCBOP/Only-C1/SD-CG/HFTN-CG/FIRE-CG
REM
REM
REM
REM
REM
REM ./C.cell (11c1c37f851c82e70ff6c80c92926a4b)
REM AIRSS Version 0.9.1 bugfix July 2018 build 013d7b7c2542+ Fri, 06 Jul 2018 19:26:36 +0100
REM compiler GCC version 9.2.1 20190827 (Red Hat 9.2.1-1)
REM options -cpp -mtune=generic -march=x86-64 -g -O0 -fpre-include=/usr/include/finclude/math-vector-fortran.h
REM seed 1957749240 2127191675 191786251 205375109 1185326964 1711585160 -35729251 337473325 225221711 1854490499 -1968584429 1721767925 943109591 -2002032727 1316388619 875482909 1157677421 835061243 2131536908 -1834036571 2019303699 -1211525977 1222053726 -2139252220 1958815460 -562302382 1253537708 1405724446 -1936508726 -137917541 -646729687 -809508095 -24592677
REM
CELL 1.54180   50.00000   50.00000   50.00000   90.00000   90.00000   90.00000
LATT -1
SFAC C  
C      1  0.5037450000000  0.4566200000000  0.5912940000000 1.0
C      1  0.5144290000000  0.5645700000000  0.4806870000000 1.0
C      1  0.5606350000000  0.4796270000000  0.4283850000000 1.0
C      1  0.5223400000000  0.5890740000000  0.4766710000000 1.0
C      1  0.4795050000000  0.5312620000000  0.4851160000000 1.0
C      1  0.5495370000000  0.4921770000000  0.4483580000000 1.0
C      1  0.5382470000000  0.5049210000000  0.4686540000000 1.0
C      1  0.4284690000000  0.5189190000000  0.4874330000000 1.0
C      1  0.5018470000000  0.4650200000000  0.5666950000000 1.0
C      1  0.4429990000000  0.4496530000000  0.4883500000000 1.0
C      1  0.4538390000000  0.5247810000000  0.4861790000000 1.0
C      1  0.5546680000000  0.5239010000000  0.5287290000000 1.0
C      1  0.4249610000000  0.4437800000000  0.4704690000000 1.0
C      1  0.5065620000000  0.5381620000000  0.4852160000000 1.0
C      1  0.4612140000000  0.4564330000000  0.5063720000000 1.0
C      1  0.5261860000000  0.5182080000000  0.4900330000000 1.0
C      1  0.4795710000000  0.4643900000000  0.5237270000000 1.0
C      1  0.5333110000000  0.5117060000000  0.5167620000000 1.0
C      1  0.4998430000000  0.4740450000000  0.5403410000000 1.0
C      1  0.5180920000000  0.4927500000000  0.5305280000000 1.0
END
