TITL C-3866676-3738-141 0.0125566096288546 125000 -237.214042863494 0 0 40 (C1) n - 1
REM
REM in /home/nfs/bkarasulu/CARBON/AIRSS/Generating-Clusters/LCBOP/Only-C1/SD-CG/HFTN-CG/FIRE-CG
REM
REM
REM
REM
REM
REM ./C.cell (11c1c37f851c82e70ff6c80c92926a4b)
REM AIRSS Version 0.9.1 bugfix July 2018 build 013d7b7c2542+ Fri, 06 Jul 2018 19:26:36 +0100
REM compiler GCC version 9.2.1 20190827 (Red Hat 9.2.1-1)
REM options -cpp -mtune=generic -march=x86-64 -g -O0 -fpre-include=/usr/include/finclude/math-vector-fortran.h
REM seed -246528550 -1472358851 -1139509291 -1562364980 -1878826223 1624995991 1383933041 -1481023448 -182520252 1615061895 -795015507 14003974 -1601039238 1283284401 544049434 -71802041 -844491921 1816737985 -2059697006 -533374801 -1482543911 251571445 940720658 1204607788 -33793796 -1142621106 -1528850626 -1192032585 1822212433 -654676366 1905804883 2026548857 -2078021974
REM
CELL 1.54180   50.00000   50.00000   50.00000   90.00000   90.00000   90.00000
LATT -1
SFAC C  
C      1  0.4963580000000  0.4969880000000  0.4855880000000 1.0
C      1  0.4955470000000  0.5480650000000  0.5247880000000 1.0
C      1  0.4320240000000  0.5406360000000  0.4953050000000 1.0
C      1  0.5093920000000  0.4912180000000  0.5324300000000 1.0
C      1  0.5656330000000  0.5437620000000  0.5941400000000 1.0
C      1  0.5195920000000  0.4706490000000  0.4481210000000 1.0
C      1  0.5381640000000  0.5436980000000  0.4999780000000 1.0
C      1  0.4923190000000  0.4871240000000  0.5115110000000 1.0
C      1  0.5395000000000  0.4788330000000  0.4302230000000 1.0
C      1  0.4984930000000  0.3978660000000  0.5039910000000 1.0
C      1  0.5709030000000  0.5256540000000  0.4686120000000 1.0
C      1  0.5574910000000  0.5239550000000  0.4933380000000 1.0
C      1  0.4264370000000  0.5249110000000  0.5182010000000 1.0
C      1  0.4616670000000  0.5158950000000  0.5481450000000 1.0
C      1  0.4132970000000  0.4829050000000  0.4768270000000 1.0
C      1  0.5552930000000  0.4730500000000  0.5089830000000 1.0
C      1  0.5004060000000  0.5673930000000  0.4808730000000 1.0
C      1  0.5201860000000  0.4456710000000  0.4612150000000 1.0
C      1  0.4448970000000  0.4797430000000  0.5175290000000 1.0
C      1  0.4992390000000  0.4255770000000  0.5011170000000 1.0
C      1  0.4980730000000  0.3719330000000  0.5065420000000 1.0
C      1  0.5522080000000  0.5453620000000  0.5718510000000 1.0
C      1  0.4420160000000  0.5050810000000  0.5310500000000 1.0
C      1  0.4802290000000  0.5349770000000  0.5444600000000 1.0
C      1  0.5594020000000  0.4993620000000  0.5069190000000 1.0
C      1  0.4114800000000  0.5069030000000  0.4648230000000 1.0
C      1  0.4781010000000  0.4417370000000  0.5106080000000 1.0
C      1  0.4708980000000  0.4685410000000  0.5147900000000 1.0
C      1  0.5717280000000  0.5148150000000  0.4442060000000 1.0
C      1  0.5214910000000  0.4382820000000  0.4884860000000 1.0
C      1  0.4551070000000  0.5565760000000  0.4962610000000 1.0
C      1  0.5385770000000  0.5466520000000  0.5491730000000 1.0
C      1  0.4825860000000  0.5591770000000  0.5013080000000 1.0
C      1  0.4196110000000  0.5316970000000  0.4716260000000 1.0
C      1  0.4251820000000  0.4726120000000  0.4985970000000 1.0
C      1  0.5039970000000  0.4903530000000  0.4608880000000 1.0
C      1  0.5420210000000  0.4505020000000  0.5034740000000 1.0
C      1  0.5244220000000  0.5457730000000  0.5251730000000 1.0
C      1  0.5263430000000  0.5597340000000  0.4797500000000 1.0
C      1  0.5596900000000  0.4963390000000  0.4290980000000 1.0
END
