TITL C-3866676-3738-118 0.574213164269458 125000 -532.410242609656 0 0 88 (C1) n - 1
REM
REM in /home/nfs/bkarasulu/CARBON/AIRSS/Generating-Clusters/LCBOP/Only-C1/SD-CG/HFTN-CG/FIRE-CG
REM
REM
REM
REM
REM
REM ./C.cell (11c1c37f851c82e70ff6c80c92926a4b)
REM AIRSS Version 0.9.1 bugfix July 2018 build 013d7b7c2542+ Fri, 06 Jul 2018 19:26:36 +0100
REM compiler GCC version 9.2.1 20190827 (Red Hat 9.2.1-1)
REM options -cpp -mtune=generic -march=x86-64 -g -O0 -fpre-include=/usr/include/finclude/math-vector-fortran.h
REM seed -1982999031 -1686807924 286083737 1788661115 -544667644 -826090862 -1737129638 1215126396 -88736617 -1853546487 638998486 862323816 -915039560 1302029377 1381083410 -1485290333 -425834212 -436945446 1807888024 306961743 1171880335 1763572280 604289513 836081580 260314894 1023398719 1027363220 -1657902009 -883585923 51342998 -1915863701 -1283770380 -2121240963
REM
CELL 1.54180   50.00000   50.00000   50.00000   90.00000   90.00000   90.00000
LATT -1
SFAC C  
C      1  0.5696310000000  0.4930460000000  0.4126760000000 1.0
C      1  0.4992610000000  0.4733480000000  0.5534330000000 1.0
C      1  0.5352500000000  0.4101050000000  0.4425270000000 1.0
C      1  0.4853050000000  0.4082890000000  0.4808790000000 1.0
C      1  0.5020480000000  0.5945160000000  0.4924840000000 1.0
C      1  0.4401190000000  0.5150510000000  0.5308040000000 1.0
C      1  0.4670660000000  0.5711540000000  0.4368470000000 1.0
C      1  0.5737770000000  0.4661440000000  0.4093340000000 1.0
C      1  0.5128590000000  0.4813040000000  0.4528940000000 1.0
C      1  0.5001670000000  0.5136850000000  0.4046300000000 1.0
C      1  0.4085670000000  0.4793640000000  0.6596530000000 1.0
C      1  0.4803250000000  0.4232450000000  0.4331180000000 1.0
C      1  0.5234330000000  0.5866370000000  0.5086940000000 1.0
C      1  0.5442240000000  0.5602090000000  0.4378800000000 1.0
C      1  0.5243120000000  0.4787920000000  0.5669030000000 1.0
C      1  0.5051660000000  0.4862280000000  0.4046750000000 1.0
C      1  0.4729700000000  0.5917310000000  0.5358780000000 1.0
C      1  0.5223900000000  0.5512000000000  0.4256400000000 1.0
C      1  0.4985330000000  0.4723940000000  0.4297730000000 1.0
C      1  0.4808100000000  0.5474200000000  0.5912330000000 1.0
C      1  0.4595060000000  0.5840980000000  0.4133630000000 1.0
C      1  0.4498460000000  0.5208100000000  0.4773940000000 1.0
C      1  0.5575560000000  0.4230670000000  0.4826270000000 1.0
C      1  0.4761610000000  0.4660870000000  0.4796940000000 1.0
C      1  0.5253720000000  0.5284650000000  0.5579520000000 1.0
C      1  0.4570940000000  0.4473870000000  0.4876280000000 1.0
C      1  0.4398130000000  0.4737120000000  0.5577650000000 1.0
C      1  0.5870640000000  0.4614710000000  0.4924370000000 1.0
C      1  0.5680120000000  0.4484970000000  0.4769180000000 1.0
C      1  0.4531730000000  0.5957120000000  0.3904100000000 1.0
C      1  0.4425060000000  0.5175840000000  0.5028340000000 1.0
C      1  0.4932690000000  0.5737220000000  0.5452200000000 1.0
C      1  0.4980140000000  0.4833480000000  0.4765230000000 1.0
C      1  0.5193640000000  0.4396830000000  0.4061990000000 1.0
C      1  0.4970010000000  0.4468760000000  0.5431240000000 1.0
C      1  0.5370550000000  0.5040720000000  0.5661690000000 1.0
C      1  0.4592000000000  0.5874920000000  0.5111360000000 1.0
C      1  0.4811810000000  0.4978480000000  0.6524580000000 1.0
C      1  0.4827910000000  0.4933840000000  0.5420330000000 1.0
C      1  0.4958710000000  0.4440830000000  0.4237450000000 1.0
C      1  0.5348310000000  0.4103290000000  0.4712000000000 1.0
C      1  0.4670340000000  0.6140120000000  0.5507890000000 1.0
C      1  0.5758090000000  0.5170000000000  0.5386640000000 1.0
C      1  0.4788330000000  0.4062430000000  0.4536490000000 1.0
C      1  0.4470420000000  0.6070390000000  0.3677440000000 1.0
C      1  0.5352990000000  0.5470650000000  0.5385080000000 1.0
C      1  0.5386570000000  0.4318560000000  0.5576460000000 1.0
C      1  0.5640330000000  0.5701700000000  0.4855400000000 1.0
C      1  0.4663570000000  0.5842950000000  0.4616390000000 1.0
C      1  0.4659680000000  0.4216210000000  0.4970120000000 1.0
C      1  0.4625530000000  0.5268060000000  0.4546860000000 1.0
C      1  0.4168390000000  0.4774740000000  0.6350030000000 1.0
C      1  0.5402240000000  0.4553660000000  0.5713750000000 1.0
C      1  0.5574720000000  0.4603750000000  0.4536580000000 1.0
C      1  0.5191140000000  0.4647650000000  0.3903970000000 1.0
C      1  0.4323330000000  0.5827210000000  0.5102630000000 1.0
C      1  0.4787540000000  0.5142940000000  0.6323760000000 1.0
C      1  0.5538330000000  0.5025000000000  0.4329970000000 1.0
C      1  0.5617550000000  0.4478690000000  0.4276590000000 1.0
C      1  0.5172630000000  0.4272250000000  0.5395350000000 1.0
C      1  0.5126060000000  0.4071260000000  0.4892560000000 1.0
C      1  0.5605860000000  0.5657020000000  0.4581700000000 1.0
C      1  0.4749890000000  0.5896680000000  0.4876070000000 1.0
C      1  0.4258600000000  0.4759610000000  0.6101260000000 1.0
C      1  0.5612840000000  0.5392570000000  0.5274050000000 1.0
C      1  0.5183110000000  0.5694800000000  0.5312040000000 1.0
C      1  0.4987670000000  0.5365160000000  0.4212670000000 1.0
C      1  0.5968890000000  0.4811720000000  0.5072590000000 1.0
C      1  0.4778510000000  0.5310910000000  0.6118930000000 1.0
C      1  0.5030420000000  0.5024720000000  0.4961420000000 1.0
C      1  0.5175470000000  0.4107110000000  0.5169790000000 1.0
C      1  0.4183740000000  0.4581660000000  0.5169210000000 1.0
C      1  0.4430970000000  0.4265610000000  0.5421210000000 1.0
C      1  0.4755800000000  0.5438240000000  0.4364400000000 1.0
C      1  0.5650580000000  0.5049070000000  0.5618530000000 1.0
C      1  0.5713770000000  0.5501570000000  0.5035680000000 1.0
C      1  0.4342130000000  0.4748910000000  0.5850170000000 1.0
C      1  0.5412680000000  0.4287690000000  0.4212870000000 1.0
C      1  0.4305710000000  0.4553560000000  0.4929920000000 1.0
C      1  0.5937950000000  0.5021880000000  0.5232380000000 1.0
C      1  0.4240060000000  0.5321360000000  0.5448960000000 1.0
C      1  0.5489800000000  0.5904710000000  0.4978680000000 1.0
C      1  0.4307360000000  0.4520770000000  0.5417310000000 1.0
C      1  0.5413370000000  0.4841350000000  0.4511090000000 1.0
C      1  0.4880250000000  0.5609440000000  0.5696160000000 1.0
C      1  0.4566160000000  0.4138060000000  0.5224680000000 1.0
C      1  0.4544930000000  0.4945480000000  0.5447500000000 1.0
C      1  0.4946800000000  0.5076200000000  0.5208960000000 1.0
END
