TITL C-3866675-3766-488 5.29902806981169e-07 125000 -430.878971890342 0 0 71 (C1) n - 1
REM
REM in /home/nfs/bkarasulu/CARBON/AIRSS/Generating-Clusters/LCBOP/Only-C1/SD-CG/FIRE-CG
REM
REM
REM
REM
REM
REM ./C.cell (11c1c37f851c82e70ff6c80c92926a4b)
REM AIRSS Version 0.9.1 bugfix July 2018 build 013d7b7c2542+ Fri, 06 Jul 2018 19:26:36 +0100
REM compiler GCC version 9.2.1 20190827 (Red Hat 9.2.1-1)
REM options -cpp -mtune=generic -march=x86-64 -g -O0 -fpre-include=/usr/include/finclude/math-vector-fortran.h
REM seed -1497216743 530679585 -232248928 1941407297 -956337936 -723222510 868004833 1694947677 -296423771 -3308809 -275460497 2104631323 1453470326 1421702224 991922321 1124729736 377440892 -349987164 1899044430 -904867538 -1416139334 1429443885 1586214043 1122825492 386761174 1804473212 1313050836 1800515139 1167188536 -2031073657 207399379 -1304445585 625556300
REM
CELL 1.54180   50.00000   50.00000   50.00000   90.00000   90.00000   90.00000
LATT -1
SFAC C  
C      1  0.5791950000000  0.5226020000000  0.4417580000000 1.0
C      1  0.5136640000000  0.4802450000000  0.4681210000000 1.0
C      1  0.4712640000000  0.4437130000000  0.4638270000000 1.0
C      1  0.5646120000000  0.4541160000000  0.5299350000000 1.0
C      1  0.4865350000000  0.4397100000000  0.4886650000000 1.0
C      1  0.5290310000000  0.4781970000000  0.4920400000000 1.0
C      1  0.5184070000000  0.5594880000000  0.5459620000000 1.0
C      1  0.5184710000000  0.5111540000000  0.5330580000000 1.0
C      1  0.5695040000000  0.4798410000000  0.5411960000000 1.0
C      1  0.4313860000000  0.4419650000000  0.4941960000000 1.0
C      1  0.5011210000000  0.5715040000000  0.4589910000000 1.0
C      1  0.5441440000000  0.5218010000000  0.5358900000000 1.0
C      1  0.5429070000000  0.5503490000000  0.5317810000000 1.0
C      1  0.5292390000000  0.4695150000000  0.4462390000000 1.0
C      1  0.5680550000000  0.5070710000000  0.4982450000000 1.0
C      1  0.4347830000000  0.4416200000000  0.5209810000000 1.0
C      1  0.4534650000000  0.4392450000000  0.5423010000000 1.0
C      1  0.5558550000000  0.4799430000000  0.4534380000000 1.0
C      1  0.5296920000000  0.4219410000000  0.5061680000000 1.0
C      1  0.5135410000000  0.4694500000000  0.5141960000000 1.0
C      1  0.4956280000000  0.5697000000000  0.5320970000000 1.0
C      1  0.5714410000000  0.4971190000000  0.4374430000000 1.0
C      1  0.4603210000000  0.5170700000000  0.5409340000000 1.0
C      1  0.5692490000000  0.5350880000000  0.4896340000000 1.0
C      1  0.4705240000000  0.5103510000000  0.5665030000000 1.0
C      1  0.4397310000000  0.4821710000000  0.4682100000000 1.0
C      1  0.5625880000000  0.5008560000000  0.5878390000000 1.0
C      1  0.5491870000000  0.5228140000000  0.5949060000000 1.0
C      1  0.4210570000000  0.5264160000000  0.4849630000000 1.0
C      1  0.4715080000000  0.4176260000000  0.5393270000000 1.0
C      1  0.5000230000000  0.5214130000000  0.5131070000000 1.0
C      1  0.5010900000000  0.5290950000000  0.4360230000000 1.0
C      1  0.5060070000000  0.5326480000000  0.4873160000000 1.0
C      1  0.4578560000000  0.5890340000000  0.4769970000000 1.0
C      1  0.4828680000000  0.5902500000000  0.4647190000000 1.0
C      1  0.5367910000000  0.5675790000000  0.6080890000000 1.0
C      1  0.4579360000000  0.4594840000000  0.5617740000000 1.0
C      1  0.4641210000000  0.5075770000000  0.4098630000000 1.0
C      1  0.5161150000000  0.4836880000000  0.5378770000000 1.0
C      1  0.5711200000000  0.4837280000000  0.5691080000000 1.0
C      1  0.4818700000000  0.4513960000000  0.4363490000000 1.0
C      1  0.4202760000000  0.5019730000000  0.4732390000000 1.0
C      1  0.5331690000000  0.5457870000000  0.5919670000000 1.0
C      1  0.5062070000000  0.4868000000000  0.4100540000000 1.0
C      1  0.4652950000000  0.4914990000000  0.4760980000000 1.0
C      1  0.4870600000000  0.4030440000000  0.5207160000000 1.0
C      1  0.4604750000000  0.4591120000000  0.4183550000000 1.0
C      1  0.4721930000000  0.5678160000000  0.5188210000000 1.0
C      1  0.4903370000000  0.5285620000000  0.5758190000000 1.0
C      1  0.5581080000000  0.5549520000000  0.5076900000000 1.0
C      1  0.4430540000000  0.4530600000000  0.4705680000000 1.0
C      1  0.5128760000000  0.5459600000000  0.5717660000000 1.0
C      1  0.4537810000000  0.5675700000000  0.4973520000000 1.0
C      1  0.5775680000000  0.5390770000000  0.4630390000000 1.0
C      1  0.4879660000000  0.3757640000000  0.5208490000000 1.0
C      1  0.5506660000000  0.4342650000000  0.5180110000000 1.0
C      1  0.4701860000000  0.4863640000000  0.5034540000000 1.0
C      1  0.4892820000000  0.4925160000000  0.4625910000000 1.0
C      1  0.4739860000000  0.5102830000000  0.5176490000000 1.0
C      1  0.4656140000000  0.4830160000000  0.5727430000000 1.0
C      1  0.5557350000000  0.4863330000000  0.4827630000000 1.0
C      1  0.5084500000000  0.4635580000000  0.4272680000000 1.0
C      1  0.4518950000000  0.4832820000000  0.4094910000000 1.0
C      1  0.5042620000000  0.5434780000000  0.4606480000000 1.0
C      1  0.4145050000000  0.5736470000000  0.4734160000000 1.0
C      1  0.4869940000000  0.4630710000000  0.5062730000000 1.0
C      1  0.5646980000000  0.5041000000000  0.5264470000000 1.0
C      1  0.4916950000000  0.5108440000000  0.4161590000000 1.0
C      1  0.4317640000000  0.5938990000000  0.4660650000000 1.0
C      1  0.4283580000000  0.5532930000000  0.4892490000000 1.0
C      1  0.5016400000000  0.4185010000000  0.5013770000000 1.0
END
