TITL C-3866673-4222-187 -3.95550760030903e-05 125000 -213.164992129552 0 0 37 (C1) n - 1
REM
REM in /home/nfs/bkarasulu/CARBON/AIRSS/Generating-Clusters/LCBOP/Only-C1/SD-CG/HFTN-CG/FIRE-CG
REM
REM
REM
REM
REM
REM ./C.cell (11c1c37f851c82e70ff6c80c92926a4b)
REM AIRSS Version 0.9.1 bugfix July 2018 build 013d7b7c2542+ Fri, 06 Jul 2018 19:26:36 +0100
REM compiler GCC version 9.2.1 20190827 (Red Hat 9.2.1-1)
REM options -cpp -mtune=generic -march=x86-64 -g -O0 -fpre-include=/usr/include/finclude/math-vector-fortran.h
REM seed -302109841 604031422 -1549995666 -801920815 35157083 488765823 1604145980 157850903 681570164 -783009187 352074869 1118231782 837050184 -1098061998 1849212841 990086012 -1485034885 -1290364033 -436838944 1733178341 -278539892 -1425413628 -914678619 1850233907 -1137297461 930786651 -2115920881 2053718152 450412247 360200336 -1026761958 239317126 -2056796602
REM
CELL 1.54180   50.00000   50.00000   50.00000   90.00000   90.00000   90.00000
LATT -1
SFAC C  
C      1  0.5803700000000  0.4579200000000  0.4882960000000 1.0
C      1  0.4752420000000  0.4973240000000  0.4887610000000 1.0
C      1  0.5495750000000  0.4952420000000  0.4823990000000 1.0
C      1  0.4683140000000  0.5244670000000  0.4891870000000 1.0
C      1  0.4913300000000  0.4742310000000  0.5287850000000 1.0
C      1  0.5126520000000  0.5664900000000  0.4669700000000 1.0
C      1  0.5120110000000  0.4577160000000  0.5195190000000 1.0
C      1  0.4894800000000  0.4870980000000  0.4668670000000 1.0
C      1  0.5553490000000  0.5203710000000  0.4954170000000 1.0
C      1  0.5351340000000  0.5636980000000  0.4850280000000 1.0
C      1  0.5458540000000  0.5324930000000  0.5199700000000 1.0
C      1  0.4442220000000  0.4699840000000  0.5148420000000 1.0
C      1  0.5373120000000  0.5286140000000  0.4508810000000 1.0
C      1  0.5356490000000  0.4566250000000  0.5074140000000 1.0
C      1  0.4195690000000  0.4622440000000  0.5257340000000 1.0
C      1  0.4957200000000  0.4882020000000  0.5533170000000 1.0
C      1  0.6036690000000  0.4471430000000  0.4838030000000 1.0
C      1  0.5038410000000  0.4922690000000  0.4199560000000 1.0
C      1  0.5354210000000  0.5005420000000  0.4573770000000 1.0
C      1  0.4538690000000  0.4787560000000  0.5837470000000 1.0
C      1  0.4780270000000  0.4852960000000  0.5746930000000 1.0
C      1  0.5372110000000  0.5189160000000  0.5425610000000 1.0
C      1  0.5364420000000  0.5591420000000  0.5133840000000 1.0
C      1  0.4298210000000  0.4703410000000  0.5758650000000 1.0
C      1  0.5182510000000  0.5047730000000  0.5547130000000 1.0
C      1  0.5555130000000  0.4697320000000  0.4926860000000 1.0
C      1  0.3987830000000  0.4532510000000  0.5095170000000 1.0
C      1  0.5170600000000  0.5481020000000  0.4448940000000 1.0
C      1  0.3793640000000  0.4448590000000  0.4942940000000 1.0
C      1  0.5204630000000  0.4543730000000  0.4465490000000 1.0
C      1  0.5123500000000  0.4836290000000  0.4478920000000 1.0
C      1  0.4166570000000  0.4639220000000  0.5535740000000 1.0
C      1  0.4714110000000  0.5505180000000  0.4847730000000 1.0
C      1  0.4698260000000  0.4805810000000  0.5111850000000 1.0
C      1  0.4864760000000  0.5724540000000  0.4756790000000 1.0
C      1  0.4764690000000  0.5978110000000  0.4752830000000 1.0
C      1  0.5512920000000  0.5408720000000  0.4741890000000 1.0
END
