TITL C-3866676-3738-253 49.0449005057034 125000 -1017.92252140771 0 0 166 (C1) n - 1
REM
REM in /home/nfs/bkarasulu/CARBON/AIRSS/Generating-Clusters/LCBOP/Only-C1/SD-CG/HFTN-CG/FIRE-CG
REM
REM
REM
REM
REM
REM ./C.cell (11c1c37f851c82e70ff6c80c92926a4b)
REM AIRSS Version 0.9.1 bugfix July 2018 build 013d7b7c2542+ Fri, 06 Jul 2018 19:26:36 +0100
REM compiler GCC version 9.2.1 20190827 (Red Hat 9.2.1-1)
REM options -cpp -mtune=generic -march=x86-64 -g -O0 -fpre-include=/usr/include/finclude/math-vector-fortran.h
REM seed -211528012 173751626 -1137988840 -1953145784 -1342860980 -1998215447 -1090003201 -920038743 -180591449 142024986 -1729693206 1114566162 1483062829 -431450444 513099821 371412430 565267379 1570566245 1481309386 2086510554 267629796 248702011 679102753 -678277380 -551556767 -1282587888 1074522741 -689911732 -607714097 -911770854 421148559 1739245273 1323893740
REM
CELL 1.54180   50.00000   50.00000   50.00000   90.00000   90.00000   90.00000
LATT -1
SFAC C  
C      1  0.4711490000000  0.4385270000000  0.5844920000000 1.0
C      1  0.5620440000000  0.5340140000000  0.5813760000000 1.0
C      1  0.4808400000000  0.4093290000000  0.5027210000000 1.0
C      1  0.5412800000000  0.4929050000000  0.4090840000000 1.0
C      1  0.4427160000000  0.4928960000000  0.3896510000000 1.0
C      1  0.5223360000000  0.5982320000000  0.5401330000000 1.0
C      1  0.4769720000000  0.3940920000000  0.4783370000000 1.0
C      1  0.5530860000000  0.4236290000000  0.4661660000000 1.0
C      1  0.5695770000000  0.4974760000000  0.4046830000000 1.0
C      1  0.4439820000000  0.4152890000000  0.5414100000000 1.0
C      1  0.6121450000000  0.5513860000000  0.5150590000000 1.0
C      1  0.3960120000000  0.4883850000000  0.4437190000000 1.0
C      1  0.5045790000000  0.5556230000000  0.5432690000000 1.0
C      1  0.4322900000000  0.4372410000000  0.4923750000000 1.0
C      1  0.5583790000000  0.5973970000000  0.4845290000000 1.0
C      1  0.5569600000000  0.4505330000000  0.4752790000000 1.0
C      1  0.6423480000000  0.5105990000000  0.5125450000000 1.0
C      1  0.5700210000000  0.5666900000000  0.4417670000000 1.0
C      1  0.4782800000000  0.4846960000000  0.4230960000000 1.0
C      1  0.4665500000000  0.5073070000000  0.4918990000000 1.0
C      1  0.5436300000000  0.3895060000000  0.5188710000000 1.0
C      1  0.5929000000000  0.5354800000000  0.5006200000000 1.0
C      1  0.6665470000000  0.4989090000000  0.5170710000000 1.0
C      1  0.5102390000000  0.4328440000000  0.4239920000000 1.0
C      1  0.5614310000000  0.5238900000000  0.5337980000000 1.0
C      1  0.6362880000000  0.5375350000000  0.5198640000000 1.0
C      1  0.5120820000000  0.4628310000000  0.5925010000000 1.0
C      1  0.4921290000000  0.5614690000000  0.5882590000000 1.0
C      1  0.4066860000000  0.5725430000000  0.4571680000000 1.0
C      1  0.6046410000000  0.5160310000000  0.4831660000000 1.0
C      1  0.5291540000000  0.4127380000000  0.4755920000000 1.0
C      1  0.4794720000000  0.5359770000000  0.5947530000000 1.0
C      1  0.5043600000000  0.4418650000000  0.4503800000000 1.0
C      1  0.5886980000000  0.4553290000000  0.5202920000000 1.0
C      1  0.5317240000000  0.4833490000000  0.5891840000000 1.0
C      1  0.4615180000000  0.5575760000000  0.5204490000000 1.0
C      1  0.6000190000000  0.4269900000000  0.4753700000000 1.0
C      1  0.5500660000000  0.4986130000000  0.5302470000000 1.0
C      1  0.5406370000000  0.4685520000000  0.4249950000000 1.0
C      1  0.5006850000000  0.5811490000000  0.5325740000000 1.0
C      1  0.4479570000000  0.5409580000000  0.4416150000000 1.0
C      1  0.5347450000000  0.5360780000000  0.5872440000000 1.0
C      1  0.4438850000000  0.4497590000000  0.4091930000000 1.0
C      1  0.4419720000000  0.6119530000000  0.5605820000000 1.0
C      1  0.5365890000000  0.5813410000000  0.5614700000000 1.0
C      1  0.4897140000000  0.4581870000000  0.5744800000000 1.0
C      1  0.4226650000000  0.5794540000000  0.5004470000000 1.0
C      1  0.5228880000000  0.3852820000000  0.4730320000000 1.0
C      1  0.3878870000000  0.4672100000000  0.5439160000000 1.0
C      1  0.4008580000000  0.5448390000000  0.4570530000000 1.0
C      1  0.4917300000000  0.4363210000000  0.5005550000000 1.0
C      1  0.5853700000000  0.4699100000000  0.4437120000000 1.0
C      1  0.4500290000000  0.5000430000000  0.3644220000000 1.0
C      1  0.5304350000000  0.6165580000000  0.5190080000000 1.0
C      1  0.5672090000000  0.5418810000000  0.5552450000000 1.0
C      1  0.4469270000000  0.4762390000000  0.6084780000000 1.0
C      1  0.5238790000000  0.6109400000000  0.4444700000000 1.0
C      1  0.5351640000000  0.4424990000000  0.4152350000000 1.0
C      1  0.5618760000000  0.5700730000000  0.5511480000000 1.0
C      1  0.5081010000000  0.5056440000000  0.5549240000000 1.0
C      1  0.4197450000000  0.5025790000000  0.4025940000000 1.0
C      1  0.4298970000000  0.6352400000000  0.5568840000000 1.0
C      1  0.5213340000000  0.5623270000000  0.5819350000000 1.0
C      1  0.4532360000000  0.5643500000000  0.4602170000000 1.0
C      1  0.5173830000000  0.5467050000000  0.4884650000000 1.0
C      1  0.3615200000000  0.5282860000000  0.4807200000000 1.0
C      1  0.6203160000000  0.4969660000000  0.4993810000000 1.0
C      1  0.5189720000000  0.5100580000000  0.5843090000000 1.0
C      1  0.5740670000000  0.5803210000000  0.5277160000000 1.0
C      1  0.4499270000000  0.4593860000000  0.4856930000000 1.0
C      1  0.4954420000000  0.5674520000000  0.4877390000000 1.0
C      1  0.4713720000000  0.5840180000000  0.3922780000000 1.0
C      1  0.4797810000000  0.4956170000000  0.5504800000000 1.0
C      1  0.4744480000000  0.5818040000000  0.5804830000000 1.0
C      1  0.4570980000000  0.5110750000000  0.5568120000000 1.0
C      1  0.5657520000000  0.5347920000000  0.5080420000000 1.0
C      1  0.5901790000000  0.5463200000000  0.4434740000000 1.0
C      1  0.4539390000000  0.5867950000000  0.5620450000000 1.0
C      1  0.4372250000000  0.4207120000000  0.5144700000000 1.0
C      1  0.5589260000000  0.4783570000000  0.5835830000000 1.0
C      1  0.4888570000000  0.3967370000000  0.5271530000000 1.0
C      1  0.3880200000000  0.5351230000000  0.4808620000000 1.0
C      1  0.4136570000000  0.5287970000000  0.5581010000000 1.0
C      1  0.5449540000000  0.5525370000000  0.4987600000000 1.0
C      1  0.5088180000000  0.5303760000000  0.5400460000000 1.0
C      1  0.4684930000000  0.4054580000000  0.4533760000000 1.0
C      1  0.4369420000000  0.4344770000000  0.4313850000000 1.0
C      1  0.4128480000000  0.4297750000000  0.4727660000000 1.0
C      1  0.4087590000000  0.5609140000000  0.5180080000000 1.0
C      1  0.4026540000000  0.5044980000000  0.5720680000000 1.0
C      1  0.4178660000000  0.6580040000000  0.5528030000000 1.0
C      1  0.6002880000000  0.4485960000000  0.4577730000000 1.0
C      1  0.4869980000000  0.5034340000000  0.4710460000000 1.0
C      1  0.4804430000000  0.4671860000000  0.5475380000000 1.0
C      1  0.5818100000000  0.4474370000000  0.5485160000000 1.0
C      1  0.5088880000000  0.5406130000000  0.4437480000000 1.0
C      1  0.5200780000000  0.4616410000000  0.5297150000000 1.0
C      1  0.4469430000000  0.4857790000000  0.4940490000000 1.0
C      1  0.5581460000000  0.4855520000000  0.5070860000000 1.0
C      1  0.4333900000000  0.5149280000000  0.5411240000000 1.0
C      1  0.4207040000000  0.4920380000000  0.5006240000000 1.0
C      1  0.4239110000000  0.4524910000000  0.5738600000000 1.0
C      1  0.4049000000000  0.4747090000000  0.5659800000000 1.0
C      1  0.5562660000000  0.4236310000000  0.4169620000000 1.0
C      1  0.3968370000000  0.4779010000000  0.4945860000000 1.0
C      1  0.4456660000000  0.5659880000000  0.5443250000000 1.0
C      1  0.4837380000000  0.4139160000000  0.5730660000000 1.0
C      1  0.4797610000000  0.3948600000000  0.4293320000000 1.0
C      1  0.5669320000000  0.4596370000000  0.5006550000000 1.0
C      1  0.5141610000000  0.4123650000000  0.5730110000000 1.0
C      1  0.4460180000000  0.5026910000000  0.6035350000000 1.0
C      1  0.5679880000000  0.4233540000000  0.5590610000000 1.0
C      1  0.4628570000000  0.5318320000000  0.5067250000000 1.0
C      1  0.5417020000000  0.4978820000000  0.4628880000000 1.0
C      1  0.6019350000000  0.5757900000000  0.5245890000000 1.0
C      1  0.4569520000000  0.5209270000000  0.5845710000000 1.0
C      1  0.5386930000000  0.6173790000000  0.4909170000000 1.0
C      1  0.5266160000000  0.4873050000000  0.5400540000000 1.0
C      1  0.5328150000000  0.4387820000000  0.5376860000000 1.0
C      1  0.5247200000000  0.6250570000000  0.4676220000000 1.0
C      1  0.4708030000000  0.4045110000000  0.5488210000000 1.0
C      1  0.5089160000000  0.4336350000000  0.4770490000000 1.0
C      1  0.4463440000000  0.4531040000000  0.5922840000000 1.0
C      1  0.4688820000000  0.5298540000000  0.4238830000000 1.0
C      1  0.5387050000000  0.4217590000000  0.5595200000000 1.0
C      1  0.4574810000000  0.4742790000000  0.4055910000000 1.0
C      1  0.3838950000000  0.4674600000000  0.5173180000000 1.0
C      1  0.5298380000000  0.5379020000000  0.4235710000000 1.0
C      1  0.5240100000000  0.5842120000000  0.4352140000000 1.0
C      1  0.6030970000000  0.5259010000000  0.4563390000000 1.0
C      1  0.4028590000000  0.5360200000000  0.5054140000000 1.0
C      1  0.6106930000000  0.4727650000000  0.5120760000000 1.0
C      1  0.5577220000000  0.5779220000000  0.5042680000000 1.0
C      1  0.5782660000000  0.4687740000000  0.5674370000000 1.0
C      1  0.4187980000000  0.5146600000000  0.5159730000000 1.0
C      1  0.4129800000000  0.4296070000000  0.4455090000000 1.0
C      1  0.4974370000000  0.5691370000000  0.4391300000000 1.0
C      1  0.5206740000000  0.5132210000000  0.4107820000000 1.0
C      1  0.4175590000000  0.5566060000000  0.5459660000000 1.0
C      1  0.4301190000000  0.5777000000000  0.4726400000000 1.0
C      1  0.4902630000000  0.5100260000000  0.4150540000000 1.0
C      1  0.5879190000000  0.4091280000000  0.4929580000000 1.0
C      1  0.5891360000000  0.4855040000000  0.4199520000000 1.0
C      1  0.3890660000000  0.4783460000000  0.4675990000000 1.0
C      1  0.5446030000000  0.5635130000000  0.4281130000000 1.0
C      1  0.5134790000000  0.4483480000000  0.6159420000000 1.0
C      1  0.4652660000000  0.4566670000000  0.4622040000000 1.0
C      1  0.4826290000000  0.5756900000000  0.5116540000000 1.0
C      1  0.5549860000000  0.4713600000000  0.4529960000000 1.0
C      1  0.4114460000000  0.5067570000000  0.4289820000000 1.0
C      1  0.4257760000000  0.4280290000000  0.5591820000000 1.0
C      1  0.4975580000000  0.5160010000000  0.6039070000000 1.0
C      1  0.5091350000000  0.5244120000000  0.4684590000000 1.0
C      1  0.4823580000000  0.5752700000000  0.4142260000000 1.0
C      1  0.4206290000000  0.5300360000000  0.4422900000000 1.0
C      1  0.4590860000000  0.4319310000000  0.4492120000000 1.0
C      1  0.5170380000000  0.3881210000000  0.5267150000000 1.0
C      1  0.5635280000000  0.4143560000000  0.4414020000000 1.0
C      1  0.4807500000000  0.5717170000000  0.4636170000000 1.0
C      1  0.5678080000000  0.3969640000000  0.5076220000000 1.0
C      1  0.4973350000000  0.4095600000000  0.4148040000000 1.0
C      1  0.4789320000000  0.4807180000000  0.4520210000000 1.0
C      1  0.5705590000000  0.5888430000000  0.4602550000000 1.0
C      1  0.4978930000000  0.3749600000000  0.4749040000000 1.0
C      1  0.4928910000000  0.4558950000000  0.5231220000000 1.0
C      1  0.5539350000000  0.5206690000000  0.4637650000000 1.0
END
