TITL C-3866674-3872-730 208.912864176338 125000 -344.309089254214 0 0 60 (C1) n - 1
REM
REM in /home/nfs/bkarasulu/CARBON/AIRSS/Generating-Clusters/LCBOP/Only-C1/SD-CG/FIRE-CG
REM
REM
REM
REM
REM
REM ./C.cell (11c1c37f851c82e70ff6c80c92926a4b)
REM AIRSS Version 0.9.1 bugfix July 2018 build 013d7b7c2542+ Fri, 06 Jul 2018 19:26:36 +0100
REM compiler GCC version 9.2.1 20190827 (Red Hat 9.2.1-1)
REM options -cpp -mtune=generic -march=x86-64 -g -O0 -fpre-include=/usr/include/finclude/math-vector-fortran.h
REM seed 2133986022 -1877467694 -1130329351 637682510 1348021475 -1835549062 1472395879 -1130136007 -1188798851 605713296 -1321107716 -350876445 1209346228 -1137694291 -97599778 821621403 236437813 939789674 1245305817 2027464749 -396835197 -1430882516 1189097019 187802297 1590645237 -134860071 979770753 1544072033 -944784388 -841584713 -898100680 1647911515 -1207787783
REM
CELL 1.54180   50.00000   50.00000   50.00000   90.00000   90.00000   90.00000
LATT -1
SFAC C  
C      1  0.5178630000000  0.5300200000000  0.5692030000000 1.0
C      1  0.5008100000000  0.5701120000000  0.5052980000000 1.0
C      1  0.4610250000000  0.5023600000000  0.4885850000000 1.0
C      1  0.5137650000000  0.4618690000000  0.5417810000000 1.0
C      1  0.4130770000000  0.5162060000000  0.5005380000000 1.0
C      1  0.5426550000000  0.5193880000000  0.4296670000000 1.0
C      1  0.4934920000000  0.4984210000000  0.5168980000000 1.0
C      1  0.5262980000000  0.5398600000000  0.4755910000000 1.0
C      1  0.5148070000000  0.5657410000000  0.4806260000000 1.0
C      1  0.4748250000000  0.5368310000000  0.5406250000000 1.0
C      1  0.4673800000000  0.4840660000000  0.4361350000000 1.0
C      1  0.5197140000000  0.5338970000000  0.5254670000000 1.0
C      1  0.4924520000000  0.4711570000000  0.5261600000000 1.0
C      1  0.4660370000000  0.5475160000000  0.4798590000000 1.0
C      1  0.4534470000000  0.4255440000000  0.4706910000000 1.0
C      1  0.4509670000000  0.5193920000000  0.5323950000000 1.0
C      1  0.5710530000000  0.4605670000000  0.4944900000000 1.0
C      1  0.4735710000000  0.4359550000000  0.4537680000000 1.0
C      1  0.5316250000000  0.4895440000000  0.4977390000000 1.0
C      1  0.6095480000000  0.4455100000000  0.5603060000000 1.0
C      1  0.4514370000000  0.4943990000000  0.5477350000000 1.0
C      1  0.4356410000000  0.4351120000000  0.4885900000000 1.0
C      1  0.5377890000000  0.4570970000000  0.5800420000000 1.0
C      1  0.4735360000000  0.4971920000000  0.5679790000000 1.0
C      1  0.4393360000000  0.4884390000000  0.4444580000000 1.0
C      1  0.4959060000000  0.5501080000000  0.5248430000000 1.0
C      1  0.4863900000000  0.5738470000000  0.4430020000000 1.0
C      1  0.5838900000000  0.4500670000000  0.5601620000000 1.0
C      1  0.5626170000000  0.5393750000000  0.5324760000000 1.0
C      1  0.5124530000000  0.4907050000000  0.4762100000000 1.0
C      1  0.4392800000000  0.5113180000000  0.5065590000000 1.0
C      1  0.6157560000000  0.4460070000000  0.4709960000000 1.0
C      1  0.4884420000000  0.4197300000000  0.4376330000000 1.0
C      1  0.5136230000000  0.5164590000000  0.4632340000000 1.0
C      1  0.5192760000000  0.5082720000000  0.5157430000000 1.0
C      1  0.5140680000000  0.5136550000000  0.4345730000000 1.0
C      1  0.5110530000000  0.4626650000000  0.5709410000000 1.0
C      1  0.4776160000000  0.4639030000000  0.4544510000000 1.0
C      1  0.5373450000000  0.5368210000000  0.5475410000000 1.0
C      1  0.4689840000000  0.5555880000000  0.4528190000000 1.0
C      1  0.4322520000000  0.4627490000000  0.4962120000000 1.0
C      1  0.5415480000000  0.4598060000000  0.5339100000000 1.0
C      1  0.4488640000000  0.5636870000000  0.4952470000000 1.0
C      1  0.5486910000000  0.4696550000000  0.5082580000000 1.0
C      1  0.5568290000000  0.4551920000000  0.5581800000000 1.0
C      1  0.4881180000000  0.4760370000000  0.5800320000000 1.0
C      1  0.4777700000000  0.5236940000000  0.4909340000000 1.0
C      1  0.4220330000000  0.5021090000000  0.4281010000000 1.0
C      1  0.5081320000000  0.5808630000000  0.4576160000000 1.0
C      1  0.5611720000000  0.5268620000000  0.4497680000000 1.0
C      1  0.4332500000000  0.5810800000000  0.5067960000000 1.0
C      1  0.5934680000000  0.4531480000000  0.4824780000000 1.0
C      1  0.5553180000000  0.5363220000000  0.4773430000000 1.0
C      1  0.4884900000000  0.5229940000000  0.5644920000000 1.0
C      1  0.4694510000000  0.4555590000000  0.5248300000000 1.0
C      1  0.4856320000000  0.4791410000000  0.4766840000000 1.0
C      1  0.5663490000000  0.5383940000000  0.5044830000000 1.0
C      1  0.4299900000000  0.4780980000000  0.4705290000000 1.0
C      1  0.4447060000000  0.4687020000000  0.5230160000000 1.0
C      1  0.4890860000000  0.5011910000000  0.4252810000000 1.0
END
