TITL C-3866669-3764-610 -1.06044646194573e-06 125000 -1025.49344667524 0 0 165 (C1) n - 1
REM
REM in /home/nfs/bkarasulu/CARBON/AIRSS/Generating-Clusters/LCBOP/Only-C1/SD-CG/FIRE-CG
REM
REM
REM
REM
REM
REM ./C.cell (11c1c37f851c82e70ff6c80c92926a4b)
REM AIRSS Version 0.9.1 bugfix July 2018 build 013d7b7c2542+ Fri, 06 Jul 2018 19:26:36 +0100
REM compiler GCC version 9.2.1 20190827 (Red Hat 9.2.1-1)
REM options -cpp -mtune=generic -march=x86-64 -g -O0 -fpre-include=/usr/include/finclude/math-vector-fortran.h
REM seed 2096202346 369289811 130074349 -1417012967 -1618694106 -1728281202 -702824140 799573205 1783696378 -204304597 -2074737512 -663302600 -1119499358 -292518109 -2085226241 -1334987594 580587022 -1789268280 640891847 1999797401 568507691 976121841 -923791185 -1908759244 11872239 1221145479 1759589253 -1956854221 -2019356490 26819983 1468074909 939851571 1471451948
REM
CELL 1.54180   50.00000   50.00000   50.00000   90.00000   90.00000   90.00000
LATT -1
SFAC C  
C      1  0.4487950000000  0.5106590000000  0.5901310000000 1.0
C      1  0.5659680000000  0.4741960000000  0.4233230000000 1.0
C      1  0.4471650000000  0.5147750000000  0.4770370000000 1.0
C      1  0.5201640000000  0.5309210000000  0.5404610000000 1.0
C      1  0.5667660000000  0.5170960000000  0.5920710000000 1.0
C      1  0.5377170000000  0.3785290000000  0.4684550000000 1.0
C      1  0.4547900000000  0.6184440000000  0.5437700000000 1.0
C      1  0.5173160000000  0.6114040000000  0.5154910000000 1.0
C      1  0.5616980000000  0.5108770000000  0.5268200000000 1.0
C      1  0.4492180000000  0.5641720000000  0.6386530000000 1.0
C      1  0.4424880000000  0.6685480000000  0.4677530000000 1.0
C      1  0.6189150000000  0.4895110000000  0.5612640000000 1.0
C      1  0.6312380000000  0.4769430000000  0.4872240000000 1.0
C      1  0.4951500000000  0.5207920000000  0.6033770000000 1.0
C      1  0.5726400000000  0.4560020000000  0.4439430000000 1.0
C      1  0.5086110000000  0.5666020000000  0.4117460000000 1.0
C      1  0.5956550000000  0.5045140000000  0.4701540000000 1.0
C      1  0.5479140000000  0.5832360000000  0.4313900000000 1.0
C      1  0.4448990000000  0.6426930000000  0.4699440000000 1.0
C      1  0.5338990000000  0.5450230000000  0.4983490000000 1.0
C      1  0.5683520000000  0.5804760000000  0.4504070000000 1.0
C      1  0.5250050000000  0.5976400000000  0.4416670000000 1.0
C      1  0.4519670000000  0.5978760000000  0.4503600000000 1.0
C      1  0.4453730000000  0.3723950000000  0.4953200000000 1.0
C      1  0.4924880000000  0.5844050000000  0.4706790000000 1.0
C      1  0.4227680000000  0.4940500000000  0.5514030000000 1.0
C      1  0.4740080000000  0.5677630000000  0.5651060000000 1.0
C      1  0.4374130000000  0.4579840000000  0.5220890000000 1.0
C      1  0.4079710000000  0.4582540000000  0.4590850000000 1.0
C      1  0.4708320000000  0.3756290000000  0.5044820000000 1.0
C      1  0.5337570000000  0.5075570000000  0.4349090000000 1.0
C      1  0.5592120000000  0.5878360000000  0.4995270000000 1.0
C      1  0.5682410000000  0.5021860000000  0.4772180000000 1.0
C      1  0.4963670000000  0.5411110000000  0.4153370000000 1.0
C      1  0.4485900000000  0.3991130000000  0.5647950000000 1.0
C      1  0.5362050000000  0.5359150000000  0.6253390000000 1.0
C      1  0.4720080000000  0.5346660000000  0.4022850000000 1.0
C      1  0.4999920000000  0.5897530000000  0.4267900000000 1.0
C      1  0.4922750000000  0.4974380000000  0.3803900000000 1.0
C      1  0.4932620000000  0.5964810000000  0.5208740000000 1.0
C      1  0.4266690000000  0.5842230000000  0.5029140000000 1.0
C      1  0.5464090000000  0.5600310000000  0.5732870000000 1.0
C      1  0.5459530000000  0.5211070000000  0.5473390000000 1.0
C      1  0.4786100000000  0.5902300000000  0.4460150000000 1.0
C      1  0.4168840000000  0.4669560000000  0.4335980000000 1.0
C      1  0.6054270000000  0.4878010000000  0.5858500000000 1.0
C      1  0.3993950000000  0.5003220000000  0.4882770000000 1.0
C      1  0.4032710000000  0.4970340000000  0.5956200000000 1.0
C      1  0.5013610000000  0.4714050000000  0.3859700000000 1.0
C      1  0.4213260000000  0.4891430000000  0.4165330000000 1.0
C      1  0.4918250000000  0.4192320000000  0.5499460000000 1.0
C      1  0.4554180000000  0.4280780000000  0.4728480000000 1.0
C      1  0.5598970000000  0.5251020000000  0.6182590000000 1.0
C      1  0.4919690000000  0.4229540000000  0.3880970000000 1.0
C      1  0.3968430000000  0.5457490000000  0.5087530000000 1.0
C      1  0.4820480000000  0.4017260000000  0.5034380000000 1.0
C      1  0.4077120000000  0.4249820000000  0.5616600000000 1.0
C      1  0.5490480000000  0.5509120000000  0.3885330000000 1.0
C      1  0.5638210000000  0.5833340000000  0.5275910000000 1.0
C      1  0.5152280000000  0.5410780000000  0.6070980000000 1.0
C      1  0.5630630000000  0.4671530000000  0.5099090000000 1.0
C      1  0.5597390000000  0.4691240000000  0.5828960000000 1.0
C      1  0.5138550000000  0.3959800000000  0.4261430000000 1.0
C      1  0.5934310000000  0.4549440000000  0.4633430000000 1.0
C      1  0.4580210000000  0.4560020000000  0.4789350000000 1.0
C      1  0.5871520000000  0.4395630000000  0.5593140000000 1.0
C      1  0.4085940000000  0.6025720000000  0.5560230000000 1.0
C      1  0.5379600000000  0.5667430000000  0.4092860000000 1.0
C      1  0.5746990000000  0.4095530000000  0.4935230000000 1.0
C      1  0.5401250000000  0.4295740000000  0.5541890000000 1.0
C      1  0.5606870000000  0.4450610000000  0.5683500000000 1.0
C      1  0.4748150000000  0.4057490000000  0.5684200000000 1.0
C      1  0.4453600000000  0.4938670000000  0.4021520000000 1.0
C      1  0.5884170000000  0.4358790000000  0.4850800000000 1.0
C      1  0.5179140000000  0.4636120000000  0.6414030000000 1.0
C      1  0.4427090000000  0.5352360000000  0.5376440000000 1.0
C      1  0.4130010000000  0.4755480000000  0.4820230000000 1.0
C      1  0.5770870000000  0.4911960000000  0.5872220000000 1.0
C      1  0.5189430000000  0.4681170000000  0.4082800000000 1.0
C      1  0.5912240000000  0.4337210000000  0.5325810000000 1.0
C      1  0.4787700000000  0.4130200000000  0.4776570000000 1.0
C      1  0.5387000000000  0.4549440000000  0.5088650000000 1.0
C      1  0.4476870000000  0.6026880000000  0.4987460000000 1.0
C      1  0.4978500000000  0.5731710000000  0.5758050000000 1.0
C      1  0.3999880000000  0.4507670000000  0.5538190000000 1.0
C      1  0.5482010000000  0.5126860000000  0.4606180000000 1.0
C      1  0.5361410000000  0.3912790000000  0.4432960000000 1.0
C      1  0.3739910000000  0.4589660000000  0.5555700000000 1.0
C      1  0.4851760000000  0.4898320000000  0.4997730000000 1.0
C      1  0.5752430000000  0.5757420000000  0.4777900000000 1.0
C      1  0.4537420000000  0.5536560000000  0.3950670000000 1.0
C      1  0.4671280000000  0.5256440000000  0.6053640000000 1.0
C      1  0.6048120000000  0.5312010000000  0.4735330000000 1.0
C      1  0.6377820000000  0.4807420000000  0.5128760000000 1.0
C      1  0.4317490000000  0.6160950000000  0.5573650000000 1.0
C      1  0.4242380000000  0.4048660000000  0.5510550000000 1.0
C      1  0.4785300000000  0.4202520000000  0.5248830000000 1.0
C      1  0.3969390000000  0.5845570000000  0.5397970000000 1.0
C      1  0.5033270000000  0.4937010000000  0.5989890000000 1.0
C      1  0.4688400000000  0.5075590000000  0.3938100000000 1.0
C      1  0.4201400000000  0.4673780000000  0.5424630000000 1.0
C      1  0.5238490000000  0.3653640000000  0.5215040000000 1.0
C      1  0.4576300000000  0.5449290000000  0.6232250000000 1.0
C      1  0.5243170000000  0.4460610000000  0.4502280000000 1.0
C      1  0.5320190000000  0.5329360000000  0.3745710000000 1.0
C      1  0.4955790000000  0.5684080000000  0.5146470000000 1.0
C      1  0.4187810000000  0.3985240000000  0.5238490000000 1.0
C      1  0.5336400000000  0.6009140000000  0.4938160000000 1.0
C      1  0.3835980000000  0.5105410000000  0.4668390000000 1.0
C      1  0.6091840000000  0.4789420000000  0.4697470000000 1.0
C      1  0.5117380000000  0.5157940000000  0.3705840000000 1.0
C      1  0.4240580000000  0.5147640000000  0.5321190000000 1.0
C      1  0.4270010000000  0.5537600000000  0.4485240000000 1.0
C      1  0.5192410000000  0.5963890000000  0.4699180000000 1.0
C      1  0.5126230000000  0.4389360000000  0.5524520000000 1.0
C      1  0.4953380000000  0.4815910000000  0.5256300000000 1.0
C      1  0.5322000000000  0.5321770000000  0.4739600000000 1.0
C      1  0.5067780000000  0.5323130000000  0.4614790000000 1.0
C      1  0.4561260000000  0.5536750000000  0.5513140000000 1.0
C      1  0.4009140000000  0.5086880000000  0.4193550000000 1.0
C      1  0.4665090000000  0.6076640000000  0.5204160000000 1.0
C      1  0.5240220000000  0.6340110000000  0.5292540000000 1.0
C      1  0.4292920000000  0.4154980000000  0.4770800000000 1.0
C      1  0.5516560000000  0.4376230000000  0.4490070000000 1.0
C      1  0.5399920000000  0.4853050000000  0.4184590000000 1.0
C      1  0.5133810000000  0.4448190000000  0.4241480000000 1.0
C      1  0.5864810000000  0.4511410000000  0.5103950000000 1.0
C      1  0.5035650000000  0.4824300000000  0.5733690000000 1.0
C      1  0.4863340000000  0.5369610000000  0.4795120000000 1.0
C      1  0.5047140000000  0.4196310000000  0.4131420000000 1.0
C      1  0.4320530000000  0.5794500000000  0.4433330000000 1.0
C      1  0.5254770000000  0.3540460000000  0.4756480000000 1.0
C      1  0.4337740000000  0.5309810000000  0.4605040000000 1.0
C      1  0.4854250000000  0.5636140000000  0.4884730000000 1.0
C      1  0.4080600000000  0.4303250000000  0.4653470000000 1.0
C      1  0.5949550000000  0.5553450000000  0.4809780000000 1.0
C      1  0.5755640000000  0.5526810000000  0.3821370000000 1.0
C      1  0.5498460000000  0.4077120000000  0.5363580000000 1.0
C      1  0.4839340000000  0.4679650000000  0.4809280000000 1.0
C      1  0.5044040000000  0.4673770000000  0.5494340000000 1.0
C      1  0.5641580000000  0.4945130000000  0.5044720000000 1.0
C      1  0.6194870000000  0.4827510000000  0.6088190000000 1.0
C      1  0.5563480000000  0.5328440000000  0.5708470000000 1.0
C      1  0.4055780000000  0.5185950000000  0.5103020000000 1.0
C      1  0.4050220000000  0.5717490000000  0.5159630000000 1.0
C      1  0.5559620000000  0.4111370000000  0.4407010000000 1.0
C      1  0.5563740000000  0.5777130000000  0.5530870000000 1.0
C      1  0.5501280000000  0.3932050000000  0.4903680000000 1.0
C      1  0.6320330000000  0.4859770000000  0.5383730000000 1.0
C      1  0.4271370000000  0.3943210000000  0.4970430000000 1.0
C      1  0.4726270000000  0.5140720000000  0.4892640000000 1.0
C      1  0.5074530000000  0.4574700000000  0.4694850000000 1.0
C      1  0.5373980000000  0.3898060000000  0.5174340000000 1.0
C      1  0.4567960000000  0.4382210000000  0.5260420000000 1.0
C      1  0.4250230000000  0.5002740000000  0.5792350000000 1.0
C      1  0.5164060000000  0.5498520000000  0.5203150000000 1.0
C      1  0.5206340000000  0.5611280000000  0.5868600000000 1.0
C      1  0.5766970000000  0.4105980000000  0.5240710000000 1.0
C      1  0.5092010000000  0.5240670000000  0.4342070000000 1.0
C      1  0.3848840000000  0.5146500000000  0.4402630000000 1.0
C      1  0.4364810000000  0.4668920000000  0.4952960000000 1.0
C      1  0.4480720000000  0.6152210000000  0.4729720000000 1.0
C      1  0.5191340000000  0.3477850000000  0.5013130000000 1.0
C      1  0.5101690000000  0.4779040000000  0.6210360000000 1.0
C      1  0.4907720000000  0.4471600000000  0.3756480000000 1.0
END
