TITL C-3866673-4222-162 -9.37724321813146e-07 125000 -943.279765648504 0 0 155 (C1) n - 1
REM
REM in /home/nfs/bkarasulu/CARBON/AIRSS/Generating-Clusters/LCBOP/Only-C1/SD-CG/HFTN-CG/FIRE-CG
REM
REM
REM
REM
REM
REM ./C.cell (11c1c37f851c82e70ff6c80c92926a4b)
REM AIRSS Version 0.9.1 bugfix July 2018 build 013d7b7c2542+ Fri, 06 Jul 2018 19:26:36 +0100
REM compiler GCC version 9.2.1 20190827 (Red Hat 9.2.1-1)
REM options -cpp -mtune=generic -march=x86-64 -g -O0 -fpre-include=/usr/include/finclude/math-vector-fortran.h
REM seed -1021259865 -597310656 -845985491 -2119735135 -2131081332 1241889437 -2130637930 1778814759 -1914506433 790806544 112833427 589843237 -336590583 62329404 -63546637 902584565 -288089528 42864606 -51333904 -708442871 455785147 1832960982 -467286559 -1817257133 -1060514826 -1601237915 815055592 -1579944865 -1349895313 -1757714005 761780414 1888052918 1271407656
REM
CELL 1.54180   50.00000   50.00000   50.00000   90.00000   90.00000   90.00000
LATT -1
SFAC C  
C      1  0.4627020000000  0.5059610000000  0.5452920000000 1.0
C      1  0.5166880000000  0.5283780000000  0.5292270000000 1.0
C      1  0.4386400000000  0.5230150000000  0.5867780000000 1.0
C      1  0.4361650000000  0.4504940000000  0.5741750000000 1.0
C      1  0.3916810000000  0.4828690000000  0.5181990000000 1.0
C      1  0.5104820000000  0.6029260000000  0.5352150000000 1.0
C      1  0.4782780000000  0.4931630000000  0.4070560000000 1.0
C      1  0.5732080000000  0.4225310000000  0.5333910000000 1.0
C      1  0.4124670000000  0.4342780000000  0.4916020000000 1.0
C      1  0.4821220000000  0.5137430000000  0.5027960000000 1.0
C      1  0.4729310000000  0.4742900000000  0.5947230000000 1.0
C      1  0.4137830000000  0.4480170000000  0.4668220000000 1.0
C      1  0.4851980000000  0.4653780000000  0.4932840000000 1.0
C      1  0.4870670000000  0.5894430000000  0.4625090000000 1.0
C      1  0.5314990000000  0.5169730000000  0.4848050000000 1.0
C      1  0.4600430000000  0.3812970000000  0.4794320000000 1.0
C      1  0.5174650000000  0.4377810000000  0.5850550000000 1.0
C      1  0.5154410000000  0.4332540000000  0.4069990000000 1.0
C      1  0.4615400000000  0.5368780000000  0.5956960000000 1.0
C      1  0.5276390000000  0.4438260000000  0.4310510000000 1.0
C      1  0.5933150000000  0.5571620000000  0.4919570000000 1.0
C      1  0.3844590000000  0.5333810000000  0.5372300000000 1.0
C      1  0.3964060000000  0.5433760000000  0.4598060000000 1.0
C      1  0.4730910000000  0.5314440000000  0.6198840000000 1.0
C      1  0.5538610000000  0.5013740000000  0.5236070000000 1.0
C      1  0.5023600000000  0.4516710000000  0.3913150000000 1.0
C      1  0.5596780000000  0.5875670000000  0.5181220000000 1.0
C      1  0.5274100000000  0.4094790000000  0.4807860000000 1.0
C      1  0.6185410000000  0.4865170000000  0.5450540000000 1.0
C      1  0.4214340000000  0.5689930000000  0.4891540000000 1.0
C      1  0.4466210000000  0.4976670000000  0.4776860000000 1.0
C      1  0.4702490000000  0.5473170000000  0.4555670000000 1.0
C      1  0.3840550000000  0.5445680000000  0.5122540000000 1.0
C      1  0.5094190000000  0.4618760000000  0.4775940000000 1.0
C      1  0.4627390000000  0.5837970000000  0.5864080000000 1.0
C      1  0.5033870000000  0.4168500000000  0.5952770000000 1.0
C      1  0.4869290000000  0.4956110000000  0.5529400000000 1.0
C      1  0.4911440000000  0.5997360000000  0.4898210000000 1.0
C      1  0.4597950000000  0.6490970000000  0.5662510000000 1.0
C      1  0.5098470000000  0.5797280000000  0.4430390000000 1.0
C      1  0.5620790000000  0.4427910000000  0.5739590000000 1.0
C      1  0.5789520000000  0.5348810000000  0.4046890000000 1.0
C      1  0.4821970000000  0.4490900000000  0.5171080000000 1.0
C      1  0.4900860000000  0.5558730000000  0.5581360000000 1.0
C      1  0.4421290000000  0.4173550000000  0.5323250000000 1.0
C      1  0.4973790000000  0.5389190000000  0.5103870000000 1.0
C      1  0.5273650000000  0.5859640000000  0.5522600000000 1.0
C      1  0.4566360000000  0.5257370000000  0.3783470000000 1.0
C      1  0.5870420000000  0.4125780000000  0.4564920000000 1.0
C      1  0.5147710000000  0.4735740000000  0.6256210000000 1.0
C      1  0.5938070000000  0.5042990000000  0.5821810000000 1.0
C      1  0.5289190000000  0.4622960000000  0.5428030000000 1.0
C      1  0.4714970000000  0.5585800000000  0.5797720000000 1.0
C      1  0.5388240000000  0.4637770000000  0.6173030000000 1.0
C      1  0.4132600000000  0.5625820000000  0.4452290000000 1.0
C      1  0.5159440000000  0.6010780000000  0.5059000000000 1.0
C      1  0.4264230000000  0.5311480000000  0.5614940000000 1.0
C      1  0.6129790000000  0.5125480000000  0.5050830000000 1.0
C      1  0.4814060000000  0.4083350000000  0.4460920000000 1.0
C      1  0.4440550000000  0.4728610000000  0.5903320000000 1.0
C      1  0.5430980000000  0.4466980000000  0.5951370000000 1.0
C      1  0.3923160000000  0.4685390000000  0.4286450000000 1.0
C      1  0.5961100000000  0.4342080000000  0.4693550000000 1.0
C      1  0.4104630000000  0.4902920000000  0.3879810000000 1.0
C      1  0.5671430000000  0.5496590000000  0.5773240000000 1.0
C      1  0.5742440000000  0.5061120000000  0.4571870000000 1.0
C      1  0.5422850000000  0.5100350000000  0.5714760000000 1.0
C      1  0.4608060000000  0.4580560000000  0.5337450000000 1.0
C      1  0.6057840000000  0.4652520000000  0.3953740000000 1.0
C      1  0.3987860000000  0.5158410000000  0.4534880000000 1.0
C      1  0.5442630000000  0.4656290000000  0.4242470000000 1.0
C      1  0.4923590000000  0.4221830000000  0.5272290000000 1.0
C      1  0.4602030000000  0.4531330000000  0.4410640000000 1.0
C      1  0.3918190000000  0.4929350000000  0.4704590000000 1.0
C      1  0.5089580000000  0.4474360000000  0.4527920000000 1.0
C      1  0.5369660000000  0.5722660000000  0.4537990000000 1.0
C      1  0.5933780000000  0.5330410000000  0.5080720000000 1.0
C      1  0.4887650000000  0.4739750000000  0.5706590000000 1.0
C      1  0.5831880000000  0.4588620000000  0.5604990000000 1.0
C      1  0.5398690000000  0.3967400000000  0.4604670000000 1.0
C      1  0.5697850000000  0.5561970000000  0.4186250000000 1.0
C      1  0.5719900000000  0.4699180000000  0.4302840000000 1.0
C      1  0.4221430000000  0.4197720000000  0.5120990000000 1.0
C      1  0.4668400000000  0.4837140000000  0.4342990000000 1.0
C      1  0.5855130000000  0.5088250000000  0.4023670000000 1.0
C      1  0.5330930000000  0.5114260000000  0.4242190000000 1.0
C      1  0.4826370000000  0.6114930000000  0.5355690000000 1.0
C      1  0.4667580000000  0.3847620000000  0.5052000000000 1.0
C      1  0.5924680000000  0.5271090000000  0.4578510000000 1.0
C      1  0.4611730000000  0.5743230000000  0.4584340000000 1.0
C      1  0.4439390000000  0.4983280000000  0.4484700000000 1.0
C      1  0.4836200000000  0.4364920000000  0.4459920000000 1.0
C      1  0.4817740000000  0.5561990000000  0.5296320000000 1.0
C      1  0.4905740000000  0.5428200000000  0.4076020000000 1.0
C      1  0.5651450000000  0.3979920000000  0.4513350000000 1.0
C      1  0.4092400000000  0.4889290000000  0.3619780000000 1.0
C      1  0.4706930000000  0.6302040000000  0.5519860000000 1.0
C      1  0.4080650000000  0.4883620000000  0.4154610000000 1.0
C      1  0.5640540000000  0.4120540000000  0.5096190000000 1.0
C      1  0.4024140000000  0.4955760000000  0.4966710000000 1.0
C      1  0.4708540000000  0.5984610000000  0.5118220000000 1.0
C      1  0.5344310000000  0.4501300000000  0.5150080000000 1.0
C      1  0.4267630000000  0.4960580000000  0.5910360000000 1.0
C      1  0.4349370000000  0.4394350000000  0.4490900000000 1.0
C      1  0.3947100000000  0.4671010000000  0.4572100000000 1.0
C      1  0.5398950000000  0.5396640000000  0.5731560000000 1.0
C      1  0.4356890000000  0.5304080000000  0.5134680000000 1.0
C      1  0.4941950000000  0.5384760000000  0.4634760000000 1.0
C      1  0.5881390000000  0.4811840000000  0.4089600000000 1.0
C      1  0.5369470000000  0.4921600000000  0.5472950000000 1.0
C      1  0.5641230000000  0.5646900000000  0.4454000000000 1.0
C      1  0.5870350000000  0.4480940000000  0.5323020000000 1.0
C      1  0.5147860000000  0.5417040000000  0.4848850000000 1.0
C      1  0.5394750000000  0.4236760000000  0.5018640000000 1.0
C      1  0.6070820000000  0.5795600000000  0.4994990000000 1.0
C      1  0.4680250000000  0.4047800000000  0.5251480000000 1.0
C      1  0.4440910000000  0.4408690000000  0.5490310000000 1.0
C      1  0.5838660000000  0.5536490000000  0.4648870000000 1.0
C      1  0.4887190000000  0.4755360000000  0.6182820000000 1.0
C      1  0.3959840000000  0.5536250000000  0.4877900000000 1.0
C      1  0.5278870000000  0.4868050000000  0.4120890000000 1.0
C      1  0.5725160000000  0.5742460000000  0.5646960000000 1.0
C      1  0.5012050000000  0.5646880000000  0.4196550000000 1.0
C      1  0.4356380000000  0.4105880000000  0.4471110000000 1.0
C      1  0.4276260000000  0.5089790000000  0.4961430000000 1.0
C      1  0.4327390000000  0.5756310000000  0.4626320000000 1.0
C      1  0.5799270000000  0.4779920000000  0.4578950000000 1.0
C      1  0.5027590000000  0.4791570000000  0.3993630000000 1.0
C      1  0.5962390000000  0.4644670000000  0.5084890000000 1.0
C      1  0.5384790000000  0.5854370000000  0.4996790000000 1.0
C      1  0.4615610000000  0.5721640000000  0.5176330000000 1.0
C      1  0.4710940000000  0.4907430000000  0.4908680000000 1.0
C      1  0.3996910000000  0.4994350000000  0.5781470000000 1.0
C      1  0.4910450000000  0.4926700000000  0.4513220000000 1.0
C      1  0.5993230000000  0.4820610000000  0.5657600000000 1.0
C      1  0.5555340000000  0.5865730000000  0.5459910000000 1.0
C      1  0.6128460000000  0.4869110000000  0.5171120000000 1.0
C      1  0.5193980000000  0.4157320000000  0.5420800000000 1.0
C      1  0.5519460000000  0.4223380000000  0.5536760000000 1.0
C      1  0.3986790000000  0.5224160000000  0.5594600000000 1.0
C      1  0.5860720000000  0.5299670000000  0.5848060000000 1.0
C      1  0.4421340000000  0.5233960000000  0.5396430000000 1.0
C      1  0.5104660000000  0.5042530000000  0.5412330000000 1.0
C      1  0.5497280000000  0.5137770000000  0.4450660000000 1.0
C      1  0.4393000000000  0.5582810000000  0.5078080000000 1.0
C      1  0.4581310000000  0.3954580000000  0.4552910000000 1.0
C      1  0.5713060000000  0.5236830000000  0.5230570000000 1.0
C      1  0.5092710000000  0.4551500000000  0.5641720000000 1.0
C      1  0.5325970000000  0.5653000000000  0.4812990000000 1.0
C      1  0.5906140000000  0.4604250000000  0.4791820000000 1.0
C      1  0.4750520000000  0.5206430000000  0.3981150000000 1.0
C      1  0.4194560000000  0.5059430000000  0.4352080000000 1.0
C      1  0.5186010000000  0.5600190000000  0.5636690000000 1.0
C      1  0.5315860000000  0.4691530000000  0.4936070000000 1.0
C      1  0.5415620000000  0.4948990000000  0.4983700000000 1.0
END
