TITL C-3866674-3872-102 0.00013675700799826 125000 -888.849848978729 0 0 147 (C1) n - 1
REM
REM in /home/nfs/bkarasulu/CARBON/AIRSS/Generating-Clusters/LCBOP/Only-C1/SD-CG/HFTN-CG/FIRE-CG
REM
REM
REM
REM
REM
REM ./C.cell (11c1c37f851c82e70ff6c80c92926a4b)
REM AIRSS Version 0.9.1 bugfix July 2018 build 013d7b7c2542+ Fri, 06 Jul 2018 19:26:36 +0100
REM compiler GCC version 9.2.1 20190827 (Red Hat 9.2.1-1)
REM options -cpp -mtune=generic -march=x86-64 -g -O0 -fpre-include=/usr/include/finclude/math-vector-fortran.h
REM seed 897985163 -566413810 910613058 -33866179 -1567512406 -1323626623 1770488489 -521896391 -501950798 1792554282 -2145432150 -2104130530 1663665526 -1997874423 1189191653 -134552771 1603988007 -844998114 -208633102 -412642691 683963683 1910161145 -1738014284 501296352 1613777375 1544815649 -1029796046 -1670032250 -978631773 428456943 -713472238 -267650505 -1544715358
REM
CELL 1.54180   50.00000   50.00000   50.00000   90.00000   90.00000   90.00000
LATT -1
SFAC C  
C      1  0.4134160000000  0.4746330000000  0.5115900000000 1.0
C      1  0.4095390000000  0.5346450000000  0.5527010000000 1.0
C      1  0.5102710000000  0.4475640000000  0.5162060000000 1.0
C      1  0.5763700000000  0.5460360000000  0.5784540000000 1.0
C      1  0.4672010000000  0.4593520000000  0.5923890000000 1.0
C      1  0.4189840000000  0.5734610000000  0.4910960000000 1.0
C      1  0.4948230000000  0.4787230000000  0.4111280000000 1.0
C      1  0.5082100000000  0.5144310000000  0.5133540000000 1.0
C      1  0.5391460000000  0.5564450000000  0.5043770000000 1.0
C      1  0.5895810000000  0.5352260000000  0.5575050000000 1.0
C      1  0.4328170000000  0.4693810000000  0.4389870000000 1.0
C      1  0.4356620000000  0.4473230000000  0.5557550000000 1.0
C      1  0.5993570000000  0.4508220000000  0.4687000000000 1.0
C      1  0.4285370000000  0.5251750000000  0.5718960000000 1.0
C      1  0.4059100000000  0.4809250000000  0.5384470000000 1.0
C      1  0.5113100000000  0.5243020000000  0.4575420000000 1.0
C      1  0.4024460000000  0.5516940000000  0.5039000000000 1.0
C      1  0.4798920000000  0.5395260000000  0.4901130000000 1.0
C      1  0.4797650000000  0.3915180000000  0.4852210000000 1.0
C      1  0.4678370000000  0.4673430000000  0.5121690000000 1.0
C      1  0.5069940000000  0.5377670000000  0.5900240000000 1.0
C      1  0.5633330000000  0.4797500000000  0.5552000000000 1.0
C      1  0.4718100000000  0.4940270000000  0.4697910000000 1.0
C      1  0.3703280000000  0.4135340000000  0.4518840000000 1.0
C      1  0.5251830000000  0.4008330000000  0.4582780000000 1.0
C      1  0.5955820000000  0.4931450000000  0.4280110000000 1.0
C      1  0.5016340000000  0.5102770000000  0.4102260000000 1.0
C      1  0.6161110000000  0.5578420000000  0.4919420000000 1.0
C      1  0.5114720000000  0.4568690000000  0.5749010000000 1.0
C      1  0.5340520000000  0.4314110000000  0.4195890000000 1.0
C      1  0.4921070000000  0.5692480000000  0.5315510000000 1.0
C      1  0.4880600000000  0.5680910000000  0.4996050000000 1.0
C      1  0.4547450000000  0.5085570000000  0.4147800000000 1.0
C      1  0.4795190000000  0.4331500000000  0.5520450000000 1.0
C      1  0.3874020000000  0.4879240000000  0.4264730000000 1.0
C      1  0.4813020000000  0.5797640000000  0.4300990000000 1.0
C      1  0.4643820000000  0.5013480000000  0.5505980000000 1.0
C      1  0.6145090000000  0.5417830000000  0.4372660000000 1.0
C      1  0.5370140000000  0.5489140000000  0.4060810000000 1.0
C      1  0.4861250000000  0.4527630000000  0.5309250000000 1.0
C      1  0.4597950000000  0.4426480000000  0.5706720000000 1.0
C      1  0.5267210000000  0.3960430000000  0.4945200000000 1.0
C      1  0.5582150000000  0.5122080000000  0.4517820000000 1.0
C      1  0.5888990000000  0.5480160000000  0.4453760000000 1.0
C      1  0.4238620000000  0.4740850000000  0.5592840000000 1.0
C      1  0.4939630000000  0.6000520000000  0.4429360000000 1.0
C      1  0.5520510000000  0.4506980000000  0.5932600000000 1.0
C      1  0.4479390000000  0.4344100000000  0.4062290000000 1.0
C      1  0.5447310000000  0.4108290000000  0.4389790000000 1.0
C      1  0.5345740000000  0.5640530000000  0.4300690000000 1.0
C      1  0.5242360000000  0.5252180000000  0.4010630000000 1.0
C      1  0.4749780000000  0.4078390000000  0.5388820000000 1.0
C      1  0.5085160000000  0.4916270000000  0.4983140000000 1.0
C      1  0.5488440000000  0.4720260000000  0.4983170000000 1.0
C      1  0.4673280000000  0.3920550000000  0.3930700000000 1.0
C      1  0.3935930000000  0.4790810000000  0.4917950000000 1.0
C      1  0.4309500000000  0.5192440000000  0.4807910000000 1.0
C      1  0.5326640000000  0.5753190000000  0.5807730000000 1.0
C      1  0.5711740000000  0.4134730000000  0.4492120000000 1.0
C      1  0.4684210000000  0.5542960000000  0.4314380000000 1.0
C      1  0.4327870000000  0.5293600000000  0.4541280000000 1.0
C      1  0.4305380000000  0.5131490000000  0.4305740000000 1.0
C      1  0.5917920000000  0.5088310000000  0.5128330000000 1.0
C      1  0.5372850000000  0.6043020000000  0.5332760000000 1.0
C      1  0.4944520000000  0.5886280000000  0.5531480000000 1.0
C      1  0.5327860000000  0.5272610000000  0.5991180000000 1.0
C      1  0.4136840000000  0.4899040000000  0.4324730000000 1.0
C      1  0.5354450000000  0.4610460000000  0.5206960000000 1.0
C      1  0.4816180000000  0.5245910000000  0.5141810000000 1.0
C      1  0.5679760000000  0.4923690000000  0.4341680000000 1.0
C      1  0.4578940000000  0.5682590000000  0.5834470000000 1.0
C      1  0.5748900000000  0.4376210000000  0.4639460000000 1.0
C      1  0.4413230000000  0.4968080000000  0.5710060000000 1.0
C      1  0.5492410000000  0.4516300000000  0.4590790000000 1.0
C      1  0.4464400000000  0.5542580000000  0.4515540000000 1.0
C      1  0.4585920000000  0.5140700000000  0.5255070000000 1.0
C      1  0.5378020000000  0.4768680000000  0.5440550000000 1.0
C      1  0.5527760000000  0.4690510000000  0.4367170000000 1.0
C      1  0.4988960000000  0.4020900000000  0.4442540000000 1.0
C      1  0.5618610000000  0.5914490000000  0.5280340000000 1.0
C      1  0.4571630000000  0.4175320000000  0.5171530000000 1.0
C      1  0.4372760000000  0.5152560000000  0.5068890000000 1.0
C      1  0.4756960000000  0.4197570000000  0.4928190000000 1.0
C      1  0.5319680000000  0.4889470000000  0.4835830000000 1.0
C      1  0.5173220000000  0.5694500000000  0.4910240000000 1.0
C      1  0.5390070000000  0.4201740000000  0.5478330000000 1.0
C      1  0.5345830000000  0.4385170000000  0.5726500000000 1.0
C      1  0.4389060000000  0.4611930000000  0.5110620000000 1.0
C      1  0.5023930000000  0.4365630000000  0.4901200000000 1.0
C      1  0.5300630000000  0.4982990000000  0.6075330000000 1.0
C      1  0.4649080000000  0.4809720000000  0.4087260000000 1.0
C      1  0.4681440000000  0.4151890000000  0.4074770000000 1.0
C      1  0.4378190000000  0.4368150000000  0.5271800000000 1.0
C      1  0.5332430000000  0.5072750000000  0.4628900000000 1.0
C      1  0.4425010000000  0.5727320000000  0.4741790000000 1.0
C      1  0.6172440000000  0.4940800000000  0.4470920000000 1.0
C      1  0.4661540000000  0.5837490000000  0.4866710000000 1.0
C      1  0.4923950000000  0.3867940000000  0.5308000000000 1.0
C      1  0.5395950000000  0.5905270000000  0.4395770000000 1.0
C      1  0.6063980000000  0.4860450000000  0.5172400000000 1.0
C      1  0.5277540000000  0.5345560000000  0.5229810000000 1.0
C      1  0.5239090000000  0.5942850000000  0.5571240000000 1.0
C      1  0.5917290000000  0.5679980000000  0.4994520000000 1.0
C      1  0.4041570000000  0.5545560000000  0.5335550000000 1.0
C      1  0.5490090000000  0.4761130000000  0.6047220000000 1.0
C      1  0.5021870000000  0.4880700000000  0.6111060000000 1.0
C      1  0.4106100000000  0.5827310000000  0.5364920000000 1.0
C      1  0.5505370000000  0.5503490000000  0.5889030000000 1.0
C      1  0.4426270000000  0.5462520000000  0.5848630000000 1.0
C      1  0.4757220000000  0.5005760000000  0.6120550000000 1.0
C      1  0.6193270000000  0.5313480000000  0.4810370000000 1.0
C      1  0.6171190000000  0.4705620000000  0.4631580000000 1.0
C      1  0.5232170000000  0.6155910000000  0.4814800000000 1.0
C      1  0.4556450000000  0.4864960000000  0.5960510000000 1.0
C      1  0.5762000000000  0.5296570000000  0.4639560000000 1.0
C      1  0.3830570000000  0.4575890000000  0.4775200000000 1.0
C      1  0.4831940000000  0.5792450000000  0.5785240000000 1.0
C      1  0.5087290000000  0.5469190000000  0.5426780000000 1.0
C      1  0.5260370000000  0.6159180000000  0.5088970000000 1.0
C      1  0.5010710000000  0.5287980000000  0.5638860000000 1.0
C      1  0.4900520000000  0.4219200000000  0.4243620000000 1.0
C      1  0.3863490000000  0.5315060000000  0.4928900000000 1.0
C      1  0.5515950000000  0.5223780000000  0.5339170000000 1.0
C      1  0.4957110000000  0.4618450000000  0.5978470000000 1.0
C      1  0.5872880000000  0.4756210000000  0.5648550000000 1.0
C      1  0.5923530000000  0.5202710000000  0.4868360000000 1.0
C      1  0.3759830000000  0.4352850000000  0.4650910000000 1.0
C      1  0.5196620000000  0.6052640000000  0.4545760000000 1.0
C      1  0.4766490000000  0.5279540000000  0.4175820000000 1.0
C      1  0.5055700000000  0.5666700000000  0.5919850000000 1.0
C      1  0.5190000000000  0.5492920000000  0.4482520000000 1.0
C      1  0.4795830000000  0.3867760000000  0.4578910000000 1.0
C      1  0.3831390000000  0.5051800000000  0.4891290000000 1.0
C      1  0.4511490000000  0.4781340000000  0.4589110000000 1.0
C      1  0.5794090000000  0.5222500000000  0.5345810000000 1.0
C      1  0.6261530000000  0.5212000000000  0.4541690000000 1.0
C      1  0.5391050000000  0.4084510000000  0.5211990000000 1.0
C      1  0.4183030000000  0.5937910000000  0.5122680000000 1.0
C      1  0.5130780000000  0.4807390000000  0.5581800000000 1.0
C      1  0.5074220000000  0.4452450000000  0.4175140000000 1.0
C      1  0.4927000000000  0.5019210000000  0.5584060000000 1.0
C      1  0.4846240000000  0.5211100000000  0.4677130000000 1.0
C      1  0.4829270000000  0.4814090000000  0.4925490000000 1.0
C      1  0.5649770000000  0.5702240000000  0.5093830000000 1.0
C      1  0.5009190000000  0.3837780000000  0.5033560000000 1.0
C      1  0.4467120000000  0.4602120000000  0.4158760000000 1.0
C      1  0.5227000000000  0.4438070000000  0.4699870000000 1.0
END
