TITL C-3866676-3738-191 33.0959193689829 125000 -744.68878898981 0 0 123 (C1) n - 1
REM
REM in /home/nfs/bkarasulu/CARBON/AIRSS/Generating-Clusters/LCBOP/Only-C1/SD-CG/HFTN-CG/FIRE-CG
REM
REM
REM
REM
REM
REM ./C.cell (11c1c37f851c82e70ff6c80c92926a4b)
REM AIRSS Version 0.9.1 bugfix July 2018 build 013d7b7c2542+ Fri, 06 Jul 2018 19:26:36 +0100
REM compiler GCC version 9.2.1 20190827 (Red Hat 9.2.1-1)
REM options -cpp -mtune=generic -march=x86-64 -g -O0 -fpre-include=/usr/include/finclude/math-vector-fortran.h
REM seed -589524067 724951443 1801304033 -386696820 -304471974 -1297329105 -1817551225 -718244313 1280211438 1219110697 -203654549 1106606817 582682805 105526369 -988351928 1972379141 127776361 -1990317969 968438586 849683942 -432734480 -1070992004 -1105500114 -1527821400 1783823583 822396317 1869236784 -712973852 1834214997 -301639743 -2066168923 -1440533372 -1518215659
REM
CELL 1.54180   50.00000   50.00000   50.00000   90.00000   90.00000   90.00000
LATT -1
SFAC C  
C      1  0.5424080000000  0.4993410000000  0.5543590000000 1.0
C      1  0.4593650000000  0.4557180000000  0.4776810000000 1.0
C      1  0.5042530000000  0.4136100000000  0.3565530000000 1.0
C      1  0.5081350000000  0.5443230000000  0.5913730000000 1.0
C      1  0.5247170000000  0.5425220000000  0.3977640000000 1.0
C      1  0.5058210000000  0.5284150000000  0.5369160000000 1.0
C      1  0.5630400000000  0.4769000000000  0.4341970000000 1.0
C      1  0.5890510000000  0.5368390000000  0.4874360000000 1.0
C      1  0.5067560000000  0.4629330000000  0.5188110000000 1.0
C      1  0.5510410000000  0.5167510000000  0.4639390000000 1.0
C      1  0.4060360000000  0.5124260000000  0.4389160000000 1.0
C      1  0.4126860000000  0.5325490000000  0.4803850000000 1.0
C      1  0.4883870000000  0.5820800000000  0.5077770000000 1.0
C      1  0.5400050000000  0.5041550000000  0.5084960000000 1.0
C      1  0.4286970000000  0.5050500000000  0.5769880000000 1.0
C      1  0.5244440000000  0.4452710000000  0.3955010000000 1.0
C      1  0.4332240000000  0.4743930000000  0.5394210000000 1.0
C      1  0.5230330000000  0.5155540000000  0.3895830000000 1.0
C      1  0.4394590000000  0.5817780000000  0.5228010000000 1.0
C      1  0.4787540000000  0.4633430000000  0.5222590000000 1.0
C      1  0.4935340000000  0.5571100000000  0.4954840000000 1.0
C      1  0.3984090000000  0.4673280000000  0.5732300000000 1.0
C      1  0.5536190000000  0.5686910000000  0.5104700000000 1.0
C      1  0.4611010000000  0.4750310000000  0.5401140000000 1.0
C      1  0.4566470000000  0.5619080000000  0.4399590000000 1.0
C      1  0.5491950000000  0.4604360000000  0.5825720000000 1.0
C      1  0.5368690000000  0.5712390000000  0.4654670000000 1.0
C      1  0.4023180000000  0.5228140000000  0.5300870000000 1.0
C      1  0.5882790000000  0.4631200000000  0.4779000000000 1.0
C      1  0.5601230000000  0.4944190000000  0.5304650000000 1.0
C      1  0.4572540000000  0.5698700000000  0.5430660000000 1.0
C      1  0.4348940000000  0.5269620000000  0.4941350000000 1.0
C      1  0.5670440000000  0.4529920000000  0.6329130000000 1.0
C      1  0.5352210000000  0.4718150000000  0.4464360000000 1.0
C      1  0.5418900000000  0.5282060000000  0.4899100000000 1.0
C      1  0.4289960000000  0.5842760000000  0.4980300000000 1.0
C      1  0.4296580000000  0.5602330000000  0.4498110000000 1.0
C      1  0.5003110000000  0.4267450000000  0.5513690000000 1.0
C      1  0.5838040000000  0.4831630000000  0.4571430000000 1.0
C      1  0.4675090000000  0.5886290000000  0.4422420000000 1.0
C      1  0.4919090000000  0.5512710000000  0.4681430000000 1.0
C      1  0.5818700000000  0.5595730000000  0.5071250000000 1.0
C      1  0.5587420000000  0.5004540000000  0.4174420000000 1.0
C      1  0.5216360000000  0.5618020000000  0.5730700000000 1.0
C      1  0.4138040000000  0.5360610000000  0.4521830000000 1.0
C      1  0.4902990000000  0.4634560000000  0.5848420000000 1.0
C      1  0.5586730000000  0.4563590000000  0.6084650000000 1.0
C      1  0.3997340000000  0.4869970000000  0.4459400000000 1.0
C      1  0.5176830000000  0.4413130000000  0.5336730000000 1.0
C      1  0.4580720000000  0.4052210000000  0.4854240000000 1.0
C      1  0.5450300000000  0.5469810000000  0.5635920000000 1.0
C      1  0.4023220000000  0.4997810000000  0.5154400000000 1.0
C      1  0.4763240000000  0.6037470000000  0.4630120000000 1.0
C      1  0.4819130000000  0.4400650000000  0.5695150000000 1.0
C      1  0.4456820000000  0.4303430000000  0.4838860000000 1.0
C      1  0.5386480000000  0.4902220000000  0.4675490000000 1.0
C      1  0.4709850000000  0.3881600000000  0.5014050000000 1.0
C      1  0.5684680000000  0.4408450000000  0.4841030000000 1.0
C      1  0.4824060000000  0.5143260000000  0.4381440000000 1.0
C      1  0.5402530000000  0.5563460000000  0.4889950000000 1.0
C      1  0.4229890000000  0.4799880000000  0.5132680000000 1.0
C      1  0.4939690000000  0.5343560000000  0.5116240000000 1.0
C      1  0.4178420000000  0.5404190000000  0.5435130000000 1.0
C      1  0.5011680000000  0.4272950000000  0.4718880000000 1.0
C      1  0.5520250000000  0.4263360000000  0.4655900000000 1.0
C      1  0.5509850000000  0.5234180000000  0.4341100000000 1.0
C      1  0.4716710000000  0.4955720000000  0.5548280000000 1.0
C      1  0.5045920000000  0.4689710000000  0.4481390000000 1.0
C      1  0.5128560000000  0.5774250000000  0.5495820000000 1.0
C      1  0.4195280000000  0.4817480000000  0.5636190000000 1.0
C      1  0.5543820000000  0.4263110000000  0.4372210000000 1.0
C      1  0.5017470000000  0.4961690000000  0.3964770000000 1.0
C      1  0.5066520000000  0.4877850000000  0.5875730000000 1.0
C      1  0.3965190000000  0.4653270000000  0.4617010000000 1.0
C      1  0.5142030000000  0.5630720000000  0.3832950000000 1.0
C      1  0.4428150000000  0.5474600000000  0.5573190000000 1.0
C      1  0.5734910000000  0.5488130000000  0.5639880000000 1.0
C      1  0.4199990000000  0.4326830000000  0.4965480000000 1.0
C      1  0.4663000000000  0.5237070000000  0.6002290000000 1.0
C      1  0.5360000000000  0.5807140000000  0.5302860000000 1.0
C      1  0.5173500000000  0.4855020000000  0.5037160000000 1.0
C      1  0.5886230000000  0.5706500000000  0.5538640000000 1.0
C      1  0.5870240000000  0.5088220000000  0.5362260000000 1.0
C      1  0.5549730000000  0.4417510000000  0.5618470000000 1.0
C      1  0.4867530000000  0.4505790000000  0.4638030000000 1.0
C      1  0.5459720000000  0.4990030000000  0.3927480000000 1.0
C      1  0.5335380000000  0.4838780000000  0.5762940000000 1.0
C      1  0.4008470000000  0.4465140000000  0.4806630000000 1.0
C      1  0.4846730000000  0.3857870000000  0.5242070000000 1.0
C      1  0.5141070000000  0.4287890000000  0.3753070000000 1.0
C      1  0.5978450000000  0.5702320000000  0.5281370000000 1.0
C      1  0.4790810000000  0.5051720000000  0.4109980000000 1.0
C      1  0.4954640000000  0.3999140000000  0.5441750000000 1.0
C      1  0.4945020000000  0.5190890000000  0.5953060000000 1.0
C      1  0.4541510000000  0.5071070000000  0.4935020000000 1.0
C      1  0.5815580000000  0.5127300000000  0.4689500000000 1.0
C      1  0.4543040000000  0.5049990000000  0.3993820000000 1.0
C      1  0.5720280000000  0.4690600000000  0.5195980000000 1.0
C      1  0.5318630000000  0.5255380000000  0.5491990000000 1.0
C      1  0.5383730000000  0.5462460000000  0.4225490000000 1.0
C      1  0.5962870000000  0.4748300000000  0.5036430000000 1.0
C      1  0.6066200000000  0.4974580000000  0.5179610000000 1.0
C      1  0.4944820000000  0.4954010000000  0.4564320000000 1.0
C      1  0.4446700000000  0.4796580000000  0.4917630000000 1.0
C      1  0.4467650000000  0.5275580000000  0.5791820000000 1.0
C      1  0.4858840000000  0.5173920000000  0.5526770000000 1.0
C      1  0.5424700000000  0.4334010000000  0.4140640000000 1.0
C      1  0.4349680000000  0.4249780000000  0.5475490000000 1.0
C      1  0.4207060000000  0.4260210000000  0.5244110000000 1.0
C      1  0.4805550000000  0.5131030000000  0.4985580000000 1.0
C      1  0.5365900000000  0.5688370000000  0.4388650000000 1.0
C      1  0.4546490000000  0.4316600000000  0.5651210000000 1.0
C      1  0.5163160000000  0.4720590000000  0.3960440000000 1.0
C      1  0.5263240000000  0.4184660000000  0.4745710000000 1.0
C      1  0.5608130000000  0.4437320000000  0.5128690000000 1.0
C      1  0.4983630000000  0.4968030000000  0.4850710000000 1.0
C      1  0.4763100000000  0.5414650000000  0.4465640000000 1.0
C      1  0.5452150000000  0.4365850000000  0.5355030000000 1.0
C      1  0.4248010000000  0.5787360000000  0.4718720000000 1.0
C      1  0.4577380000000  0.5246810000000  0.6263550000000 1.0
C      1  0.4830780000000  0.6028100000000  0.4892600000000 1.0
C      1  0.4857920000000  0.5787220000000  0.5371200000000 1.0
C      1  0.5874010000000  0.5244510000000  0.5593730000000 1.0
END
