TITL C-3866672-3872-111 -35.8211191493049 125000 -1157.86929912035 0 0 188 (C1) n - 1
REM
REM in /home/nfs/bkarasulu/CARBON/AIRSS/Generating-Clusters/LCBOP/Only-C1/SD-CG/HFTN-CG/FIRE-CG
REM
REM
REM
REM
REM
REM ./C.cell (11c1c37f851c82e70ff6c80c92926a4b)
REM AIRSS Version 0.9.1 bugfix July 2018 build 013d7b7c2542+ Fri, 06 Jul 2018 19:26:36 +0100
REM compiler GCC version 9.2.1 20190827 (Red Hat 9.2.1-1)
REM options -cpp -mtune=generic -march=x86-64 -g -O0 -fpre-include=/usr/include/finclude/math-vector-fortran.h
REM seed -1862584673 241268364 1394403473 -1467935427 733745154 -597045975 -507046835 635322618 1552703478 -1097225775 -2039665662 1561129464 -1030475164 -2089702762 -465239242 -1363463523 -522460974 1503100880 716825215 -288250974 -894366557 1973611314 -1916019081 -664604217 -73258130 -1289597045 1798126504 725476633 -1688380688 -646588597 1561392138 51800202 1634015955
REM
CELL 1.54180   50.00000   50.00000   50.00000   90.00000   90.00000   90.00000
LATT -1
SFAC C  
C      1  0.4390600000000  0.4063210000000  0.4971920000000 1.0
C      1  0.4033560000000  0.4959390000000  0.5768020000000 1.0
C      1  0.4468800000000  0.5652230000000  0.5414940000000 1.0
C      1  0.5734680000000  0.4918180000000  0.3562540000000 1.0
C      1  0.4561220000000  0.5443310000000  0.4531960000000 1.0
C      1  0.4792830000000  0.4931870000000  0.4671640000000 1.0
C      1  0.5976400000000  0.5565990000000  0.5685040000000 1.0
C      1  0.4780770000000  0.4390690000000  0.4290200000000 1.0
C      1  0.4962820000000  0.4495860000000  0.4912650000000 1.0
C      1  0.4452860000000  0.4651880000000  0.5816440000000 1.0
C      1  0.5310060000000  0.4096670000000  0.5453990000000 1.0
C      1  0.4933160000000  0.5858150000000  0.5915140000000 1.0
C      1  0.5185400000000  0.5897610000000  0.5072980000000 1.0
C      1  0.5951720000000  0.5488870000000  0.4304720000000 1.0
C      1  0.4513110000000  0.4140090000000  0.5742080000000 1.0
C      1  0.4035350000000  0.4164770000000  0.4590090000000 1.0
C      1  0.5302140000000  0.5522370000000  0.5881520000000 1.0
C      1  0.5997090000000  0.4268920000000  0.5174620000000 1.0
C      1  0.5362090000000  0.5810520000000  0.4634880000000 1.0
C      1  0.4619500000000  0.4838980000000  0.6226720000000 1.0
C      1  0.4532890000000  0.6136640000000  0.5391300000000 1.0
C      1  0.3640110000000  0.4808460000000  0.4987700000000 1.0
C      1  0.5623990000000  0.4643080000000  0.4874950000000 1.0
C      1  0.5679010000000  0.5372960000000  0.4846050000000 1.0
C      1  0.4998100000000  0.4124720000000  0.5815360000000 1.0
C      1  0.4805050000000  0.4619850000000  0.6229760000000 1.0
C      1  0.4367900000000  0.4544570000000  0.4074990000000 1.0
C      1  0.6426340000000  0.6257220000000  0.5412300000000 1.0
C      1  0.4523790000000  0.6151010000000  0.5097320000000 1.0
C      1  0.4503940000000  0.5532300000000  0.4058620000000 1.0
C      1  0.4502070000000  0.4754680000000  0.5555950000000 1.0
C      1  0.3770050000000  0.4659330000000  0.4805310000000 1.0
C      1  0.4806490000000  0.5347270000000  0.4410380000000 1.0
C      1  0.4860110000000  0.5266450000000  0.6097420000000 1.0
C      1  0.3883760000000  0.4006600000000  0.4750460000000 1.0
C      1  0.4088810000000  0.5651430000000  0.4841740000000 1.0
C      1  0.4776610000000  0.6239350000000  0.4670270000000 1.0
C      1  0.4674480000000  0.4624100000000  0.5379330000000 1.0
C      1  0.4314240000000  0.4945090000000  0.4619800000000 1.0
C      1  0.5306680000000  0.4995560000000  0.4780270000000 1.0
C      1  0.5621860000000  0.4142730000000  0.4381200000000 1.0
C      1  0.4867080000000  0.5062700000000  0.4427250000000 1.0
C      1  0.5430480000000  0.5573780000000  0.5353970000000 1.0
C      1  0.4910130000000  0.3641020000000  0.5064090000000 1.0
C      1  0.5568690000000  0.4809240000000  0.3731340000000 1.0
C      1  0.4678610000000  0.4381890000000  0.6136510000000 1.0
C      1  0.5212600000000  0.5791880000000  0.5896660000000 1.0
C      1  0.4504920000000  0.4432420000000  0.4294200000000 1.0
C      1  0.6165360000000  0.4436860000000  0.5039050000000 1.0
C      1  0.5174420000000  0.4667650000000  0.5453950000000 1.0
C      1  0.4270290000000  0.5100400000000  0.4386040000000 1.0
C      1  0.5009880000000  0.5785950000000  0.4155940000000 1.0
C      1  0.4759910000000  0.5946810000000  0.4224890000000 1.0
C      1  0.4415200000000  0.4512250000000  0.4552530000000 1.0
C      1  0.5216360000000  0.4190040000000  0.4111940000000 1.0
C      1  0.5121940000000  0.4643740000000  0.3883210000000 1.0
C      1  0.5462890000000  0.5255400000000  0.4255100000000 1.0
C      1  0.4949330000000  0.4852230000000  0.3993550000000 1.0
C      1  0.4291030000000  0.5365020000000  0.4481520000000 1.0
C      1  0.5818010000000  0.5595660000000  0.4730630000000 1.0
C      1  0.5180280000000  0.4154060000000  0.4716600000000 1.0
C      1  0.4991490000000  0.5567690000000  0.4368790000000 1.0
C      1  0.4239220000000  0.5721490000000  0.5299620000000 1.0
C      1  0.4074500000000  0.5461550000000  0.4633960000000 1.0
C      1  0.4059810000000  0.5305470000000  0.5260420000000 1.0
C      1  0.4701410000000  0.5208350000000  0.5063450000000 1.0
C      1  0.4766650000000  0.4013690000000  0.5692230000000 1.0
C      1  0.5537830000000  0.4801730000000  0.6117760000000 1.0
C      1  0.6301470000000  0.5220410000000  0.4107650000000 1.0
C      1  0.4339240000000  0.5054830000000  0.4115400000000 1.0
C      1  0.4100580000000  0.4502640000000  0.5138210000000 1.0
C      1  0.4936800000000  0.4721920000000  0.5318110000000 1.0
C      1  0.5466840000000  0.3897500000000  0.4371910000000 1.0
C      1  0.5768740000000  0.4899850000000  0.5313900000000 1.0
C      1  0.4698530000000  0.5470040000000  0.6169720000000 1.0
C      1  0.4689470000000  0.5168760000000  0.5654520000000 1.0
C      1  0.5407160000000  0.4612440000000  0.5331260000000 1.0
C      1  0.4476270000000  0.5039620000000  0.5523790000000 1.0
C      1  0.5345020000000  0.5899460000000  0.4196240000000 1.0
C      1  0.6091520000000  0.4587460000000  0.4806150000000 1.0
C      1  0.5542220000000  0.5840470000000  0.4400890000000 1.0
C      1  0.5986770000000  0.5940160000000  0.5353330000000 1.0
C      1  0.4295960000000  0.6088810000000  0.4933270000000 1.0
C      1  0.3960850000000  0.4687520000000  0.5337020000000 1.0
C      1  0.4335970000000  0.3813160000000  0.4832720000000 1.0
C      1  0.5638340000000  0.6021560000000  0.4999280000000 1.0
C      1  0.6132360000000  0.5059000000000  0.4530540000000 1.0
C      1  0.4982450000000  0.4557640000000  0.4413850000000 1.0
C      1  0.5036730000000  0.5666640000000  0.3887850000000 1.0
C      1  0.4728210000000  0.5619890000000  0.5452670000000 1.0
C      1  0.3823690000000  0.5156080000000  0.5274340000000 1.0
C      1  0.5403680000000  0.4696760000000  0.3924080000000 1.0
C      1  0.5085000000000  0.4637860000000  0.6201340000000 1.0
C      1  0.5218850000000  0.5472270000000  0.3837780000000 1.0
C      1  0.5253010000000  0.4209820000000  0.5714940000000 1.0
C      1  0.6639390000000  0.6405580000000  0.5435940000000 1.0
C      1  0.4982970000000  0.5688630000000  0.5446800000000 1.0
C      1  0.4538440000000  0.4768600000000  0.4636720000000 1.0
C      1  0.5619050000000  0.5026690000000  0.4290100000000 1.0
C      1  0.5335540000000  0.4612130000000  0.6069530000000 1.0
C      1  0.4241220000000  0.5081810000000  0.5933420000000 1.0
C      1  0.5616980000000  0.4704770000000  0.5166340000000 1.0
C      1  0.4869890000000  0.5412900000000  0.5034560000000 1.0
C      1  0.5448950000000  0.5240860000000  0.4739880000000 1.0
C      1  0.5291330000000  0.4040060000000  0.4963580000000 1.0
C      1  0.6011360000000  0.4891100000000  0.5457380000000 1.0
C      1  0.3966780000000  0.4713650000000  0.5626630000000 1.0
C      1  0.4611030000000  0.5637320000000  0.4726200000000 1.0
C      1  0.5109250000000  0.3903280000000  0.5374950000000 1.0
C      1  0.4643000000000  0.5840170000000  0.5857210000000 1.0
C      1  0.3877940000000  0.4500390000000  0.5776590000000 1.0
C      1  0.4897230000000  0.5150370000000  0.5842540000000 1.0
C      1  0.4435650000000  0.5130140000000  0.5071720000000 1.0
C      1  0.3778160000000  0.4884820000000  0.5220010000000 1.0
C      1  0.5999830000000  0.5297320000000  0.5773980000000 1.0
C      1  0.5487980000000  0.5323390000000  0.5473860000000 1.0
C      1  0.6123380000000  0.5257850000000  0.4321800000000 1.0
C      1  0.6109930000000  0.5090640000000  0.5612480000000 1.0
C      1  0.5374270000000  0.4407710000000  0.5875280000000 1.0
C      1  0.5857220000000  0.5202010000000  0.5998560000000 1.0
C      1  0.6272350000000  0.5713690000000  0.4868900000000 1.0
C      1  0.4503040000000  0.5795390000000  0.4222530000000 1.0
C      1  0.5781710000000  0.5668660000000  0.4449640000000 1.0
C      1  0.5764260000000  0.5302610000000  0.5097130000000 1.0
C      1  0.4320720000000  0.4307080000000  0.5151100000000 1.0
C      1  0.5019650000000  0.3974500000000  0.4540740000000 1.0
C      1  0.4212980000000  0.5897920000000  0.4735810000000 1.0
C      1  0.4771630000000  0.4326370000000  0.5015370000000 1.0
C      1  0.4263040000000  0.5052770000000  0.4869010000000 1.0
C      1  0.4425690000000  0.4867570000000  0.6019100000000 1.0
C      1  0.5395130000000  0.5931990000000  0.4889020000000 1.0
C      1  0.4532060000000  0.3748380000000  0.4643480000000 1.0
C      1  0.5660390000000  0.5163400000000  0.5314170000000 1.0
C      1  0.5465570000000  0.4777750000000  0.4678850000000 1.0
C      1  0.5539680000000  0.4776150000000  0.4392740000000 1.0
C      1  0.5075020000000  0.4357160000000  0.3923390000000 1.0
C      1  0.5827210000000  0.4488180000000  0.4746380000000 1.0
C      1  0.4313470000000  0.5881250000000  0.4448100000000 1.0
C      1  0.5027130000000  0.4939920000000  0.4850810000000 1.0
C      1  0.4513300000000  0.5593030000000  0.5982940000000 1.0
C      1  0.6002070000000  0.5738960000000  0.4896360000000 1.0
C      1  0.4584920000000  0.4417220000000  0.5212500000000 1.0
C      1  0.4988640000000  0.4740620000000  0.5041430000000 1.0
C      1  0.5182880000000  0.3954110000000  0.4300560000000 1.0
C      1  0.5089310000000  0.4431070000000  0.4666040000000 1.0
C      1  0.4552400000000  0.6031240000000  0.5648270000000 1.0
C      1  0.5369230000000  0.5359220000000  0.4501180000000 1.0
C      1  0.6210450000000  0.6105790000000  0.5387010000000 1.0
C      1  0.5746750000000  0.4169600000000  0.5201400000000 1.0
C      1  0.4273850000000  0.4033120000000  0.5637870000000 1.0
C      1  0.5422580000000  0.5971610000000  0.5833870000000 1.0
C      1  0.3917970000000  0.3916130000000  0.5263340000000 1.0
C      1  0.4309910000000  0.5373920000000  0.5934710000000 1.0
C      1  0.5668280000000  0.5948770000000  0.5725710000000 1.0
C      1  0.5130120000000  0.3826050000000  0.5087270000000 1.0
C      1  0.4164360000000  0.4410760000000  0.4652600000000 1.0
C      1  0.4807040000000  0.5659770000000  0.4919300000000 1.0
C      1  0.4310280000000  0.5161380000000  0.5323980000000 1.0
C      1  0.5776230000000  0.4266380000000  0.4579510000000 1.0
C      1  0.4841080000000  0.3841260000000  0.5481550000000 1.0
C      1  0.5703200000000  0.5010650000000  0.6104200000000 1.0
C      1  0.5471110000000  0.4314950000000  0.4204610000000 1.0
C      1  0.4521630000000  0.4382870000000  0.5897720000000 1.0
C      1  0.5157990000000  0.5093670000000  0.5758430000000 1.0
C      1  0.4970940000000  0.4834470000000  0.4281560000000 1.0
C      1  0.5877590000000  0.5815130000000  0.5588430000000 1.0
C      1  0.4074160000000  0.3951560000000  0.5478680000000 1.0
C      1  0.4021260000000  0.4544210000000  0.4859640000000 1.0
C      1  0.5880810000000  0.5910220000000  0.5089660000000 1.0
C      1  0.4765020000000  0.6139240000000  0.4936640000000 1.0
C      1  0.4922330000000  0.5908960000000  0.4979630000000 1.0
C      1  0.5497280000000  0.4592380000000  0.4178240000000 1.0
C      1  0.4541190000000  0.5234020000000  0.3999690000000 1.0
C      1  0.6458790000000  0.5179260000000  0.3904000000000 1.0
C      1  0.4298900000000  0.4796420000000  0.4009670000000 1.0
C      1  0.4755900000000  0.3933400000000  0.4648640000000 1.0
C      1  0.4741260000000  0.3655100000000  0.5285100000000 1.0
C      1  0.3842580000000  0.3931590000000  0.5005930000000 1.0
C      1  0.4087470000000  0.5564070000000  0.5121390000000 1.0
C      1  0.5464760000000  0.4131780000000  0.5198650000000 1.0
C      1  0.5217510000000  0.5744130000000  0.5307040000000 1.0
C      1  0.5208530000000  0.5581840000000  0.4545820000000 1.0
C      1  0.4783200000000  0.6161360000000  0.4411890000000 1.0
C      1  0.6162200000000  0.4832670000000  0.4678610000000 1.0
C      1  0.5351080000000  0.5291980000000  0.5720540000000 1.0
C      1  0.5384560000000  0.5336890000000  0.3999150000000 1.0
C      1  0.4776770000000  0.5075420000000  0.3910090000000 1.0
C      1  0.4668320000000  0.4114290000000  0.4868100000000 1.0
END
