TITL C-3866669-3764-161 9.08406745793813e-06 125000 -851.924011623101 0 0 139 (C1) n - 1
REM
REM in /home/nfs/bkarasulu/CARBON/AIRSS/Generating-Clusters/LCBOP/Only-C1/SD-CG/HFTN-CG/FIRE-CG
REM
REM
REM
REM
REM
REM ./C.cell (11c1c37f851c82e70ff6c80c92926a4b)
REM AIRSS Version 0.9.1 bugfix July 2018 build 013d7b7c2542+ Fri, 06 Jul 2018 19:26:36 +0100
REM compiler GCC version 9.2.1 20190827 (Red Hat 9.2.1-1)
REM options -cpp -mtune=generic -march=x86-64 -g -O0 -fpre-include=/usr/include/finclude/math-vector-fortran.h
REM seed -1604174580 -903489325 -830983626 612664536 827924065 1393451780 470852428 155033270 1884032576 1098088055 30577677 1386980926 -1201653791 1756463556 -767167329 -911294307 1023656107 -2063676026 2129168374 -162998472 -2123994299 958965509 -840604249 1015321637 1324107358 1770825532 -548689960 -1302284971 -1207819517 474579403 1731122756 784910509 -87797189
REM
CELL 1.54180   50.00000   50.00000   50.00000   90.00000   90.00000   90.00000
LATT -1
SFAC C  
C      1  0.5488020000000  0.5017280000000  0.5022250000000 1.0
C      1  0.5470830000000  0.4064890000000  0.5630100000000 1.0
C      1  0.4944350000000  0.6023100000000  0.4661950000000 1.0
C      1  0.5532420000000  0.5792120000000  0.5695730000000 1.0
C      1  0.5971240000000  0.5517770000000  0.5195130000000 1.0
C      1  0.4119600000000  0.4951470000000  0.4744450000000 1.0
C      1  0.5309650000000  0.5165230000000  0.4617660000000 1.0
C      1  0.5167210000000  0.5088380000000  0.4009720000000 1.0
C      1  0.4844090000000  0.4633890000000  0.4865250000000 1.0
C      1  0.5952780000000  0.4963290000000  0.4975230000000 1.0
C      1  0.4814600000000  0.5560520000000  0.5016600000000 1.0
C      1  0.5540590000000  0.4510100000000  0.5130630000000 1.0
C      1  0.5256050000000  0.5195540000000  0.5120100000000 1.0
C      1  0.5774680000000  0.5348000000000  0.4659840000000 1.0
C      1  0.3695420000000  0.4991600000000  0.5003890000000 1.0
C      1  0.4815150000000  0.6267000000000  0.5156860000000 1.0
C      1  0.5215220000000  0.5231290000000  0.5413590000000 1.0
C      1  0.5989480000000  0.4945360000000  0.4493180000000 1.0
C      1  0.5024820000000  0.4431850000000  0.5874840000000 1.0
C      1  0.5021220000000  0.5166590000000  0.4677160000000 1.0
C      1  0.4656240000000  0.4435480000000  0.4946370000000 1.0
C      1  0.4448290000000  0.5720680000000  0.4393110000000 1.0
C      1  0.4352630000000  0.4551790000000  0.4606020000000 1.0
C      1  0.4938540000000  0.5570030000000  0.5702070000000 1.0
C      1  0.4755600000000  0.5205430000000  0.4568580000000 1.0
C      1  0.5275600000000  0.4405610000000  0.5126800000000 1.0
C      1  0.5695450000000  0.5348390000000  0.5550580000000 1.0
C      1  0.5782340000000  0.5991750000000  0.5090670000000 1.0
C      1  0.4256820000000  0.5201930000000  0.4793770000000 1.0
C      1  0.5067350000000  0.6305030000000  0.5278240000000 1.0
C      1  0.5110880000000  0.5796390000000  0.4676430000000 1.0
C      1  0.5251360000000  0.5107710000000  0.5983510000000 1.0
C      1  0.3884370000000  0.4533560000000  0.5666820000000 1.0
C      1  0.5835540000000  0.5470160000000  0.4409190000000 1.0
C      1  0.4767910000000  0.5630610000000  0.5486160000000 1.0
C      1  0.4739060000000  0.5451180000000  0.5272300000000 1.0
C      1  0.5080000000000  0.5627260000000  0.4909010000000 1.0
C      1  0.4600000000000  0.5557190000000  0.4829680000000 1.0
C      1  0.5102290000000  0.4540580000000  0.5314030000000 1.0
C      1  0.4817800000000  0.5604690000000  0.5953730000000 1.0
C      1  0.5306530000000  0.3954930000000  0.5448310000000 1.0
C      1  0.5546330000000  0.4722540000000  0.4541300000000 1.0
C      1  0.4608150000000  0.5795990000000  0.4174380000000 1.0
C      1  0.4769070000000  0.4259100000000  0.4434450000000 1.0
C      1  0.4934550000000  0.4765650000000  0.4344270000000 1.0
C      1  0.5490910000000  0.5381330000000  0.4738710000000 1.0
C      1  0.4559790000000  0.5070380000000  0.5894090000000 1.0
C      1  0.5549760000000  0.5594910000000  0.5508020000000 1.0
C      1  0.5137050000000  0.5386410000000  0.5621360000000 1.0
C      1  0.4308060000000  0.3853930000000  0.4675200000000 1.0
C      1  0.5785270000000  0.4793930000000  0.4404640000000 1.0
C      1  0.5025650000000  0.5087410000000  0.4956840000000 1.0
C      1  0.5450310000000  0.4007740000000  0.4659240000000 1.0
C      1  0.4655340000000  0.5225310000000  0.4302960000000 1.0
C      1  0.4387730000000  0.4828920000000  0.5045620000000 1.0
C      1  0.4802300000000  0.4972430000000  0.5788460000000 1.0
C      1  0.5990940000000  0.4691650000000  0.5079820000000 1.0
C      1  0.4603680000000  0.4152720000000  0.4948490000000 1.0
C      1  0.4228360000000  0.4802740000000  0.4516890000000 1.0
C      1  0.4256340000000  0.5502960000000  0.4362880000000 1.0
C      1  0.5121340000000  0.3968350000000  0.5234010000000 1.0
C      1  0.4946770000000  0.4773410000000  0.5331870000000 1.0
C      1  0.5795750000000  0.4643090000000  0.5535750000000 1.0
C      1  0.4207070000000  0.4298060000000  0.5325400000000 1.0
C      1  0.5661470000000  0.5261160000000  0.3961000000000 1.0
C      1  0.5105720000000  0.5731370000000  0.4180990000000 1.0
C      1  0.5331710000000  0.5480710000000  0.4998880000000 1.0
C      1  0.4803020000000  0.4308480000000  0.5789730000000 1.0
C      1  0.4820860000000  0.4974380000000  0.5505760000000 1.0
C      1  0.5044810000000  0.4221540000000  0.4506840000000 1.0
C      1  0.4206580000000  0.5362730000000  0.5709790000000 1.0
C      1  0.5309070000000  0.6222280000000  0.5156840000000 1.0
C      1  0.5214920000000  0.5718450000000  0.4426550000000 1.0
C      1  0.5794750000000  0.4493080000000  0.4989370000000 1.0
C      1  0.5822700000000  0.4308550000000  0.4782500000000 1.0
C      1  0.3823770000000  0.4787570000000  0.5716870000000 1.0
C      1  0.5792050000000  0.5062390000000  0.3810880000000 1.0
C      1  0.4419640000000  0.5317330000000  0.5890840000000 1.0
C      1  0.4020410000000  0.4350980000000  0.5529130000000 1.0
C      1  0.4534390000000  0.5289310000000  0.4747350000000 1.0
C      1  0.4494080000000  0.4297490000000  0.4521420000000 1.0
C      1  0.4564720000000  0.5527830000000  0.6013490000000 1.0
C      1  0.3896970000000  0.4832580000000  0.4890410000000 1.0
C      1  0.5466740000000  0.4453930000000  0.4491610000000 1.0
C      1  0.5949860000000  0.5110060000000  0.4720900000000 1.0
C      1  0.4859950000000  0.5779100000000  0.4084590000000 1.0
C      1  0.5510910000000  0.5014570000000  0.5891800000000 1.0
C      1  0.4076970000000  0.5427730000000  0.4822400000000 1.0
C      1  0.5025370000000  0.4901190000000  0.4134050000000 1.0
C      1  0.5381210000000  0.5239930000000  0.3965760000000 1.0
C      1  0.5039430000000  0.4917460000000  0.5933840000000 1.0
C      1  0.3983560000000  0.5272560000000  0.5561650000000 1.0
C      1  0.5078210000000  0.6425230000000  0.5524570000000 1.0
C      1  0.5180350000000  0.4156270000000  0.5022160000000 1.0
C      1  0.4909810000000  0.4684260000000  0.4597160000000 1.0
C      1  0.4850830000000  0.3894790000000  0.5263800000000 1.0
C      1  0.5597710000000  0.4592530000000  0.3741850000000 1.0
C      1  0.3681800000000  0.5179290000000  0.5195330000000 1.0
C      1  0.5937270000000  0.5774360000000  0.5120550000000 1.0
C      1  0.4614330000000  0.4035260000000  0.5203370000000 1.0
C      1  0.4041580000000  0.5522690000000  0.4554780000000 1.0
C      1  0.3919530000000  0.4563630000000  0.4987640000000 1.0
C      1  0.5450050000000  0.5621870000000  0.5240070000000 1.0
C      1  0.4382220000000  0.4559440000000  0.4922940000000 1.0
C      1  0.5574160000000  0.4677310000000  0.5356560000000 1.0
C      1  0.4250460000000  0.4978560000000  0.4291200000000 1.0
C      1  0.4455610000000  0.4077900000000  0.4715280000000 1.0
C      1  0.5614230000000  0.4236350000000  0.4611240000000 1.0
C      1  0.5791640000000  0.5424040000000  0.4148670000000 1.0
C      1  0.5527110000000  0.3748330000000  0.4633470000000 1.0
C      1  0.4536630000000  0.5783650000000  0.4664120000000 1.0
C      1  0.4368610000000  0.5241730000000  0.4269380000000 1.0
C      1  0.5444130000000  0.4920030000000  0.4730200000000 1.0
C      1  0.5262600000000  0.4364230000000  0.4063760000000 1.0
C      1  0.4636940000000  0.6176590000000  0.4976490000000 1.0
C      1  0.3889150000000  0.5345370000000  0.5298580000000 1.0
C      1  0.4155940000000  0.4425920000000  0.5071920000000 1.0
C      1  0.5750130000000  0.4811050000000  0.3729580000000 1.0
C      1  0.4673120000000  0.6024320000000  0.4742370000000 1.0
C      1  0.3853410000000  0.5048750000000  0.5677250000000 1.0
C      1  0.6031190000000  0.4668280000000  0.5371610000000 1.0
C      1  0.5949480000000  0.5202820000000  0.5930880000000 1.0
C      1  0.4010360000000  0.5494810000000  0.5089040000000 1.0
C      1  0.5746940000000  0.5087380000000  0.5129760000000 1.0
C      1  0.5409200000000  0.4441720000000  0.3854780000000 1.0
C      1  0.5471840000000  0.4718260000000  0.5881570000000 1.0
C      1  0.5665070000000  0.4537800000000  0.5770210000000 1.0
C      1  0.5714180000000  0.5187330000000  0.5788450000000 1.0
C      1  0.4592370000000  0.4239700000000  0.5639890000000 1.0
C      1  0.5240680000000  0.4361510000000  0.4342410000000 1.0
C      1  0.5558010000000  0.6138210000000  0.5104690000000 1.0
C      1  0.4864850000000  0.4862710000000  0.5051970000000 1.0
C      1  0.4595480000000  0.4992630000000  0.5117700000000 1.0
C      1  0.5183980000000  0.4094380000000  0.4738800000000 1.0
C      1  0.4457830000000  0.4173370000000  0.5400130000000 1.0
C      1  0.5602450000000  0.4260660000000  0.5759240000000 1.0
C      1  0.5182420000000  0.4661010000000  0.5909360000000 1.0
C      1  0.4675210000000  0.5171700000000  0.5331340000000 1.0
C      1  0.5832710000000  0.5292620000000  0.5304400000000 1.0
END
