TITL C-3866671-3735-201 940.199014245682 125000 -917.341350782101 0 0 150 (C1) n - 1
REM
REM in /home/nfs/bkarasulu/CARBON/AIRSS/Generating-Clusters/LCBOP/Only-C1/SD-CG/HFTN-CG/FIRE-CG
REM
REM
REM
REM
REM
REM ./C.cell (11c1c37f851c82e70ff6c80c92926a4b)
REM AIRSS Version 0.9.1 bugfix July 2018 build 013d7b7c2542+ Fri, 06 Jul 2018 19:26:36 +0100
REM compiler GCC version 9.2.1 20190827 (Red Hat 9.2.1-1)
REM options -cpp -mtune=generic -march=x86-64 -g -O0 -fpre-include=/usr/include/finclude/math-vector-fortran.h
REM seed -1167404313 1903655043 -710856662 -445529476 -309585578 1635825929 1309544912 -2146456608 1303722221 495870519 758466988 -1574174985 -1768251611 1350887446 452117237 -579775034 -1616772371 1747816754 990250438 1203244917 -1604459103 1330227867 -32955569 1659762286 -1752284542 2020847452 -1035177066 -957016472 898744052 810965430 512317502 580121997 -738405758
REM
CELL 1.54180   50.00000   50.00000   50.00000   90.00000   90.00000   90.00000
LATT -1
SFAC C  
C      1  0.4256230000000  0.5828520000000  0.5026750000000 1.0
C      1  0.5036790000000  0.5629940000000  0.4657420000000 1.0
C      1  0.4796760000000  0.3998710000000  0.4397810000000 1.0
C      1  0.4705380000000  0.4171760000000  0.5783770000000 1.0
C      1  0.4396610000000  0.4498380000000  0.5514330000000 1.0
C      1  0.5086900000000  0.5084310000000  0.4391010000000 1.0
C      1  0.4423760000000  0.4560170000000  0.4366760000000 1.0
C      1  0.5258030000000  0.4992160000000  0.5389190000000 1.0
C      1  0.5374030000000  0.5666970000000  0.5739920000000 1.0
C      1  0.5289950000000  0.5252150000000  0.6026060000000 1.0
C      1  0.4618650000000  0.4628450000000  0.5392970000000 1.0
C      1  0.5050870000000  0.4511660000000  0.5931790000000 1.0
C      1  0.4269220000000  0.5902870000000  0.4765210000000 1.0
C      1  0.4751850000000  0.4250240000000  0.4233290000000 1.0
C      1  0.6092240000000  0.5764550000000  0.5316100000000 1.0
C      1  0.5693800000000  0.4432990000000  0.4971810000000 1.0
C      1  0.5519390000000  0.4370020000000  0.4174840000000 1.0
C      1  0.4839490000000  0.4734830000000  0.4803850000000 1.0
C      1  0.5215670000000  0.4863800000000  0.4542740000000 1.0
C      1  0.4228600000000  0.4518450000000  0.4567870000000 1.0
C      1  0.5087850000000  0.4522900000000  0.5333830000000 1.0
C      1  0.5665510000000  0.4661970000000  0.5890070000000 1.0
C      1  0.4281610000000  0.5473480000000  0.5405670000000 1.0
C      1  0.5029230000000  0.5161290000000  0.4850470000000 1.0
C      1  0.5807840000000  0.4540540000000  0.6090390000000 1.0
C      1  0.4727680000000  0.4334290000000  0.5040730000000 1.0
C      1  0.4792470000000  0.5627380000000  0.4450910000000 1.0
C      1  0.4631630000000  0.5712530000000  0.5757250000000 1.0
C      1  0.5324690000000  0.4757550000000  0.4969920000000 1.0
C      1  0.4209440000000  0.5112340000000  0.4120600000000 1.0
C      1  0.5585740000000  0.4660010000000  0.4173670000000 1.0
C      1  0.5247890000000  0.6048010000000  0.4917990000000 1.0
C      1  0.5417100000000  0.3900750000000  0.5200650000000 1.0
C      1  0.5933550000000  0.5551240000000  0.4723260000000 1.0
C      1  0.5604350000000  0.5845610000000  0.5251140000000 1.0
C      1  0.4703740000000  0.6357020000000  0.4912670000000 1.0
C      1  0.5411910000000  0.4946930000000  0.5158780000000 1.0
C      1  0.4480610000000  0.4652250000000  0.4081730000000 1.0
C      1  0.5113100000000  0.6192270000000  0.5125320000000 1.0
C      1  0.5457560000000  0.4521880000000  0.4847570000000 1.0
C      1  0.4917130000000  0.4295330000000  0.4834690000000 1.0
C      1  0.5580310000000  0.4496590000000  0.5418300000000 1.0
C      1  0.5810980000000  0.5531970000000  0.4979380000000 1.0
C      1  0.4816620000000  0.4474020000000  0.5264260000000 1.0
C      1  0.4838700000000  0.6268000000000  0.5131850000000 1.0
C      1  0.5149990000000  0.4579080000000  0.4500130000000 1.0
C      1  0.4760590000000  0.6142240000000  0.5630660000000 1.0
C      1  0.3564630000000  0.5181310000000  0.5103120000000 1.0
C      1  0.4999280000000  0.3719340000000  0.4739400000000 1.0
C      1  0.4759160000000  0.5045600000000  0.5613440000000 1.0
C      1  0.4159110000000  0.5383330000000  0.4716860000000 1.0
C      1  0.5177090000000  0.5252540000000  0.5460150000000 1.0
C      1  0.4228140000000  0.4696660000000  0.5648740000000 1.0
C      1  0.5100410000000  0.5313380000000  0.4606360000000 1.0
C      1  0.4714770000000  0.4446670000000  0.4000720000000 1.0
C      1  0.4148520000000  0.4944900000000  0.5522070000000 1.0
C      1  0.4296580000000  0.4733680000000  0.5922340000000 1.0
C      1  0.4676250000000  0.3860530000000  0.5108950000000 1.0
C      1  0.4034600000000  0.5416190000000  0.4969440000000 1.0
C      1  0.3133830000000  0.4923620000000  0.5259380000000 1.0
C      1  0.4527320000000  0.5574080000000  0.5525730000000 1.0
C      1  0.4650130000000  0.4908410000000  0.5385100000000 1.0
C      1  0.6028600000000  0.4850930000000  0.4844520000000 1.0
C      1  0.4511220000000  0.3976610000000  0.4886640000000 1.0
C      1  0.5571870000000  0.5377670000000  0.4994630000000 1.0
C      1  0.5443800000000  0.5592380000000  0.4184700000000 1.0
C      1  0.4423780000000  0.4944660000000  0.4009780000000 1.0
C      1  0.5226710000000  0.5421120000000  0.4118760000000 1.0
C      1  0.5245710000000  0.6219450000000  0.5377860000000 1.0
C      1  0.4415270000000  0.5263020000000  0.4712520000000 1.0
C      1  0.3347020000000  0.5051970000000  0.5181650000000 1.0
C      1  0.4466190000000  0.4991050000000  0.4687180000000 1.0
C      1  0.5171740000000  0.4708680000000  0.3900480000000 1.0
C      1  0.4145410000000  0.5353250000000  0.4236510000000 1.0
C      1  0.4155710000000  0.5532790000000  0.4463520000000 1.0
C      1  0.4602030000000  0.4858680000000  0.4895150000000 1.0
C      1  0.5669050000000  0.4944000000000  0.5869080000000 1.0
C      1  0.4761190000000  0.5352630000000  0.3979190000000 1.0
C      1  0.4305380000000  0.5788240000000  0.4502990000000 1.0
C      1  0.5259900000000  0.4360330000000  0.5784830000000 1.0
C      1  0.4889000000000  0.3710410000000  0.4988160000000 1.0
C      1  0.4267890000000  0.4403190000000  0.4811620000000 1.0
C      1  0.3787870000000  0.5304310000000  0.5031140000000 1.0
C      1  0.4583220000000  0.4944360000000  0.4438510000000 1.0
C      1  0.4885860000000  0.4022220000000  0.5602160000000 1.0
C      1  0.4629530000000  0.5124110000000  0.3910400000000 1.0
C      1  0.5049490000000  0.3885340000000  0.4503620000000 1.0
C      1  0.5932850000000  0.4719430000000  0.4601910000000 1.0
C      1  0.5372740000000  0.4853290000000  0.4054920000000 1.0
C      1  0.4887440000000  0.4500800000000  0.4625100000000 1.0
C      1  0.5850180000000  0.5059800000000  0.5262010000000 1.0
C      1  0.5311260000000  0.5492300000000  0.5058280000000 1.0
C      1  0.5665790000000  0.5156110000000  0.4502600000000 1.0
C      1  0.5677780000000  0.5205240000000  0.5745930000000 1.0
C      1  0.4763900000000  0.5483660000000  0.5396540000000 1.0
C      1  0.4181360000000  0.5584540000000  0.5154540000000 1.0
C      1  0.4813600000000  0.4354220000000  0.5963860000000 1.0
C      1  0.4578450000000  0.3936760000000  0.4600800000000 1.0
C      1  0.4814760000000  0.5007050000000  0.4326540000000 1.0
C      1  0.5332400000000  0.4371270000000  0.5304260000000 1.0
C      1  0.4852400000000  0.5898610000000  0.5755550000000 1.0
C      1  0.5331380000000  0.3963800000000  0.4485120000000 1.0
C      1  0.4674230000000  0.4435840000000  0.4443040000000 1.0
C      1  0.5490840000000  0.3841600000000  0.4689640000000 1.0
C      1  0.5188670000000  0.5003660000000  0.6062680000000 1.0
C      1  0.4621160000000  0.5418610000000  0.4597580000000 1.0
C      1  0.5051530000000  0.5592730000000  0.4968600000000 1.0
C      1  0.5502740000000  0.3826360000000  0.4957870000000 1.0
C      1  0.5153290000000  0.5878420000000  0.5761750000000 1.0
C      1  0.6159970000000  0.5099330000000  0.4782670000000 1.0
C      1  0.4182760000000  0.5212340000000  0.5483090000000 1.0
C      1  0.5784970000000  0.5750170000000  0.4576220000000 1.0
C      1  0.5517800000000  0.4499820000000  0.5706790000000 1.0
C      1  0.5939860000000  0.4809550000000  0.5134410000000 1.0
C      1  0.5809420000000  0.4711030000000  0.4356190000000 1.0
C      1  0.4766340000000  0.4912010000000  0.5867620000000 1.0
C      1  0.6123420000000  0.5347850000000  0.4681600000000 1.0
C      1  0.5146730000000  0.5919870000000  0.4668840000000 1.0
C      1  0.4652030000000  0.5018290000000  0.5125680000000 1.0
C      1  0.5256430000000  0.6119370000000  0.5628860000000 1.0
C      1  0.4831990000000  0.5489990000000  0.5124630000000 1.0
C      1  0.5266400000000  0.5127440000000  0.4148890000000 1.0
C      1  0.4720780000000  0.6250790000000  0.5388260000000 1.0
C      1  0.4572260000000  0.5823910000000  0.4391230000000 1.0
C      1  0.4461770000000  0.4254120000000  0.4952200000000 1.0
C      1  0.5688580000000  0.5954980000000  0.4754350000000 1.0
C      1  0.5361450000000  0.4419610000000  0.4599870000000 1.0
C      1  0.5617040000000  0.5124440000000  0.5108020000000 1.0
C      1  0.4939320000000  0.5496370000000  0.4151120000000 1.0
C      1  0.5495440000000  0.4966900000000  0.4559000000000 1.0
C      1  0.5015500000000  0.4801590000000  0.5965650000000 1.0
C      1  0.5518620000000  0.5974670000000  0.4988080000000 1.0
C      1  0.5163660000000  0.4109630000000  0.5621690000000 1.0
C      1  0.4822330000000  0.5223400000000  0.5032040000000 1.0
C      1  0.5641660000000  0.5691500000000  0.4338650000000 1.0
C      1  0.5128960000000  0.4763530000000  0.5473410000000 1.0
C      1  0.5856430000000  0.5715160000000  0.5191230000000 1.0
C      1  0.4526630000000  0.4849790000000  0.6002310000000 1.0
C      1  0.5426260000000  0.4221930000000  0.4405620000000 1.0
C      1  0.5309460000000  0.4093250000000  0.5369980000000 1.0
C      1  0.5098600000000  0.4881050000000  0.4825290000000 1.0
C      1  0.5847040000000  0.5194340000000  0.5513610000000 1.0
C      1  0.5466550000000  0.5398140000000  0.5849950000000 1.0
C      1  0.5782810000000  0.4567990000000  0.5210300000000 1.0
C      1  0.4686660000000  0.3984270000000  0.5381580000000 1.0
C      1  0.4948300000000  0.4558990000000  0.3881820000000 1.0
C      1  0.5306820000000  0.5475130000000  0.5341460000000 1.0
C      1  0.5450800000000  0.5693050000000  0.5455250000000 1.0
C      1  0.4906760000000  0.5280500000000  0.5542870000000 1.0
C      1  0.4447280000000  0.4219770000000  0.5547750000000 1.0
END
