TITL C-3866675-3766-203 4.52140337224493 125000 -772.930470799945 0 0 127 (C1) n - 1
REM
REM in /home/nfs/bkarasulu/CARBON/AIRSS/Generating-Clusters/LCBOP/Only-C1/SD-CG/HFTN-CG/FIRE-CG
REM
REM
REM
REM
REM
REM ./C.cell (11c1c37f851c82e70ff6c80c92926a4b)
REM AIRSS Version 0.9.1 bugfix July 2018 build 013d7b7c2542+ Fri, 06 Jul 2018 19:26:36 +0100
REM compiler GCC version 9.2.1 20190827 (Red Hat 9.2.1-1)
REM options -cpp -mtune=generic -march=x86-64 -g -O0 -fpre-include=/usr/include/finclude/math-vector-fortran.h
REM seed -1473871056 -906947458 35111124 95480461 97260765 -742796031 -498323810 863886335 945173444 -416322611 -1215334631 -2119630290 -844356513 -945502582 1864076445 1182781468 -2469308 -1699021500 1131525227 -1481786966 2029204718 1308300375 893752994 807544739 1164647544 -1119499943 1196766595 -1303613818 -1301851850 941473536 874446739 -75408501 -529791800
REM
CELL 1.54180   50.00000   50.00000   50.00000   90.00000   90.00000   90.00000
LATT -1
SFAC C  
C      1  0.5632770000000  0.5402910000000  0.5711280000000 1.0
C      1  0.4586100000000  0.5723430000000  0.5078250000000 1.0
C      1  0.5381640000000  0.5451410000000  0.4230260000000 1.0
C      1  0.4932830000000  0.4547860000000  0.5342440000000 1.0
C      1  0.4472180000000  0.5418910000000  0.5436540000000 1.0
C      1  0.4768190000000  0.4613830000000  0.5595850000000 1.0
C      1  0.4855670000000  0.4605310000000  0.4047270000000 1.0
C      1  0.5223670000000  0.4927640000000  0.5430120000000 1.0
C      1  0.5265280000000  0.4201600000000  0.5541160000000 1.0
C      1  0.5020110000000  0.5842960000000  0.5699040000000 1.0
C      1  0.4777590000000  0.4759130000000  0.4829390000000 1.0
C      1  0.4914210000000  0.5266780000000  0.3816310000000 1.0
C      1  0.5874300000000  0.5213390000000  0.4777840000000 1.0
C      1  0.4937730000000  0.5599170000000  0.4366080000000 1.0
C      1  0.5219850000000  0.4229370000000  0.4711690000000 1.0
C      1  0.5636080000000  0.4374890000000  0.5268110000000 1.0
C      1  0.5359940000000  0.4221030000000  0.5244900000000 1.0
C      1  0.4464530000000  0.4039670000000  0.4523410000000 1.0
C      1  0.5358450000000  0.4711630000000  0.4044260000000 1.0
C      1  0.4798500000000  0.4348290000000  0.5731080000000 1.0
C      1  0.4992110000000  0.5299780000000  0.5640960000000 1.0
C      1  0.5342010000000  0.5154990000000  0.5978640000000 1.0
C      1  0.4975170000000  0.5457820000000  0.4984400000000 1.0
C      1  0.5081370000000  0.5362190000000  0.4744910000000 1.0
C      1  0.5166970000000  0.5456740000000  0.5473230000000 1.0
C      1  0.4683510000000  0.5443360000000  0.5018590000000 1.0
C      1  0.4754580000000  0.4877800000000  0.4580730000000 1.0
C      1  0.4700270000000  0.5740010000000  0.4319100000000 1.0
C      1  0.5222430000000  0.5659330000000  0.4357130000000 1.0
C      1  0.4301360000000  0.4679560000000  0.4178660000000 1.0
C      1  0.4064680000000  0.5217630000000  0.4723470000000 1.0
C      1  0.6177480000000  0.5136160000000  0.5156390000000 1.0
C      1  0.4517470000000  0.5225530000000  0.5827270000000 1.0
C      1  0.5011830000000  0.4253090000000  0.4496240000000 1.0
C      1  0.4888390000000  0.5894860000000  0.5462150000000 1.0
C      1  0.5784500000000  0.4734960000000  0.5549920000000 1.0
C      1  0.5181390000000  0.4895450000000  0.6007560000000 1.0
C      1  0.4953510000000  0.4900830000000  0.4999890000000 1.0
C      1  0.5837220000000  0.4890890000000  0.4663880000000 1.0
C      1  0.5530410000000  0.4932830000000  0.4167530000000 1.0
C      1  0.5194730000000  0.4685970000000  0.4474180000000 1.0
C      1  0.5259390000000  0.5462250000000  0.6001490000000 1.0
C      1  0.4175810000000  0.4965770000000  0.4799260000000 1.0
C      1  0.5650650000000  0.4476440000000  0.5553150000000 1.0
C      1  0.5011760000000  0.5959530000000  0.4981290000000 1.0
C      1  0.4703770000000  0.4500760000000  0.4912310000000 1.0
C      1  0.5198060000000  0.5915630000000  0.4788110000000 1.0
C      1  0.5770000000000  0.5442230000000  0.4637530000000 1.0
C      1  0.5784980000000  0.4529340000000  0.4307360000000 1.0
C      1  0.4220460000000  0.5636540000000  0.5811100000000 1.0
C      1  0.5113060000000  0.4644960000000  0.3906500000000 1.0
C      1  0.4411400000000  0.5137280000000  0.4369210000000 1.0
C      1  0.4890400000000  0.5098260000000  0.4028240000000 1.0
C      1  0.3919030000000  0.5098260000000  0.5195650000000 1.0
C      1  0.5971410000000  0.4720730000000  0.5328370000000 1.0
C      1  0.4188660000000  0.5307640000000  0.4472500000000 1.0
C      1  0.3933960000000  0.4802770000000  0.5154980000000 1.0
C      1  0.4113050000000  0.5024380000000  0.5665040000000 1.0
C      1  0.5249650000000  0.5745730000000  0.5861240000000 1.0
C      1  0.4648340000000  0.5163640000000  0.4567570000000 1.0
C      1  0.5834270000000  0.4561380000000  0.5133180000000 1.0
C      1  0.4082900000000  0.5575390000000  0.5058790000000 1.0
C      1  0.5497810000000  0.4265240000000  0.4613380000000 1.0
C      1  0.5163120000000  0.5423390000000  0.5195200000000 1.0
C      1  0.5588030000000  0.5137000000000  0.5805140000000 1.0
C      1  0.3954700000000  0.5140630000000  0.5477460000000 1.0
C      1  0.4973690000000  0.4844540000000  0.5805160000000 1.0
C      1  0.4355260000000  0.4470120000000  0.4358400000000 1.0
C      1  0.5506000000000  0.5868660000000  0.5770620000000 1.0
C      1  0.6176900000000  0.4898520000000  0.5277540000000 1.0
C      1  0.5049000000000  0.5116190000000  0.4284720000000 1.0
C      1  0.4432850000000  0.5732930000000  0.4339260000000 1.0
C      1  0.5388560000000  0.5247370000000  0.5106750000000 1.0
C      1  0.5982970000000  0.5299280000000  0.5037180000000 1.0
C      1  0.5612410000000  0.5664100000000  0.4636930000000 1.0
C      1  0.5352170000000  0.5777140000000  0.4589710000000 1.0
C      1  0.5192720000000  0.4663770000000  0.5350260000000 1.0
C      1  0.4709980000000  0.4871200000000  0.4045770000000 1.0
C      1  0.4816800000000  0.4346710000000  0.4290260000000 1.0
C      1  0.5152850000000  0.4243400000000  0.5010900000000 1.0
C      1  0.5220150000000  0.4812300000000  0.4924660000000 1.0
C      1  0.4976540000000  0.4850050000000  0.4412170000000 1.0
C      1  0.4434850000000  0.4449000000000  0.4853500000000 1.0
C      1  0.5821190000000  0.5730150000000  0.5360450000000 1.0
C      1  0.4811120000000  0.5889540000000  0.5179300000000 1.0
C      1  0.4787330000000  0.5319340000000  0.5838370000000 1.0
C      1  0.4394570000000  0.4983180000000  0.5713090000000 1.0
C      1  0.5541630000000  0.4376470000000  0.4350040000000 1.0
C      1  0.5644210000000  0.4981390000000  0.5565660000000 1.0
C      1  0.4895480000000  0.4385410000000  0.5097440000000 1.0
C      1  0.5345410000000  0.5258600000000  0.4808160000000 1.0
C      1  0.5310540000000  0.4660190000000  0.6098380000000 1.0
C      1  0.4105270000000  0.4733200000000  0.4669510000000 1.0
C      1  0.4201500000000  0.4095860000000  0.4980050000000 1.0
C      1  0.4666380000000  0.5289610000000  0.5278470000000 1.0
C      1  0.5433830000000  0.5499140000000  0.5555280000000 1.0
C      1  0.4220050000000  0.5579350000000  0.4399550000000 1.0
C      1  0.4379630000000  0.5449140000000  0.5699560000000 1.0
C      1  0.4317450000000  0.3988260000000  0.4750990000000 1.0
C      1  0.4300950000000  0.5737620000000  0.5072550000000 1.0
C      1  0.5819190000000  0.4620250000000  0.4853300000000 1.0
C      1  0.4544550000000  0.4258160000000  0.4346950000000 1.0
C      1  0.5043400000000  0.5026900000000  0.5607680000000 1.0
C      1  0.5402310000000  0.4440900000000  0.5972480000000 1.0
C      1  0.4397100000000  0.4812060000000  0.5238310000000 1.0
C      1  0.5415260000000  0.5085470000000  0.4601530000000 1.0
C      1  0.5759380000000  0.4822420000000  0.4359460000000 1.0
C      1  0.5716890000000  0.4370240000000  0.4755030000000 1.0
C      1  0.5694780000000  0.5859280000000  0.5568100000000 1.0
C      1  0.5333900000000  0.4823630000000  0.4673590000000 1.0
C      1  0.4827130000000  0.5055240000000  0.5209240000000 1.0
C      1  0.4451230000000  0.4920060000000  0.4168480000000 1.0
C      1  0.4289790000000  0.4531750000000  0.4623040000000 1.0
C      1  0.4246350000000  0.4370520000000  0.5061000000000 1.0
C      1  0.5898320000000  0.5536510000000  0.5182980000000 1.0
C      1  0.4912620000000  0.5321390000000  0.4489390000000 1.0
C      1  0.5328900000000  0.4540250000000  0.4276330000000 1.0
C      1  0.5462660000000  0.5059810000000  0.5337440000000 1.0
C      1  0.4519870000000  0.4796850000000  0.5518610000000 1.0
C      1  0.5362310000000  0.5157300000000  0.4298110000000 1.0
C      1  0.5001880000000  0.4176770000000  0.5653830000000 1.0
C      1  0.3976760000000  0.5317630000000  0.4989780000000 1.0
C      1  0.5454660000000  0.4348270000000  0.5713150000000 1.0
C      1  0.4399560000000  0.5002990000000  0.4987570000000 1.0
C      1  0.5334890000000  0.4648230000000  0.5111110000000 1.0
C      1  0.4556090000000  0.5229650000000  0.4847990000000 1.0
C      1  0.4164280000000  0.4621570000000  0.5190710000000 1.0
END
