TITL C-3866670-4165-409 5.86380579352042 125000 -611.744060063905 0 0 101 (C1) n - 1
REM
REM in /home/nfs/bkarasulu/CARBON/AIRSS/Generating-Clusters/LCBOP/Only-C1/SD-CG/FIRE-CG
REM
REM
REM
REM
REM
REM ./C.cell (11c1c37f851c82e70ff6c80c92926a4b)
REM AIRSS Version 0.9.1 bugfix July 2018 build 013d7b7c2542+ Fri, 06 Jul 2018 19:26:36 +0100
REM compiler GCC version 9.2.1 20190827 (Red Hat 9.2.1-1)
REM options -cpp -mtune=generic -march=x86-64 -g -O0 -fpre-include=/usr/include/finclude/math-vector-fortran.h
REM seed -1996470604 -1051656910 -1550061172 338762357 -306373077 -518271770 1941722327 -2000271054 1408544087 -204783368 2004161464 -1990800734 -227849575 -1778036664 1446018663 -116000109 -612114665 -1298297045 240590812 -271041690 -1805965461 1474112136 557986571 1516442014 -1601590741 -1819551271 -1404975157 1884556419 1131200719 1716428616 -1732049655 -130004152 36385429
REM
CELL 1.54180   50.00000   50.00000   50.00000   90.00000   90.00000   90.00000
LATT -1
SFAC C  
C      1  0.4349260000000  0.5904100000000  0.5806750000000 1.0
C      1  0.4325310000000  0.6059180000000  0.5365930000000 1.0
C      1  0.5139310000000  0.4663570000000  0.6326080000000 1.0
C      1  0.4209590000000  0.4906620000000  0.5106250000000 1.0
C      1  0.5031660000000  0.5718690000000  0.5753530000000 1.0
C      1  0.4648700000000  0.5879660000000  0.4527930000000 1.0
C      1  0.5320990000000  0.5136390000000  0.5586190000000 1.0
C      1  0.5207600000000  0.5307270000000  0.5148060000000 1.0
C      1  0.6001360000000  0.4675580000000  0.4510930000000 1.0
C      1  0.5320480000000  0.4906040000000  0.5718090000000 1.0
C      1  0.4852330000000  0.5190850000000  0.4319050000000 1.0
C      1  0.4328770000000  0.5650910000000  0.5710110000000 1.0
C      1  0.5170070000000  0.4337350000000  0.5404190000000 1.0
C      1  0.5214900000000  0.5069640000000  0.4748770000000 1.0
C      1  0.4732920000000  0.6015820000000  0.4982510000000 1.0
C      1  0.5123220000000  0.5554940000000  0.4525910000000 1.0
C      1  0.5130620000000  0.5841410000000  0.4592490000000 1.0
C      1  0.5368500000000  0.5451800000000  0.4952690000000 1.0
C      1  0.4910630000000  0.5992960000000  0.4487830000000 1.0
C      1  0.4858060000000  0.4740850000000  0.4124640000000 1.0
C      1  0.5217350000000  0.5953330000000  0.4841570000000 1.0
C      1  0.4589780000000  0.3560910000000  0.4739940000000 1.0
C      1  0.5294190000000  0.3797080000000  0.4527300000000 1.0
C      1  0.4650320000000  0.5650370000000  0.4345730000000 1.0
C      1  0.5636660000000  0.4287450000000  0.5526310000000 1.0
C      1  0.5074670000000  0.4828880000000  0.6523850000000 1.0
C      1  0.4346390000000  0.6112180000000  0.5631620000000 1.0
C      1  0.4415810000000  0.4700300000000  0.5029430000000 1.0
C      1  0.4898280000000  0.4531890000000  0.4616280000000 1.0
C      1  0.5000150000000  0.4219100000000  0.4951210000000 1.0
C      1  0.4956010000000  0.4273720000000  0.5222670000000 1.0
C      1  0.5509560000000  0.4194610000000  0.5068870000000 1.0
C      1  0.4233060000000  0.5020250000000  0.5371210000000 1.0
C      1  0.4316200000000  0.5399470000000  0.4539920000000 1.0
C      1  0.5074680000000  0.5092680000000  0.5003950000000 1.0
C      1  0.5115210000000  0.5570810000000  0.5549500000000 1.0
C      1  0.4734390000000  0.5471760000000  0.4843990000000 1.0
C      1  0.5836770000000  0.4458590000000  0.4428630000000 1.0
C      1  0.5554390000000  0.6280160000000  0.4958220000000 1.0
C      1  0.4888740000000  0.5470690000000  0.4365100000000 1.0
C      1  0.4710200000000  0.4397600000000  0.5306270000000 1.0
C      1  0.4090630000000  0.5613020000000  0.4866940000000 1.0
C      1  0.4837380000000  0.4851930000000  0.5334440000000 1.0
C      1  0.5507880000000  0.3857350000000  0.4700270000000 1.0
C      1  0.5680660000000  0.5818410000000  0.4878840000000 1.0
C      1  0.4931020000000  0.5712980000000  0.6263130000000 1.0
C      1  0.5001040000000  0.6021740000000  0.5012130000000 1.0
C      1  0.4779500000000  0.4614930000000  0.5513280000000 1.0
C      1  0.4554180000000  0.5331680000000  0.4697890000000 1.0
C      1  0.5131300000000  0.3911360000000  0.4346790000000 1.0
C      1  0.5489770000000  0.4327650000000  0.4094150000000 1.0
C      1  0.4333600000000  0.4860800000000  0.5583310000000 1.0
C      1  0.5200210000000  0.4666340000000  0.5800180000000 1.0
C      1  0.4735820000000  0.3774170000000  0.4798590000000 1.0
C      1  0.5732850000000  0.4287980000000  0.4629720000000 1.0
C      1  0.5864630000000  0.4925360000000  0.4514680000000 1.0
C      1  0.5801000000000  0.5449590000000  0.5167300000000 1.0
C      1  0.5186020000000  0.4603310000000  0.6071590000000 1.0
C      1  0.5007530000000  0.5065690000000  0.6623990000000 1.0
C      1  0.4235210000000  0.5303770000000  0.5387800000000 1.0
C      1  0.5205440000000  0.4358460000000  0.4108050000000 1.0
C      1  0.5093780000000  0.4433060000000  0.4785430000000 1.0
C      1  0.5270070000000  0.5361880000000  0.4686440000000 1.0
C      1  0.4805270000000  0.4913050000000  0.4352100000000 1.0
C      1  0.4968890000000  0.5769940000000  0.6006460000000 1.0
C      1  0.5216660000000  0.5341510000000  0.5426110000000 1.0
C      1  0.5485220000000  0.6023600000000  0.4893870000000 1.0
C      1  0.5618790000000  0.5570590000000  0.5002720000000 1.0
C      1  0.5671640000000  0.4940650000000  0.4719040000000 1.0
C      1  0.4925920000000  0.5555680000000  0.6477160000000 1.0
C      1  0.5059440000000  0.4519560000000  0.5604480000000 1.0
C      1  0.4106940000000  0.5353700000000  0.4747240000000 1.0
C      1  0.4757220000000  0.4772180000000  0.4601370000000 1.0
C      1  0.5440010000000  0.4274690000000  0.5335770000000 1.0
C      1  0.4539450000000  0.4702960000000  0.5663700000000 1.0
C      1  0.5564710000000  0.4382270000000  0.4849870000000 1.0
C      1  0.5072040000000  0.4129820000000  0.4201800000000 1.0
C      1  0.4485240000000  0.4455350000000  0.5146550000000 1.0
C      1  0.5914580000000  0.5854350000000  0.4742020000000 1.0
C      1  0.5679660000000  0.4511500000000  0.4191720000000 1.0
C      1  0.5608660000000  0.4787750000000  0.4127550000000 1.0
C      1  0.4854100000000  0.4934870000000  0.5068800000000 1.0
C      1  0.5402490000000  0.4852000000000  0.4743520000000 1.0
C      1  0.5763040000000  0.4988270000000  0.4255050000000 1.0
C      1  0.4888910000000  0.3984960000000  0.4847320000000 1.0
C      1  0.4656160000000  0.4682330000000  0.3948860000000 1.0
C      1  0.5119880000000  0.4634590000000  0.4084860000000 1.0
C      1  0.5337740000000  0.4817260000000  0.4050720000000 1.0
C      1  0.4637580000000  0.4856950000000  0.4869800000000 1.0
C      1  0.4294490000000  0.5574950000000  0.5435580000000 1.0
C      1  0.4953720000000  0.5325340000000  0.6606660000000 1.0
C      1  0.4447990000000  0.3350600000000  0.4679740000000 1.0
C      1  0.5720830000000  0.4007900000000  0.4586210000000 1.0
C      1  0.4303400000000  0.5782470000000  0.4957120000000 1.0
C      1  0.5474590000000  0.3925260000000  0.4975540000000 1.0
C      1  0.4474060000000  0.5089140000000  0.4800890000000 1.0
C      1  0.5350240000000  0.4567090000000  0.4793930000000 1.0
C      1  0.4194770000000  0.5102070000000  0.4889230000000 1.0
C      1  0.4311690000000  0.5799980000000  0.5245670000000 1.0
C      1  0.4393540000000  0.5535960000000  0.4310790000000 1.0
C      1  0.4533860000000  0.5901900000000  0.4805690000000 1.0
END
