TITL C-3866669-3764-687 0.555047305175596 125000 -594.034435382793 0 0 97 (C1) n - 1
REM
REM in /home/nfs/bkarasulu/CARBON/AIRSS/Generating-Clusters/LCBOP/Only-C1/SD-CG/FIRE-CG
REM
REM
REM
REM
REM
REM ./C.cell (11c1c37f851c82e70ff6c80c92926a4b)
REM AIRSS Version 0.9.1 bugfix July 2018 build 013d7b7c2542+ Fri, 06 Jul 2018 19:26:36 +0100
REM compiler GCC version 9.2.1 20190827 (Red Hat 9.2.1-1)
REM options -cpp -mtune=generic -march=x86-64 -g -O0 -fpre-include=/usr/include/finclude/math-vector-fortran.h
REM seed -1792416797 -1906504847 777582738 -1514593651 -1203050900 -1404740344 -1127706195 255438544 -594514809 1466581484 -1835157559 172933028 -985711068 987638983 -1032076897 -1026531547 301561722 762739222 -1071646608 -473440974 562509270 -1022643120 822575299 -694845512 886493699 1541236619 -1929211081 -1216524723 1093322909 424595902 159670070 1013238337 -1445299361
REM
CELL 1.54180   50.00000   50.00000   50.00000   90.00000   90.00000   90.00000
LATT -1
SFAC C  
C      1  0.4111180000000  0.5591770000000  0.5036020000000 1.0
C      1  0.4733520000000  0.5935670000000  0.5107010000000 1.0
C      1  0.5061540000000  0.4945510000000  0.3748590000000 1.0
C      1  0.5451200000000  0.4775930000000  0.4529790000000 1.0
C      1  0.4882760000000  0.3978680000000  0.5144640000000 1.0
C      1  0.5005070000000  0.5951890000000  0.5042420000000 1.0
C      1  0.4914850000000  0.4040620000000  0.5418920000000 1.0
C      1  0.5456810000000  0.4304140000000  0.4616330000000 1.0
C      1  0.5364540000000  0.5245080000000  0.3972400000000 1.0
C      1  0.5294740000000  0.4909200000000  0.5812940000000 1.0
C      1  0.4938500000000  0.4716090000000  0.3803140000000 1.0
C      1  0.4298420000000  0.5571630000000  0.5544570000000 1.0
C      1  0.4344170000000  0.5107030000000  0.4237670000000 1.0
C      1  0.4157810000000  0.4399460000000  0.4249240000000 1.0
C      1  0.4453780000000  0.5312190000000  0.4083310000000 1.0
C      1  0.5247170000000  0.4212320000000  0.4443090000000 1.0
C      1  0.4566470000000  0.5639750000000  0.5471560000000 1.0
C      1  0.4191270000000  0.5324740000000  0.5432810000000 1.0
C      1  0.4630120000000  0.5187070000000  0.5576370000000 1.0
C      1  0.4580440000000  0.5110340000000  0.4958760000000 1.0
C      1  0.3907670000000  0.5048910000000  0.4839070000000 1.0
C      1  0.4974810000000  0.4684990000000  0.5396690000000 1.0
C      1  0.5448630000000  0.5762820000000  0.5156450000000 1.0
C      1  0.5512140000000  0.4795350000000  0.5656480000000 1.0
C      1  0.4985560000000  0.4263180000000  0.4394190000000 1.0
C      1  0.5023970000000  0.4609180000000  0.4781060000000 1.0
C      1  0.4628680000000  0.4519180000000  0.4188650000000 1.0
C      1  0.5265530000000  0.4707210000000  0.6273860000000 1.0
C      1  0.4702430000000  0.5398710000000  0.5395190000000 1.0
C      1  0.4082690000000  0.5056650000000  0.4638870000000 1.0
C      1  0.4369730000000  0.5095710000000  0.5471530000000 1.0
C      1  0.5122210000000  0.5204680000000  0.3838310000000 1.0
C      1  0.4665880000000  0.5881460000000  0.5376430000000 1.0
C      1  0.5688380000000  0.4985840000000  0.5546700000000 1.0
C      1  0.6343570000000  0.5652620000000  0.5105430000000 1.0
C      1  0.4533110000000  0.4622470000000  0.4877850000000 1.0
C      1  0.4324270000000  0.4433280000000  0.4876930000000 1.0
C      1  0.5601440000000  0.4533370000000  0.4534070000000 1.0
C      1  0.4660500000000  0.5415460000000  0.3951160000000 1.0
C      1  0.4352860000000  0.4584500000000  0.4171940000000 1.0
C      1  0.4504070000000  0.4848240000000  0.5060950000000 1.0
C      1  0.6156770000000  0.6207300000000  0.5333590000000 1.0
C      1  0.5705590000000  0.5648490000000  0.5165800000000 1.0
C      1  0.6188210000000  0.6109100000000  0.5083670000000 1.0
C      1  0.5814560000000  0.5489920000000  0.5381890000000 1.0
C      1  0.4945860000000  0.4632980000000  0.5891050000000 1.0
C      1  0.4724620000000  0.4814690000000  0.5874970000000 1.0
C      1  0.4071340000000  0.4284920000000  0.4475000000000 1.0
C      1  0.4422590000000  0.4617900000000  0.5525170000000 1.0
C      1  0.4786650000000  0.4565690000000  0.3960880000000 1.0
C      1  0.5518440000000  0.5159300000000  0.4172280000000 1.0
C      1  0.4040300000000  0.5367160000000  0.5195340000000 1.0
C      1  0.5014840000000  0.4522980000000  0.5632490000000 1.0
C      1  0.4938510000000  0.4158550000000  0.4954480000000 1.0
C      1  0.4290420000000  0.4854290000000  0.4127920000000 1.0
C      1  0.5549290000000  0.4990050000000  0.4375460000000 1.0
C      1  0.5178680000000  0.4745730000000  0.6020630000000 1.0
C      1  0.5245450000000  0.4361720000000  0.5607700000000 1.0
C      1  0.6058910000000  0.5590240000000  0.5497140000000 1.0
C      1  0.4750280000000  0.4578250000000  0.4687230000000 1.0
C      1  0.4327870000000  0.5123470000000  0.4521800000000 1.0
C      1  0.5621320000000  0.4440390000000  0.5311800000000 1.0
C      1  0.5339960000000  0.5216870000000  0.4998550000000 1.0
C      1  0.5203100000000  0.5073060000000  0.5167080000000 1.0
C      1  0.6098940000000  0.6088470000000  0.5568710000000 1.0
C      1  0.4700440000000  0.5308370000000  0.5125010000000 1.0
C      1  0.4284670000000  0.5762780000000  0.4925030000000 1.0
C      1  0.4519820000000  0.5892720000000  0.4927690000000 1.0
C      1  0.5517940000000  0.4235330000000  0.5140940000000 1.0
C      1  0.4811560000000  0.5062350000000  0.5750980000000 1.0
C      1  0.5865850000000  0.4521120000000  0.4468050000000 1.0
C      1  0.5735790000000  0.5229770000000  0.5449350000000 1.0
C      1  0.5486670000000  0.4523570000000  0.5550930000000 1.0
C      1  0.4759270000000  0.4439120000000  0.4428580000000 1.0
C      1  0.4815130000000  0.5167620000000  0.4549020000000 1.0
C      1  0.5184860000000  0.4802450000000  0.4637560000000 1.0
C      1  0.5114860000000  0.4374440000000  0.4913980000000 1.0
C      1  0.3882950000000  0.5168850000000  0.5076820000000 1.0
C      1  0.4495140000000  0.4348380000000  0.5483830000000 1.0
C      1  0.5391260000000  0.4299600000000  0.4894820000000 1.0
C      1  0.6294890000000  0.5535180000000  0.5346210000000 1.0
C      1  0.6159380000000  0.5841010000000  0.4996110000000 1.0
C      1  0.5396580000000  0.6224910000000  0.5044690000000 1.0
C      1  0.4476620000000  0.4707840000000  0.5792810000000 1.0
C      1  0.5894530000000  0.5741470000000  0.4973200000000 1.0
C      1  0.4396770000000  0.4836960000000  0.5335680000000 1.0
C      1  0.4143140000000  0.4301450000000  0.4732200000000 1.0
C      1  0.5089270000000  0.5048430000000  0.5654840000000 1.0
C      1  0.4565290000000  0.5154790000000  0.4676460000000 1.0
C      1  0.5044450000000  0.5032920000000  0.4553760000000 1.0
C      1  0.4680180000000  0.4156790000000  0.5527280000000 1.0
C      1  0.5393590000000  0.4028430000000  0.5298040000000 1.0
C      1  0.5191370000000  0.4104990000000  0.5486990000000 1.0
C      1  0.5282160000000  0.5978000000000  0.5080990000000 1.0
C      1  0.6056440000000  0.5832560000000  0.5642860000000 1.0
C      1  0.4909500000000  0.5385780000000  0.3860830000000 1.0
C      1  0.5084640000000  0.4947580000000  0.5382390000000 1.0
END
