TITL C-3866676-3738-373 31107.1833212694 125000 -977.27181961133 0 0 158 (C1) n - 1
REM
REM in /home/nfs/bkarasulu/CARBON/AIRSS/Generating-Clusters/LCBOP/Only-C1/SD-CG/FIRE-CG
REM
REM
REM
REM
REM
REM ./C.cell (11c1c37f851c82e70ff6c80c92926a4b)
REM AIRSS Version 0.9.1 bugfix July 2018 build 013d7b7c2542+ Fri, 06 Jul 2018 19:26:36 +0100
REM compiler GCC version 9.2.1 20190827 (Red Hat 9.2.1-1)
REM options -cpp -mtune=generic -march=x86-64 -g -O0 -fpre-include=/usr/include/finclude/math-vector-fortran.h
REM seed 911870711 -611379694 1966433991 -103790084 1342024525 1999498351 -573007699 -361796347 -1588227395 -1421526295 624348269 1226095253 -343243791 -92999035 7205056 1256506998 334653524 -1081104291 639576049 -1565290508 2114130928 2138739536 1921613301 -1937687989 607766283 396024069 -820559751 1204009 -1831136510 -1910896985 1969524673 1218767805 791133037
REM
CELL 1.54180   50.00000   50.00000   50.00000   90.00000   90.00000   90.00000
LATT -1
SFAC C  
C      1  0.5837900000000  0.5516280000000  0.4911490000000 1.0
C      1  0.4860210000000  0.5737010000000  0.5056580000000 1.0
C      1  0.4041220000000  0.5232240000000  0.4782350000000 1.0
C      1  0.4116760000000  0.4983300000000  0.5154460000000 1.0
C      1  0.4412290000000  0.5548720000000  0.5111210000000 1.0
C      1  0.5618970000000  0.4383280000000  0.5153010000000 1.0
C      1  0.4648970000000  0.4834920000000  0.5805050000000 1.0
C      1  0.5017330000000  0.5543560000000  0.5207410000000 1.0
C      1  0.4986120000000  0.5237820000000  0.3861540000000 1.0
C      1  0.5867520000000  0.4599630000000  0.5732320000000 1.0
C      1  0.5127740000000  0.4831980000000  0.5731670000000 1.0
C      1  0.4350990000000  0.5042930000000  0.4381540000000 1.0
C      1  0.4963330000000  0.5248600000000  0.5161630000000 1.0
C      1  0.5407750000000  0.5782120000000  0.5348190000000 1.0
C      1  0.4889580000000  0.3889590000000  0.4653220000000 1.0
C      1  0.4884440000000  0.4464190000000  0.4045330000000 1.0
C      1  0.5106490000000  0.4025890000000  0.5584310000000 1.0
C      1  0.5029930000000  0.5595320000000  0.5946910000000 1.0
C      1  0.4666180000000  0.4790310000000  0.4898550000000 1.0
C      1  0.5714350000000  0.4397060000000  0.5823990000000 1.0
C      1  0.5740450000000  0.5777500000000  0.4811920000000 1.0
C      1  0.4150820000000  0.5632640000000  0.5605770000000 1.0
C      1  0.5786260000000  0.4822520000000  0.4891070000000 1.0
C      1  0.4141620000000  0.4922610000000  0.5680370000000 1.0
C      1  0.5250990000000  0.5195720000000  0.4540830000000 1.0
C      1  0.5333390000000  0.4398900000000  0.5169410000000 1.0
C      1  0.5115460000000  0.4281870000000  0.4438270000000 1.0
C      1  0.5194070000000  0.5116960000000  0.5011210000000 1.0
C      1  0.4344930000000  0.5995850000000  0.4988040000000 1.0
C      1  0.5025730000000  0.4394760000000  0.5890450000000 1.0
C      1  0.4199360000000  0.5289920000000  0.4499260000000 1.0
C      1  0.5374740000000  0.5767380000000  0.5628220000000 1.0
C      1  0.4624960000000  0.3955700000000  0.5366120000000 1.0
C      1  0.4831140000000  0.3827260000000  0.4924700000000 1.0
C      1  0.4767570000000  0.4748360000000  0.5170560000000 1.0
C      1  0.6218990000000  0.5016780000000  0.5270170000000 1.0
C      1  0.4784350000000  0.4330330000000  0.5724230000000 1.0
C      1  0.5576270000000  0.5139370000000  0.4229870000000 1.0
C      1  0.4829410000000  0.6010830000000  0.5125390000000 1.0
C      1  0.5046770000000  0.3725220000000  0.5075580000000 1.0
C      1  0.4057010000000  0.4932360000000  0.4875080000000 1.0
C      1  0.4455560000000  0.4752950000000  0.4000190000000 1.0
C      1  0.4798040000000  0.4656870000000  0.4696550000000 1.0
C      1  0.4523690000000  0.4253020000000  0.4474560000000 1.0
C      1  0.4888380000000  0.4962450000000  0.4287340000000 1.0
C      1  0.5781810000000  0.5025140000000  0.4688880000000 1.0
C      1  0.4587630000000  0.5960890000000  0.4311510000000 1.0
C      1  0.5131080000000  0.4435450000000  0.4190510000000 1.0
C      1  0.4942160000000  0.5023390000000  0.4016910000000 1.0
C      1  0.5559610000000  0.4918830000000  0.5553830000000 1.0
C      1  0.5167270000000  0.5718640000000  0.4736810000000 1.0
C      1  0.4824590000000  0.4093930000000  0.5539700000000 1.0
C      1  0.5322000000000  0.5942000000000  0.4654450000000 1.0
C      1  0.5324190000000  0.3920140000000  0.5423570000000 1.0
C      1  0.5039500000000  0.6075000000000  0.5316790000000 1.0
C      1  0.4632070000000  0.5920550000000  0.5630580000000 1.0
C      1  0.4600000000000  0.3932740000000  0.5065240000000 1.0
C      1  0.4755870000000  0.5248200000000  0.4927250000000 1.0
C      1  0.4259580000000  0.4494980000000  0.5031770000000 1.0
C      1  0.5757670000000  0.4597970000000  0.5034330000000 1.0
C      1  0.5302900000000  0.5581690000000  0.5177400000000 1.0
C      1  0.6295450000000  0.5101160000000  0.5026840000000 1.0
C      1  0.4057870000000  0.5676440000000  0.5329650000000 1.0
C      1  0.5548070000000  0.4660090000000  0.4399360000000 1.0
C      1  0.4262170000000  0.5792420000000  0.5181020000000 1.0
C      1  0.4380920000000  0.4966720000000  0.5831740000000 1.0
C      1  0.5331980000000  0.4758890000000  0.5557110000000 1.0
C      1  0.4713480000000  0.5335280000000  0.4459360000000 1.0
C      1  0.4635230000000  0.5327360000000  0.5500630000000 1.0
C      1  0.5385300000000  0.5339220000000  0.4326990000000 1.0
C      1  0.4383670000000  0.4037580000000  0.4890270000000 1.0
C      1  0.5041300000000  0.4727410000000  0.5185510000000 1.0
C      1  0.5095540000000  0.3999590000000  0.4491370000000 1.0
C      1  0.5502740000000  0.5613250000000  0.6070020000000 1.0
C      1  0.4438370000000  0.5703810000000  0.5693050000000 1.0
C      1  0.5348970000000  0.3871880000000  0.4512100000000 1.0
C      1  0.4602410000000  0.4504460000000  0.4042580000000 1.0
C      1  0.4546440000000  0.4833060000000  0.5331440000000 1.0
C      1  0.5646350000000  0.4215760000000  0.4659050000000 1.0
C      1  0.4350020000000  0.5843510000000  0.4452290000000 1.0
C      1  0.5569350000000  0.5711710000000  0.5825620000000 1.0
C      1  0.5098460000000  0.5778570000000  0.5726150000000 1.0
C      1  0.5510240000000  0.4462450000000  0.4608220000000 1.0
C      1  0.4157340000000  0.4666620000000  0.5545010000000 1.0
C      1  0.5027810000000  0.5501740000000  0.3894330000000 1.0
C      1  0.4630570000000  0.6227130000000  0.4274690000000 1.0
C      1  0.5237910000000  0.4602480000000  0.5343720000000 1.0
C      1  0.5569630000000  0.4052210000000  0.5511700000000 1.0
C      1  0.5127760000000  0.4334130000000  0.4968590000000 1.0
C      1  0.4643260000000  0.5071320000000  0.4393100000000 1.0
C      1  0.4118770000000  0.4644120000000  0.4821640000000 1.0
C      1  0.4025180000000  0.5401270000000  0.5717880000000 1.0
C      1  0.4137140000000  0.4458870000000  0.4600890000000 1.0
C      1  0.5501610000000  0.3842670000000  0.4964790000000 1.0
C      1  0.5227900000000  0.4207540000000  0.5796900000000 1.0
C      1  0.5837290000000  0.4831930000000  0.5578110000000 1.0
C      1  0.5821880000000  0.5274360000000  0.5386050000000 1.0
C      1  0.4604320000000  0.5465550000000  0.5744740000000 1.0
C      1  0.5330930000000  0.5536520000000  0.4890920000000 1.0
C      1  0.4349270000000  0.5846130000000  0.4734820000000 1.0
C      1  0.4720830000000  0.4414480000000  0.4587370000000 1.0
C      1  0.3958230000000  0.5398050000000  0.5110430000000 1.0
C      1  0.4891800000000  0.4954920000000  0.5614530000000 1.0
C      1  0.5456190000000  0.5831270000000  0.4412710000000 1.0
C      1  0.4433030000000  0.4576810000000  0.5450450000000 1.0
C      1  0.6212670000000  0.5225540000000  0.4786700000000 1.0
C      1  0.3953680000000  0.5169010000000  0.5294680000000 1.0
C      1  0.5515670000000  0.4210690000000  0.5753050000000 1.0
C      1  0.4557020000000  0.5049410000000  0.4927810000000 1.0
C      1  0.5502600000000  0.5978260000000  0.4898780000000 1.0
C      1  0.5994300000000  0.5038230000000  0.5437120000000 1.0
C      1  0.5243490000000  0.5560920000000  0.6133030000000 1.0
C      1  0.4319550000000  0.5557360000000  0.4366580000000 1.0
C      1  0.5374860000000  0.4602160000000  0.4161380000000 1.0
C      1  0.5048610000000  0.4678330000000  0.5968820000000 1.0
C      1  0.5160280000000  0.4848250000000  0.4959550000000 1.0
C      1  0.5102150000000  0.4953270000000  0.4481610000000 1.0
C      1  0.4767690000000  0.5745070000000  0.4221530000000 1.0
C      1  0.6697970000000  0.5296460000000  0.4156190000000 1.0
C      1  0.4415640000000  0.5577470000000  0.4831510000000 1.0
C      1  0.4803530000000  0.4326120000000  0.5079000000000 1.0
C      1  0.6389750000000  0.5287320000000  0.4581270000000 1.0
C      1  0.4608980000000  0.4547730000000  0.5688410000000 1.0
C      1  0.4584090000000  0.6133490000000  0.5057580000000 1.0
C      1  0.5854810000000  0.5472910000000  0.5192630000000 1.0
C      1  0.5660740000000  0.4940470000000  0.4435860000000 1.0
C      1  0.5089400000000  0.4732300000000  0.4689170000000 1.0
C      1  0.4805330000000  0.5411720000000  0.5950210000000 1.0
C      1  0.5563490000000  0.5193550000000  0.5480630000000 1.0
C      1  0.4923100000000  0.5957050000000  0.5578680000000 1.0
C      1  0.4862380000000  0.5167520000000  0.5437560000000 1.0
C      1  0.4399210000000  0.5050700000000  0.5189080000000 1.0
C      1  0.4828390000000  0.5153320000000  0.6097110000000 1.0
C      1  0.5927330000000  0.5274310000000  0.4759190000000 1.0
C      1  0.4305680000000  0.4207910000000  0.4665100000000 1.0
C      1  0.4599760000000  0.5513950000000  0.4279260000000 1.0
C      1  0.4426470000000  0.3819540000000  0.5506610000000 1.0
C      1  0.5307630000000  0.5271650000000  0.4808290000000 1.0
C      1  0.4451700000000  0.5329870000000  0.5286660000000 1.0
C      1  0.4820820000000  0.4855050000000  0.6064540000000 1.0
C      1  0.4479680000000  0.4405240000000  0.5198700000000 1.0
C      1  0.4788110000000  0.5423570000000  0.4710780000000 1.0
C      1  0.5435790000000  0.4772240000000  0.3941540000000 1.0
C      1  0.5725870000000  0.5792810000000  0.4512780000000 1.0
C      1  0.5213110000000  0.4446150000000  0.4680120000000 1.0
C      1  0.3994370000000  0.5152800000000  0.5581650000000 1.0
C      1  0.5330730000000  0.6027350000000  0.5203470000000 1.0
C      1  0.4272320000000  0.4817000000000  0.4225070000000 1.0
C      1  0.4207120000000  0.4552320000000  0.4333250000000 1.0
C      1  0.4895870000000  0.5673500000000  0.4778640000000 1.0
C      1  0.5041520000000  0.5665940000000  0.4129920000000 1.0
C      1  0.6547750000000  0.5303070000000  0.4369170000000 1.0
C      1  0.5303070000000  0.5622560000000  0.4273070000000 1.0
C      1  0.5302060000000  0.3805020000000  0.5165040000000 1.0
C      1  0.5540940000000  0.5021780000000  0.3972960000000 1.0
C      1  0.5540420000000  0.3954100000000  0.4706650000000 1.0
C      1  0.5727970000000  0.4177740000000  0.5313010000000 1.0
C      1  0.4425610000000  0.4366710000000  0.4229820000000 1.0
END
