TITL C-3866675-3766-251 -1.21178922989554e-06 125000 -416.632302897642 0 0 69 (C1) n - 1
REM
REM in /home/nfs/bkarasulu/CARBON/AIRSS/Generating-Clusters/LCBOP/Only-C1/SD-CG/HFTN-CG/FIRE-CG
REM
REM
REM
REM
REM
REM ./C.cell (11c1c37f851c82e70ff6c80c92926a4b)
REM AIRSS Version 0.9.1 bugfix July 2018 build 013d7b7c2542+ Fri, 06 Jul 2018 19:26:36 +0100
REM compiler GCC version 9.2.1 20190827 (Red Hat 9.2.1-1)
REM options -cpp -mtune=generic -march=x86-64 -g -O0 -fpre-include=/usr/include/finclude/math-vector-fortran.h
REM seed 188870857 -753824703 36577923 1737832553 -1784276259 1427266395 -149277754 1262181112 -1430265090 1714253026 -1651149247 616208157 -974815153 -352896656 1107967577 1782233548 -79228344 1515366875 -1795847724 54819426 1935750765 1418496152 1163960626 -299629763 -1839299518 1533523084 -806760260 -968560660 -144651977 1709314489 181975829 -925595913 1033385002
REM
CELL 1.54180   50.00000   50.00000   50.00000   90.00000   90.00000   90.00000
LATT -1
SFAC C  
C      1  0.5177770000000  0.5303720000000  0.4874690000000 1.0
C      1  0.4447090000000  0.4471140000000  0.4777980000000 1.0
C      1  0.5611790000000  0.5356960000000  0.4393650000000 1.0
C      1  0.4666600000000  0.5052190000000  0.4195010000000 1.0
C      1  0.4910420000000  0.4633500000000  0.4755260000000 1.0
C      1  0.5115150000000  0.5580650000000  0.4885360000000 1.0
C      1  0.4768580000000  0.5171360000000  0.5936900000000 1.0
C      1  0.5269370000000  0.5197650000000  0.5130490000000 1.0
C      1  0.5158400000000  0.5446280000000  0.5805010000000 1.0
C      1  0.4669970000000  0.4999660000000  0.5734120000000 1.0
C      1  0.5758420000000  0.5190860000000  0.4593620000000 1.0
C      1  0.4596880000000  0.4529460000000  0.5657380000000 1.0
C      1  0.5564770000000  0.5115650000000  0.5492000000000 1.0
C      1  0.5673120000000  0.4570520000000  0.5118950000000 1.0
C      1  0.5311940000000  0.4771470000000  0.4969020000000 1.0
C      1  0.4734870000000  0.5607890000000  0.5341170000000 1.0
C      1  0.5179080000000  0.4926620000000  0.5152870000000 1.0
C      1  0.5089640000000  0.5830790000000  0.4491080000000 1.0
C      1  0.5407290000000  0.4386130000000  0.5490040000000 1.0
C      1  0.4294010000000  0.4713420000000  0.4780620000000 1.0
C      1  0.5657160000000  0.4929840000000  0.4684520000000 1.0
C      1  0.4514130000000  0.5132470000000  0.5516420000000 1.0
C      1  0.4858170000000  0.4922110000000  0.4722180000000 1.0
C      1  0.4399530000000  0.4918610000000  0.4598780000000 1.0
C      1  0.5445740000000  0.5261360000000  0.4173050000000 1.0
C      1  0.4640000000000  0.5724370000000  0.5095090000000 1.0
C      1  0.5201170000000  0.5468250000000  0.5530050000000 1.0
C      1  0.5517020000000  0.4843820000000  0.5556680000000 1.0
C      1  0.5131020000000  0.4395370000000  0.5568110000000 1.0
C      1  0.4919540000000  0.5125700000000  0.4128890000000 1.0
C      1  0.4559700000000  0.5151490000000  0.5014370000000 1.0
C      1  0.4685870000000  0.5779780000000  0.4817290000000 1.0
C      1  0.4602520000000  0.5044750000000  0.4753440000000 1.0
C      1  0.4781700000000  0.4727570000000  0.5743440000000 1.0
C      1  0.4657360000000  0.4747910000000  0.5244860000000 1.0
C      1  0.5289950000000  0.4809420000000  0.5734740000000 1.0
C      1  0.5599570000000  0.4793040000000  0.4938410000000 1.0
C      1  0.4424770000000  0.4963990000000  0.5217880000000 1.0
C      1  0.4954610000000  0.4215400000000  0.5442660000000 1.0
C      1  0.4572670000000  0.5412600000000  0.5476510000000 1.0
C      1  0.4209380000000  0.4885870000000  0.4150050000000 1.0
C      1  0.4808600000000  0.5178520000000  0.5150300000000 1.0
C      1  0.5190630000000  0.5133400000000  0.4210840000000 1.0
C      1  0.5154190000000  0.5713860000000  0.5132500000000 1.0
C      1  0.4848380000000  0.4184240000000  0.4938210000000 1.0
C      1  0.4485550000000  0.5878970000000  0.4659820000000 1.0
C      1  0.5997070000000  0.5283690000000  0.4694770000000 1.0
C      1  0.4907260000000  0.4910900000000  0.5225000000000 1.0
C      1  0.4565410000000  0.4523670000000  0.5388440000000 1.0
C      1  0.5566100000000  0.4327430000000  0.4981280000000 1.0
C      1  0.5025270000000  0.5627270000000  0.5370550000000 1.0
C      1  0.4220440000000  0.4818020000000  0.5044280000000 1.0
C      1  0.4975500000000  0.5338260000000  0.5967440000000 1.0
C      1  0.4424860000000  0.4952040000000  0.4315170000000 1.0
C      1  0.5375090000000  0.5294600000000  0.5377930000000 1.0
C      1  0.5307420000000  0.4313910000000  0.4850270000000 1.0
C      1  0.4723850000000  0.4415930000000  0.4809010000000 1.0
C      1  0.4826720000000  0.4141980000000  0.5217360000000 1.0
C      1  0.4946590000000  0.5724690000000  0.4709110000000 1.0
C      1  0.5462770000000  0.4846440000000  0.4490850000000 1.0
C      1  0.5181710000000  0.4571620000000  0.4825780000000 1.0
C      1  0.4006660000000  0.4820290000000  0.3999970000000 1.0
C      1  0.5109460000000  0.4112510000000  0.4838080000000 1.0
C      1  0.5350190000000  0.5800190000000  0.4427120000000 1.0
C      1  0.5231960000000  0.5003030000000  0.4460060000000 1.0
C      1  0.5059730000000  0.4643570000000  0.5709100000000 1.0
C      1  0.5578280000000  0.4601220000000  0.5399600000000 1.0
C      1  0.5560360000000  0.5632440000000  0.4443090000000 1.0
C      1  0.5083180000000  0.5097670000000  0.4681380000000 1.0
END
