TITL C-3866673-4222-687 3.17896553894761e-07 125000 -530.637284647429 0 0 88 (C1) n - 1
REM
REM in /home/nfs/bkarasulu/CARBON/AIRSS/Generating-Clusters/LCBOP/Only-C1/SD-CG/FIRE-CG
REM
REM
REM
REM
REM
REM ./C.cell (11c1c37f851c82e70ff6c80c92926a4b)
REM AIRSS Version 0.9.1 bugfix July 2018 build 013d7b7c2542+ Fri, 06 Jul 2018 19:26:36 +0100
REM compiler GCC version 9.2.1 20190827 (Red Hat 9.2.1-1)
REM options -cpp -mtune=generic -march=x86-64 -g -O0 -fpre-include=/usr/include/finclude/math-vector-fortran.h
REM seed 1996243919 -1779164428 1878366548 -472189048 475917503 -610037723 -1305625471 179723149 -214734647 -623453632 657462177 130530246 -259800177 -1680544568 703984729 -552919241 456780542 -506585788 -1798156647 -97896922 1936133027 -248132305 -1097162407 -1253482460 710162497 -1681945098 561688284 765009810 -903661493 -1491155991 -276205566 -232676022 739282872
REM
CELL 1.54180   50.00000   50.00000   50.00000   90.00000   90.00000   90.00000
LATT -1
SFAC C  
C      1  0.4707400000000  0.4786200000000  0.5239930000000 1.0
C      1  0.4798260000000  0.5179040000000  0.5732200000000 1.0
C      1  0.4162730000000  0.4435820000000  0.4608840000000 1.0
C      1  0.5831920000000  0.5014990000000  0.5071320000000 1.0
C      1  0.4343440000000  0.5186130000000  0.5523690000000 1.0
C      1  0.5042210000000  0.4143280000000  0.5450100000000 1.0
C      1  0.5002150000000  0.4111850000000  0.5161640000000 1.0
C      1  0.4511730000000  0.5931010000000  0.5388800000000 1.0
C      1  0.4094620000000  0.4861110000000  0.5237900000000 1.0
C      1  0.4895690000000  0.4547130000000  0.4391450000000 1.0
C      1  0.4190190000000  0.5310200000000  0.4741700000000 1.0
C      1  0.4975250000000  0.5880220000000  0.5520850000000 1.0
C      1  0.4817840000000  0.4276820000000  0.5578230000000 1.0
C      1  0.4563200000000  0.4882240000000  0.5024030000000 1.0
C      1  0.6263820000000  0.5305680000000  0.5539590000000 1.0
C      1  0.4454150000000  0.5282100000000  0.4298920000000 1.0
C      1  0.4207700000000  0.5132960000000  0.5260370000000 1.0
C      1  0.4421170000000  0.4426090000000  0.4750580000000 1.0
C      1  0.5615630000000  0.4540710000000  0.4631080000000 1.0
C      1  0.5821300000000  0.5488340000000  0.5524270000000 1.0
C      1  0.4441660000000  0.4829510000000  0.4567380000000 1.0
C      1  0.4228110000000  0.5200040000000  0.4472160000000 1.0
C      1  0.5255250000000  0.6012170000000  0.4654350000000 1.0
C      1  0.4734380000000  0.5767720000000  0.5431540000000 1.0
C      1  0.4657160000000  0.4272560000000  0.4694000000000 1.0
C      1  0.4714540000000  0.5489780000000  0.5381490000000 1.0
C      1  0.4805980000000  0.5361780000000  0.5149790000000 1.0
C      1  0.4189200000000  0.4910740000000  0.4466360000000 1.0
C      1  0.4584270000000  0.4246560000000  0.5379310000000 1.0
C      1  0.4940980000000  0.5389410000000  0.4719660000000 1.0
C      1  0.5780190000000  0.4537850000000  0.5437810000000 1.0
C      1  0.4867680000000  0.4502150000000  0.5752940000000 1.0
C      1  0.5443700000000  0.5173580000000  0.4212260000000 1.0
C      1  0.5476470000000  0.5847260000000  0.5112030000000 1.0
C      1  0.6000190000000  0.5275730000000  0.5468580000000 1.0
C      1  0.4301450000000  0.5264430000000  0.5005950000000 1.0
C      1  0.5461220000000  0.4246340000000  0.5126820000000 1.0
C      1  0.4603700000000  0.5310210000000  0.5567800000000 1.0
C      1  0.5515810000000  0.4144180000000  0.4356510000000 1.0
C      1  0.5345800000000  0.5398660000000  0.4930050000000 1.0
C      1  0.5045040000000  0.4719270000000  0.5662300000000 1.0
C      1  0.4636390000000  0.4607470000000  0.5889200000000 1.0
C      1  0.4473280000000  0.4761110000000  0.5716650000000 1.0
C      1  0.4711810000000  0.4118200000000  0.5148220000000 1.0
C      1  0.4480050000000  0.4704930000000  0.4817660000000 1.0
C      1  0.5575470000000  0.5225150000000  0.4465610000000 1.0
C      1  0.5635060000000  0.4355400000000  0.5301840000000 1.0
C      1  0.5185390000000  0.4270110000000  0.4706220000000 1.0
C      1  0.5266240000000  0.4795070000000  0.4743150000000 1.0
C      1  0.4389140000000  0.4459040000000  0.5357940000000 1.0
C      1  0.5908100000000  0.5110960000000  0.4815010000000 1.0
C      1  0.5052670000000  0.5404800000000  0.4992590000000 1.0
C      1  0.4911120000000  0.5038440000000  0.4220820000000 1.0
C      1  0.4982630000000  0.4766860000000  0.5167300000000 1.0
C      1  0.4301630000000  0.4983620000000  0.5724760000000 1.0
C      1  0.5142580000000  0.5905150000000  0.4431180000000 1.0
C      1  0.5213460000000  0.4195310000000  0.4989400000000 1.0
C      1  0.5629150000000  0.4821330000000  0.5047270000000 1.0
C      1  0.5522400000000  0.5577260000000  0.5047110000000 1.0
C      1  0.5780770000000  0.5041830000000  0.4564550000000 1.0
C      1  0.5235740000000  0.5936450000000  0.5518740000000 1.0
C      1  0.5144430000000  0.4715560000000  0.5393500000000 1.0
C      1  0.5204750000000  0.5018530000000  0.4236320000000 1.0
C      1  0.4979080000000  0.4980470000000  0.5760550000000 1.0
C      1  0.5268560000000  0.4842640000000  0.4462390000000 1.0
C      1  0.4296830000000  0.6071050000000  0.5342740000000 1.0
C      1  0.5141700000000  0.5451880000000  0.4533240000000 1.0
C      1  0.4847870000000  0.4928500000000  0.4679210000000 1.0
C      1  0.5921700000000  0.5033230000000  0.5340940000000 1.0
C      1  0.4544500000000  0.4689080000000  0.5446910000000 1.0
C      1  0.5497290000000  0.4686190000000  0.4849680000000 1.0
C      1  0.4732660000000  0.5277570000000  0.4201110000000 1.0
C      1  0.5369530000000  0.6003000000000  0.4899720000000 1.0
C      1  0.5027570000000  0.4822380000000  0.4884470000000 1.0
C      1  0.4745570000000  0.5187860000000  0.4725910000000 1.0
C      1  0.5064840000000  0.5645820000000  0.4344530000000 1.0
C      1  0.4147260000000  0.4589610000000  0.5264110000000 1.0
C      1  0.5773700000000  0.4752230000000  0.4498500000000 1.0
C      1  0.4043050000000  0.4660640000000  0.4490130000000 1.0
C      1  0.5395730000000  0.5364860000000  0.4641820000000 1.0
C      1  0.5890240000000  0.4782400000000  0.5476920000000 1.0
C      1  0.4918910000000  0.4338100000000  0.4588630000000 1.0
C      1  0.4836000000000  0.4826380000000  0.4411810000000 1.0
C      1  0.4595340000000  0.5190260000000  0.4985710000000 1.0
C      1  0.5676040000000  0.5714590000000  0.5525040000000 1.0
C      1  0.5480600000000  0.5876940000000  0.5396390000000 1.0
C      1  0.5443300000000  0.4315610000000  0.4558430000000 1.0
C      1  0.4866660000000  0.5534260000000  0.4171530000000 1.0
END
