TITL C-3866672-3872-246 0.517211128280724 125000 -227.803167858187 0 0 40 (C1) n - 1
REM
REM in /home/nfs/bkarasulu/CARBON/AIRSS/Generating-Clusters/LCBOP/Only-C1/SD-CG/HFTN-CG/FIRE-CG
REM
REM
REM
REM
REM
REM ./C.cell (11c1c37f851c82e70ff6c80c92926a4b)
REM AIRSS Version 0.9.1 bugfix July 2018 build 013d7b7c2542+ Fri, 06 Jul 2018 19:26:36 +0100
REM compiler GCC version 9.2.1 20190827 (Red Hat 9.2.1-1)
REM options -cpp -mtune=generic -march=x86-64 -g -O0 -fpre-include=/usr/include/finclude/math-vector-fortran.h
REM seed 262455993 -40868857 2004032948 -1468606214 -1200655298 -1573117564 1159889291 -414562319 -1574418281 -66588783 -433346555 1691382606 -1667409445 -5585642 -237922423 1102090600 1958254395 1439687888 1270746858 -304634077 2038987502 495421485 -1232418901 -839491348 -1258669556 1985059349 508338527 -2107157770 -1215939979 1580343748 -413525943 737398186 1297517730
REM
CELL 1.54180   50.00000   50.00000   50.00000   90.00000   90.00000   90.00000
LATT -1
SFAC C  
C      1  0.5359490000000  0.5826740000000  0.4996330000000 1.0
C      1  0.4775580000000  0.5438470000000  0.4958970000000 1.0
C      1  0.5609180000000  0.5061540000000  0.4475880000000 1.0
C      1  0.5024290000000  0.4141840000000  0.4932240000000 1.0
C      1  0.4858880000000  0.4357440000000  0.4962420000000 1.0
C      1  0.5676860000000  0.5362920000000  0.5086560000000 1.0
C      1  0.5211700000000  0.5528250000000  0.5397490000000 1.0
C      1  0.5205130000000  0.5264480000000  0.5453170000000 1.0
C      1  0.4573550000000  0.5454370000000  0.5151510000000 1.0
C      1  0.5209870000000  0.5248490000000  0.4844730000000 1.0
C      1  0.4391530000000  0.4968920000000  0.5307030000000 1.0
C      1  0.4491270000000  0.5697310000000  0.5246240000000 1.0
C      1  0.5265480000000  0.5734690000000  0.5232160000000 1.0
C      1  0.5230610000000  0.4972120000000  0.4777850000000 1.0
C      1  0.4795260000000  0.4625800000000  0.4565150000000 1.0
C      1  0.5717930000000  0.4934660000000  0.4258770000000 1.0
C      1  0.5560580000000  0.5597080000000  0.4573930000000 1.0
C      1  0.4949450000000  0.5489620000000  0.4511710000000 1.0
C      1  0.4904310000000  0.4596360000000  0.4814540000000 1.0
C      1  0.5436020000000  0.5339650000000  0.4985890000000 1.0
C      1  0.4133130000000  0.4065790000000  0.5572790000000 1.0
C      1  0.4432970000000  0.4431970000000  0.5304840000000 1.0
C      1  0.5058130000000  0.4802940000000  0.4929920000000 1.0
C      1  0.4979750000000  0.5396090000000  0.4773270000000 1.0
C      1  0.5052730000000  0.4864910000000  0.5207650000000 1.0
C      1  0.4941730000000  0.5649350000000  0.4011160000000 1.0
C      1  0.4457740000000  0.5218250000000  0.5246570000000 1.0
C      1  0.5496130000000  0.4905520000000  0.4689670000000 1.0
C      1  0.4379630000000  0.4705190000000  0.5330070000000 1.0
C      1  0.5607100000000  0.5346310000000  0.4487000000000 1.0
C      1  0.5652980000000  0.4781750000000  0.5158550000000 1.0
C      1  0.5242890000000  0.4994570000000  0.5374990000000 1.0
C      1  0.3843460000000  0.3711590000000  0.5831750000000 1.0
C      1  0.5501520000000  0.4877590000000  0.5360530000000 1.0
C      1  0.3987090000000  0.3887220000000  0.5703340000000 1.0
C      1  0.4279070000000  0.4244230000000  0.5442320000000 1.0
C      1  0.4642890000000  0.4349850000000  0.5139780000000 1.0
C      1  0.5469500000000  0.5775360000000  0.4755050000000 1.0
C      1  0.5654870000000  0.4780460000000  0.4888610000000 1.0
C      1  0.4939710000000  0.5570350000000  0.4259580000000 1.0
END
