TITL C-3866669-3764-776 2.03017138052597e-07 125000 -121.933338389425 0 0 22 (C1) n - 1
REM
REM in /home/nfs/bkarasulu/CARBON/AIRSS/Generating-Clusters/LCBOP/Only-C1/SD-CG/FIRE-CG
REM
REM
REM
REM
REM
REM ./C.cell (11c1c37f851c82e70ff6c80c92926a4b)
REM AIRSS Version 0.9.1 bugfix July 2018 build 013d7b7c2542+ Fri, 06 Jul 2018 19:26:36 +0100
REM compiler GCC version 9.2.1 20190827 (Red Hat 9.2.1-1)
REM options -cpp -mtune=generic -march=x86-64 -g -O0 -fpre-include=/usr/include/finclude/math-vector-fortran.h
REM seed 500859001 -261581072 -911109968 73505567 -2099035507 1822187136 -205866452 17749322 -1056643989 -922187192 1435071790 1381554438 -1408130075 -1763554403 -1038601493 -1968788527 1358479136 51513709 -2132985908 -1166926630 596429796 -854242629 1790948339 1684363229 -1371875727 590504799 60411107 -1285835008 1208147748 -309400420 -1897397427 380035558 -855417602
REM
CELL 1.54180   50.00000   50.00000   50.00000   90.00000   90.00000   90.00000
LATT -1
SFAC C  
C      1  0.4681570000000  0.4530940000000  0.4925910000000 1.0
C      1  0.4966000000000  0.4474900000000  0.4973970000000 1.0
C      1  0.5416520000000  0.5240550000000  0.5123510000000 1.0
C      1  0.5383890000000  0.5071220000000  0.5325830000000 1.0
C      1  0.5136350000000  0.4244890000000  0.5372070000000 1.0
C      1  0.5070250000000  0.5359350000000  0.4802020000000 1.0
C      1  0.4227620000000  0.5336000000000  0.5201370000000 1.0
C      1  0.4938940000000  0.5184020000000  0.4370460000000 1.0
C      1  0.4404340000000  0.5145670000000  0.5179950000000 1.0
C      1  0.5343930000000  0.5360260000000  0.4881160000000 1.0
C      1  0.5088660000000  0.4677630000000  0.4801610000000 1.0
C      1  0.4599160000000  0.4950550000000  0.5150390000000 1.0
C      1  0.4903220000000  0.5560710000000  0.4883100000000 1.0
C      1  0.5042890000000  0.4468980000000  0.5248250000000 1.0
C      1  0.5536480000000  0.5478540000000  0.4717460000000 1.0
C      1  0.4762550000000  0.4857630000000  0.5363520000000 1.0
C      1  0.4658180000000  0.4823650000000  0.4901900000000 1.0
C      1  0.4970620000000  0.5147360000000  0.4639840000000 1.0
C      1  0.5238860000000  0.4876400000000  0.5435630000000 1.0
C      1  0.4906980000000  0.4901540000000  0.4758770000000 1.0
C      1  0.5711950000000  0.5588130000000  0.4558980000000 1.0
C      1  0.5011040000000  0.4721050000000  0.5384290000000 1.0
END
