TITL C-3866670-4165-676 -0.0504819435220957 125000 -205.74758720008 0 0 34 (C1) n - 1
REM
REM in /home/nfs/bkarasulu/CARBON/AIRSS/Generating-Clusters/LCBOP/Only-C1/SD-CG/FIRE-CG
REM
REM
REM
REM
REM
REM ./C.cell (11c1c37f851c82e70ff6c80c92926a4b)
REM AIRSS Version 0.9.1 bugfix July 2018 build 013d7b7c2542+ Fri, 06 Jul 2018 19:26:36 +0100
REM compiler GCC version 9.2.1 20190827 (Red Hat 9.2.1-1)
REM options -cpp -mtune=generic -march=x86-64 -g -O0 -fpre-include=/usr/include/finclude/math-vector-fortran.h
REM seed -1582498451 1254921936 140014156 1681053661 -2136889291 623005961 -1675395178 1179451169 -1156950139 -851574218 -764313959 -642380246 1523025267 1787928398 481659039 116628144 548451150 -1655872476 -878201397 925212259 -1105572420 -986997465 807434762 -553522233 536010670 527482937 -391467706 -1251178254 -1022962595 1085273480 -2105871717 319036583 65673320
REM
CELL 1.54180   50.00000   50.00000   50.00000   90.00000   90.00000   90.00000
LATT -1
SFAC C  
C      1  0.5071890000000  0.5135640000000  0.4960730000000 1.0
C      1  0.5237280000000  0.5743230000000  0.5025920000000 1.0
C      1  0.5241970000000  0.5960210000000  0.4474240000000 1.0
C      1  0.5004300000000  0.5087840000000  0.5230840000000 1.0
C      1  0.5359360000000  0.6400380000000  0.4702560000000 1.0
C      1  0.5140590000000  0.4904800000000  0.4801710000000 1.0
C      1  0.4865000000000  0.4902980000000  0.5367250000000 1.0
C      1  0.4833350000000  0.3532250000000  0.5844600000000 1.0
C      1  0.4862790000000  0.3755290000000  0.5704560000000 1.0
C      1  0.4442030000000  0.4745560000000  0.4903390000000 1.0
C      1  0.4750410000000  0.4811920000000  0.4534300000000 1.0
C      1  0.5237930000000  0.4672470000000  0.4927030000000 1.0
C      1  0.4519310000000  0.5188230000000  0.4711250000000 1.0
C      1  0.4947300000000  0.4435920000000  0.5278220000000 1.0
C      1  0.5241700000000  0.5243810000000  0.4254420000000 1.0
C      1  0.5395410000000  0.6403840000000  0.4968300000000 1.0
C      1  0.4706440000000  0.5375260000000  0.4760570000000 1.0
C      1  0.4977750000000  0.5377330000000  0.4839190000000 1.0
C      1  0.5024310000000  0.4880660000000  0.4541040000000 1.0
C      1  0.5216950000000  0.5688360000000  0.4536840000000 1.0
C      1  0.4759180000000  0.4650290000000  0.5296960000000 1.0
C      1  0.5160970000000  0.4483150000000  0.5100390000000 1.0
C      1  0.4803900000000  0.3309160000000  0.5984680000000 1.0
C      1  0.4892220000000  0.3978320000000  0.5564520000000 1.0
C      1  0.4921220000000  0.4201310000000  0.5424540000000 1.0
C      1  0.4535320000000  0.4906510000000  0.4692870000000 1.0
C      1  0.5152470000000  0.5002510000000  0.4324790000000 1.0
C      1  0.5262940000000  0.5495110000000  0.4339360000000 1.0
C      1  0.4526780000000  0.4647510000000  0.5138100000000 1.0
C      1  0.5315080000000  0.5955230000000  0.5166970000000 1.0
C      1  0.5145220000000  0.5603000000000  0.4801110000000 1.0
C      1  0.5377220000000  0.6215110000000  0.5157980000000 1.0
C      1  0.5296480000000  0.6217090000000  0.4518340000000 1.0
C      1  0.4774940000000  0.3089740000000  0.6122450000000 1.0
END
