TITL C-3866675-3766-633 35.8365684212495 125000 -682.262359683005 0 0 112 (C1) n - 1
REM
REM in /home/nfs/bkarasulu/CARBON/AIRSS/Generating-Clusters/LCBOP/Only-C1/SD-CG/FIRE-CG
REM
REM
REM
REM
REM
REM ./C.cell (11c1c37f851c82e70ff6c80c92926a4b)
REM AIRSS Version 0.9.1 bugfix July 2018 build 013d7b7c2542+ Fri, 06 Jul 2018 19:26:36 +0100
REM compiler GCC version 9.2.1 20190827 (Red Hat 9.2.1-1)
REM options -cpp -mtune=generic -march=x86-64 -g -O0 -fpre-include=/usr/include/finclude/math-vector-fortran.h
REM seed -637910815 -245216524 -480162537 1679016448 107790984 942363484 1805602278 627910527 -607930793 1855965310 -1135255091 -1764271488 -213326068 1226683350 874366680 -1157500203 -448748644 -1953963244 341763304 -1084043619 -1066522351 -1145484516 -1058954243 -189385814 -118570185 549248658 -1454882755 881908862 -773033042 411451506 441998728 624844983 -309999095
REM
CELL 1.54180   50.00000   50.00000   50.00000   90.00000   90.00000   90.00000
LATT -1
SFAC C  
C      1  0.4540270000000  0.4381230000000  0.5742280000000 1.0
C      1  0.5718940000000  0.4522860000000  0.6067060000000 1.0
C      1  0.5089580000000  0.5817180000000  0.4828520000000 1.0
C      1  0.5333620000000  0.5358180000000  0.4008640000000 1.0
C      1  0.4828600000000  0.4811700000000  0.5375200000000 1.0
C      1  0.4932510000000  0.4977320000000  0.5585370000000 1.0
C      1  0.4486430000000  0.4842250000000  0.5070510000000 1.0
C      1  0.6076330000000  0.4776920000000  0.4645220000000 1.0
C      1  0.5438190000000  0.4621030000000  0.4301920000000 1.0
C      1  0.5025010000000  0.5231920000000  0.5474890000000 1.0
C      1  0.4309420000000  0.4551800000000  0.5748920000000 1.0
C      1  0.4856850000000  0.4512990000000  0.4541530000000 1.0
C      1  0.4361740000000  0.4106660000000  0.5068200000000 1.0
C      1  0.4835620000000  0.5363190000000  0.5286880000000 1.0
C      1  0.5480850000000  0.4518360000000  0.5923710000000 1.0
C      1  0.4801740000000  0.4518020000000  0.5284330000000 1.0
C      1  0.4257690000000  0.4816740000000  0.5721970000000 1.0
C      1  0.5293600000000  0.4175830000000  0.4898040000000 1.0
C      1  0.5609820000000  0.5527560000000  0.5072430000000 1.0
C      1  0.5095380000000  0.5367710000000  0.5729450000000 1.0
C      1  0.5911640000000  0.5169000000000  0.4968830000000 1.0
C      1  0.4536210000000  0.4900140000000  0.5352090000000 1.0
C      1  0.4550620000000  0.5085550000000  0.4922520000000 1.0
C      1  0.5051500000000  0.4308930000000  0.4505360000000 1.0
C      1  0.4614090000000  0.4571160000000  0.5034420000000 1.0
C      1  0.4611170000000  0.5313090000000  0.5095820000000 1.0
C      1  0.5224350000000  0.4241370000000  0.5161500000000 1.0
C      1  0.4880500000000  0.4745200000000  0.4377610000000 1.0
C      1  0.5505660000000  0.5783850000000  0.5453000000000 1.0
C      1  0.5076240000000  0.4410000000000  0.5330650000000 1.0
C      1  0.5242760000000  0.4547000000000  0.5513730000000 1.0
C      1  0.4552110000000  0.4175350000000  0.5532950000000 1.0
C      1  0.5017340000000  0.4890380000000  0.5150820000000 1.0
C      1  0.5113120000000  0.5528400000000  0.3970190000000 1.0
C      1  0.4880380000000  0.5979790000000  0.4718830000000 1.0
C      1  0.5174960000000  0.5601070000000  0.4665420000000 1.0
C      1  0.5714830000000  0.5619730000000  0.5525250000000 1.0
C      1  0.5579630000000  0.4897110000000  0.5600250000000 1.0
C      1  0.5482500000000  0.4904350000000  0.5121310000000 1.0
C      1  0.4459840000000  0.4966990000000  0.4440430000000 1.0
C      1  0.4753300000000  0.4487340000000  0.5910540000000 1.0
C      1  0.4099600000000  0.5801700000000  0.4406490000000 1.0
C      1  0.5304060000000  0.5956480000000  0.3850990000000 1.0
C      1  0.5949150000000  0.4540740000000  0.6196970000000 1.0
C      1  0.3990660000000  0.5061080000000  0.4413160000000 1.0
C      1  0.5270140000000  0.4950150000000  0.4680910000000 1.0
C      1  0.5013080000000  0.4710530000000  0.4932090000000 1.0
C      1  0.6068350000000  0.4990860000000  0.4825950000000 1.0
C      1  0.4219930000000  0.4321340000000  0.4444450000000 1.0
C      1  0.5638130000000  0.4807060000000  0.4405460000000 1.0
C      1  0.4264870000000  0.5934950000000  0.4568800000000 1.0
C      1  0.4978230000000  0.5940760000000  0.4203710000000 1.0
C      1  0.4869410000000  0.5188880000000  0.4570960000000 1.0
C      1  0.5425970000000  0.5553490000000  0.4539360000000 1.0
C      1  0.3924400000000  0.5314390000000  0.4363220000000 1.0
C      1  0.5468180000000  0.4807520000000  0.4847100000000 1.0
C      1  0.6311270000000  0.4684020000000  0.4542090000000 1.0
C      1  0.4866960000000  0.5419510000000  0.3894240000000 1.0
C      1  0.4635530000000  0.5464090000000  0.5692560000000 1.0
C      1  0.4831150000000  0.5319250000000  0.5869950000000 1.0
C      1  0.4311310000000  0.5689760000000  0.4973310000000 1.0
C      1  0.4084120000000  0.4180340000000  0.4252610000000 1.0
C      1  0.5352770000000  0.5310770000000  0.5825820000000 1.0
C      1  0.4344480000000  0.4162370000000  0.5333000000000 1.0
C      1  0.4712760000000  0.6014830000000  0.5167530000000 1.0
C      1  0.4159980000000  0.4594760000000  0.4481570000000 1.0
C      1  0.5402570000000  0.5716940000000  0.5189190000000 1.0
C      1  0.4626580000000  0.5341010000000  0.3831190000000 1.0
C      1  0.4814850000000  0.4035880000000  0.4891100000000 1.0
C      1  0.5237490000000  0.5063160000000  0.5126400000000 1.0
C      1  0.4388750000000  0.5015310000000  0.5568680000000 1.0
C      1  0.5040070000000  0.4954720000000  0.4493880000000 1.0
C      1  0.4532220000000  0.4095770000000  0.4836660000000 1.0
C      1  0.4774160000000  0.5609040000000  0.5449790000000 1.0
C      1  0.3971470000000  0.5575980000000  0.4345770000000 1.0
C      1  0.5533320000000  0.5118400000000  0.5771770000000 1.0
C      1  0.5724200000000  0.5358180000000  0.4851640000000 1.0
C      1  0.4415920000000  0.4189070000000  0.4598570000000 1.0
C      1  0.4638470000000  0.4834910000000  0.4262020000000 1.0
C      1  0.5547370000000  0.4251240000000  0.4793990000000 1.0
C      1  0.4799570000000  0.4570710000000  0.4811850000000 1.0
C      1  0.4848610000000  0.3953230000000  0.5170430000000 1.0
C      1  0.4892780000000  0.5827130000000  0.5288550000000 1.0
C      1  0.5827200000000  0.4662770000000  0.4573280000000 1.0
C      1  0.4651730000000  0.6012060000000  0.4887340000000 1.0
C      1  0.5251690000000  0.4380840000000  0.6015720000000 1.0
C      1  0.4193510000000  0.4872800000000  0.4452960000000 1.0
C      1  0.4770650000000  0.4016320000000  0.5426950000000 1.0
C      1  0.4986630000000  0.4351700000000  0.5988890000000 1.0
C      1  0.5507430000000  0.5200230000000  0.4135830000000 1.0
C      1  0.4401950000000  0.5899750000000  0.4810100000000 1.0
C      1  0.5852680000000  0.5159840000000  0.5257270000000 1.0
C      1  0.5667100000000  0.4953020000000  0.5330880000000 1.0
C      1  0.4599940000000  0.5113840000000  0.4643240000000 1.0
C      1  0.5058230000000  0.4128330000000  0.4734520000000 1.0
C      1  0.5613240000000  0.5109090000000  0.4386760000000 1.0
C      1  0.5039920000000  0.5362140000000  0.4722200000000 1.0
C      1  0.5733870000000  0.4417750000000  0.4691250000000 1.0
C      1  0.4889620000000  0.6022310000000  0.4441840000000 1.0
C      1  0.5133290000000  0.5810830000000  0.4008120000000 1.0
C      1  0.4821860000000  0.5014750000000  0.5853330000000 1.0
C      1  0.4397490000000  0.5306390000000  0.5601850000000 1.0
C      1  0.5770830000000  0.5430840000000  0.5318720000000 1.0
C      1  0.6176070000000  0.4560030000000  0.6323850000000 1.0
C      1  0.5136410000000  0.5790710000000  0.5115640000000 1.0
C      1  0.4749940000000  0.4770330000000  0.5973740000000 1.0
C      1  0.5276520000000  0.4405560000000  0.4351770000000 1.0
C      1  0.4377250000000  0.5480820000000  0.5142740000000 1.0
C      1  0.5614240000000  0.5336100000000  0.4587530000000 1.0
C      1  0.4255430000000  0.5442360000000  0.5394900000000 1.0
C      1  0.5451210000000  0.4650070000000  0.5671720000000 1.0
C      1  0.5206280000000  0.5182830000000  0.4866610000000 1.0
END
