TITL C-3866672-3872-586 -150.256311548427 125000 -965.45975915387 0 0 157 (C1) n - 1
REM
REM in /home/nfs/bkarasulu/CARBON/AIRSS/Generating-Clusters/LCBOP/Only-C1/SD-CG/FIRE-CG
REM
REM
REM
REM
REM
REM ./C.cell (11c1c37f851c82e70ff6c80c92926a4b)
REM AIRSS Version 0.9.1 bugfix July 2018 build 013d7b7c2542+ Fri, 06 Jul 2018 19:26:36 +0100
REM compiler GCC version 9.2.1 20190827 (Red Hat 9.2.1-1)
REM options -cpp -mtune=generic -march=x86-64 -g -O0 -fpre-include=/usr/include/finclude/math-vector-fortran.h
REM seed 2019634491 681492124 -2113837612 552275949 -1602029607 -1783419643 -948422395 1213585937 1105845548 130721967 -332029659 1412770046 886849164 -484053055 1069141755 1106996937 312204773 -967639279 1447283588 1418476430 148296534 1455348105 287060401 -1125341132 -630086404 2127963093 -1665133001 923610576 207647963 210374013 -837708994 694473594 -1036676571
REM
CELL 1.54180   50.00000   50.00000   50.00000   90.00000   90.00000   90.00000
LATT -1
SFAC C  
C      1  0.4863680000000  0.5344060000000  0.4760080000000 1.0
C      1  0.5359020000000  0.4567350000000  0.4043590000000 1.0
C      1  0.4285420000000  0.5841540000000  0.5697000000000 1.0
C      1  0.5558030000000  0.5097220000000  0.4726640000000 1.0
C      1  0.4190160000000  0.5333550000000  0.4387720000000 1.0
C      1  0.5447580000000  0.5292400000000  0.4906670000000 1.0
C      1  0.4373140000000  0.5178970000000  0.4213670000000 1.0
C      1  0.4491090000000  0.6048420000000  0.4242280000000 1.0
C      1  0.3907760000000  0.5078700000000  0.4629150000000 1.0
C      1  0.5601330000000  0.3942710000000  0.4368710000000 1.0
C      1  0.5386340000000  0.6184120000000  0.5042720000000 1.0
C      1  0.4744920000000  0.6043360000000  0.5452210000000 1.0
C      1  0.5183500000000  0.5697190000000  0.4752350000000 1.0
C      1  0.5354450000000  0.3979570000000  0.3493300000000 1.0
C      1  0.5200280000000  0.4383560000000  0.5350200000000 1.0
C      1  0.4287080000000  0.5284590000000  0.5630460000000 1.0
C      1  0.4606000000000  0.4685620000000  0.4180550000000 1.0
C      1  0.4509170000000  0.4900110000000  0.5868770000000 1.0
C      1  0.5394290000000  0.4942600000000  0.4548760000000 1.0
C      1  0.4729140000000  0.4052770000000  0.5907820000000 1.0
C      1  0.4791250000000  0.5867690000000  0.5684030000000 1.0
C      1  0.5358950000000  0.5775680000000  0.5658970000000 1.0
C      1  0.4478070000000  0.3867220000000  0.5551180000000 1.0
C      1  0.5869600000000  0.5436210000000  0.4804800000000 1.0
C      1  0.5075770000000  0.4900790000000  0.4864630000000 1.0
C      1  0.5654900000000  0.4565410000000  0.5002660000000 1.0
C      1  0.4989380000000  0.4675260000000  0.5818480000000 1.0
C      1  0.3995000000000  0.4925720000000  0.4845750000000 1.0
C      1  0.4599060000000  0.5339620000000  0.4157460000000 1.0
C      1  0.4594150000000  0.5581280000000  0.4306980000000 1.0
C      1  0.4844830000000  0.5011940000000  0.4456100000000 1.0
C      1  0.4671920000000  0.5974420000000  0.4051950000000 1.0
C      1  0.4309780000000  0.4992430000000  0.5681900000000 1.0
C      1  0.5201010000000  0.4859550000000  0.5379160000000 1.0
C      1  0.4793180000000  0.4994090000000  0.5226980000000 1.0
C      1  0.4751290000000  0.5135010000000  0.5472600000000 1.0
C      1  0.5240240000000  0.5271770000000  0.5098150000000 1.0
C      1  0.4465460000000  0.5072850000000  0.4801950000000 1.0
C      1  0.5689850000000  0.4447870000000  0.5263310000000 1.0
C      1  0.4993830000000  0.5265170000000  0.5924120000000 1.0
C      1  0.4625520000000  0.4311650000000  0.5866070000000 1.0
C      1  0.4855190000000  0.5889860000000  0.4972050000000 1.0
C      1  0.4763360000000  0.4599790000000  0.5443760000000 1.0
C      1  0.5549510000000  0.5543930000000  0.5706850000000 1.0
C      1  0.5587740000000  0.5104290000000  0.5968310000000 1.0
C      1  0.6525330000000  0.5465360000000  0.5129660000000 1.0
C      1  0.4696340000000  0.4718680000000  0.5197200000000 1.0
C      1  0.4347660000000  0.4146300000000  0.4640420000000 1.0
C      1  0.4253420000000  0.4951500000000  0.4953100000000 1.0
C      1  0.4918210000000  0.5295310000000  0.5641210000000 1.0
C      1  0.4893710000000  0.6338680000000  0.5098910000000 1.0
C      1  0.5365180000000  0.4371790000000  0.3842980000000 1.0
C      1  0.4222070000000  0.4802130000000  0.5482870000000 1.0
C      1  0.4437420000000  0.4035980000000  0.4866470000000 1.0
C      1  0.4622310000000  0.4453880000000  0.5636850000000 1.0
C      1  0.4114010000000  0.4763690000000  0.4272840000000 1.0
C      1  0.4872610000000  0.5301910000000  0.4067210000000 1.0
C      1  0.5651450000000  0.4637270000000  0.5762810000000 1.0
C      1  0.4143250000000  0.5798460000000  0.4934240000000 1.0
C      1  0.4368140000000  0.4883000000000  0.4184210000000 1.0
C      1  0.4355760000000  0.4351760000000  0.4450470000000 1.0
C      1  0.4149180000000  0.5740300000000  0.5464340000000 1.0
C      1  0.4809350000000  0.3950970000000  0.6146150000000 1.0
C      1  0.5015820000000  0.4706710000000  0.5539700000000 1.0
C      1  0.4544960000000  0.5727240000000  0.5767000000000 1.0
C      1  0.5203770000000  0.4404890000000  0.5074940000000 1.0
C      1  0.5303060000000  0.5092700000000  0.4302720000000 1.0
C      1  0.5442340000000  0.5945610000000  0.5442460000000 1.0
C      1  0.5077730000000  0.5823840000000  0.5748820000000 1.0
C      1  0.5819310000000  0.5196590000000  0.4615570000000 1.0
C      1  0.5749100000000  0.4894510000000  0.5861650000000 1.0
C      1  0.5377330000000  0.3813050000000  0.4445270000000 1.0
C      1  0.5269210000000  0.6128350000000  0.5304340000000 1.0
C      1  0.5628310000000  0.4163100000000  0.5280930000000 1.0
C      1  0.5596410000000  0.5538080000000  0.4832230000000 1.0
C      1  0.5175550000000  0.4859960000000  0.6174200000000 1.0
C      1  0.5496800000000  0.6034390000000  0.4842910000000 1.0
C      1  0.5589440000000  0.4084540000000  0.5556790000000 1.0
C      1  0.5551770000000  0.5204910000000  0.4202750000000 1.0
C      1  0.5089590000000  0.5006780000000  0.5144630000000 1.0
C      1  0.5967270000000  0.5013150000000  0.5720560000000 1.0
C      1  0.4847780000000  0.5798000000000  0.3940230000000 1.0
C      1  0.4866140000000  0.4751620000000  0.3765360000000 1.0
C      1  0.5736050000000  0.4069320000000  0.4806300000000 1.0
C      1  0.4970430000000  0.5098940000000  0.4694550000000 1.0
C      1  0.5087930000000  0.4565370000000  0.4466130000000 1.0
C      1  0.4552420000000  0.4040260000000  0.5122470000000 1.0
C      1  0.4054300000000  0.5511180000000  0.4895700000000 1.0
C      1  0.4853790000000  0.6163200000000  0.4893290000000 1.0
C      1  0.4039480000000  0.5381610000000  0.5161130000000 1.0
C      1  0.4932740000000  0.4014840000000  0.5467110000000 1.0
C      1  0.5263200000000  0.3982200000000  0.4910640000000 1.0
C      1  0.5454250000000  0.5766630000000  0.4755550000000 1.0
C      1  0.4224240000000  0.5945970000000  0.4699400000000 1.0
C      1  0.5881210000000  0.4688450000000  0.4897810000000 1.0
C      1  0.5647890000000  0.4636050000000  0.5474190000000 1.0
C      1  0.4954400000000  0.5545000000000  0.3935870000000 1.0
C      1  0.5478310000000  0.4849650000000  0.5395630000000 1.0
C      1  0.4131660000000  0.4491250000000  0.4349880000000 1.0
C      1  0.4776780000000  0.4841520000000  0.5941250000000 1.0
C      1  0.4480920000000  0.5446690000000  0.5777610000000 1.0
C      1  0.4604260000000  0.5316050000000  0.4876510000000 1.0
C      1  0.5432810000000  0.4473490000000  0.5872860000000 1.0
C      1  0.4945300000000  0.5031210000000  0.6081470000000 1.0
C      1  0.4791220000000  0.5691220000000  0.4451140000000 1.0
C      1  0.5795580000000  0.5097740000000  0.4331410000000 1.0
C      1  0.5601930000000  0.4699710000000  0.4106330000000 1.0
C      1  0.4030230000000  0.5347750000000  0.4632050000000 1.0
C      1  0.4877240000000  0.4822880000000  0.3514970000000 1.0
C      1  0.4379220000000  0.4044900000000  0.5352350000000 1.0
C      1  0.4341170000000  0.6026220000000  0.4468180000000 1.0
C      1  0.5765480000000  0.4112130000000  0.4525380000000 1.0
C      1  0.5894960000000  0.4336430000000  0.4413350000000 1.0
C      1  0.4860430000000  0.4687950000000  0.4037520000000 1.0
C      1  0.5990960000000  0.5513240000000  0.5063100000000 1.0
C      1  0.4163560000000  0.4522620000000  0.5498390000000 1.0
C      1  0.5826970000000  0.5616320000000  0.5290410000000 1.0
C      1  0.5360600000000  0.4175290000000  0.3665380000000 1.0
C      1  0.4626820000000  0.5783980000000  0.5078280000000 1.0
C      1  0.5476380000000  0.5361770000000  0.5917780000000 1.0
C      1  0.6035300000000  0.4701100000000  0.4680380000000 1.0
C      1  0.4540240000000  0.5523130000000  0.5045470000000 1.0
C      1  0.5017400000000  0.5120680000000  0.4240410000000 1.0
C      1  0.5384540000000  0.4550260000000  0.4901900000000 1.0
C      1  0.5217570000000  0.5407330000000  0.6016600000000 1.0
C      1  0.6268600000000  0.5492330000000  0.5094010000000 1.0
C      1  0.5383220000000  0.4211340000000  0.5725090000000 1.0
C      1  0.3910390000000  0.4931020000000  0.4383280000000 1.0
C      1  0.5127800000000  0.5512980000000  0.5205160000000 1.0
C      1  0.4970670000000  0.5569670000000  0.4622440000000 1.0
C      1  0.5540810000000  0.4042450000000  0.5019400000000 1.0
C      1  0.5078720000000  0.5725750000000  0.5020580000000 1.0
C      1  0.5247020000000  0.4718620000000  0.4688030000000 1.0
C      1  0.4841250000000  0.4048720000000  0.5183490000000 1.0
C      1  0.5814980000000  0.4807550000000  0.4265760000000 1.0
C      1  0.4828070000000  0.4357970000000  0.4813350000000 1.0
C      1  0.4508730000000  0.5960050000000  0.5269380000000 1.0
C      1  0.5032090000000  0.4181370000000  0.4968740000000 1.0
C      1  0.5109360000000  0.4611860000000  0.4179590000000 1.0
C      1  0.5042730000000  0.5484430000000  0.5469670000000 1.0
C      1  0.4131140000000  0.5446320000000  0.5428900000000 1.0
C      1  0.4844910000000  0.4431120000000  0.4542070000000 1.0
C      1  0.5683150000000  0.5862280000000  0.5305360000000 1.0
C      1  0.5147270000000  0.4190040000000  0.5549020000000 1.0
C      1  0.4684680000000  0.4546690000000  0.4976920000000 1.0
C      1  0.4605920000000  0.4473020000000  0.4385030000000 1.0
C      1  0.4738640000000  0.3915060000000  0.5658250000000 1.0
C      1  0.5779220000000  0.5467300000000  0.5533730000000 1.0
C      1  0.4579920000000  0.4954810000000  0.4564560000000 1.0
C      1  0.4220080000000  0.5889110000000  0.5222390000000 1.0
C      1  0.5952600000000  0.5254290000000  0.5599780000000 1.0
C      1  0.4213900000000  0.4268270000000  0.5417400000000 1.0
C      1  0.4978720000000  0.6200300000000  0.5338580000000 1.0
C      1  0.5243380000000  0.3819330000000  0.4678950000000 1.0
C      1  0.4263440000000  0.4893560000000  0.5222410000000 1.0
C      1  0.5952010000000  0.4614660000000  0.4426650000000 1.0
C      1  0.5218090000000  0.4633290000000  0.5989990000000 1.0
END
