TITL C-3866669-3764-650 51235.1014705286 125000 -1132.96469393667 0 0 184 (C1) n - 1
REM
REM in /home/nfs/bkarasulu/CARBON/AIRSS/Generating-Clusters/LCBOP/Only-C1/SD-CG/FIRE-CG
REM
REM
REM
REM
REM
REM ./C.cell (11c1c37f851c82e70ff6c80c92926a4b)
REM AIRSS Version 0.9.1 bugfix July 2018 build 013d7b7c2542+ Fri, 06 Jul 2018 19:26:36 +0100
REM compiler GCC version 9.2.1 20190827 (Red Hat 9.2.1-1)
REM options -cpp -mtune=generic -march=x86-64 -g -O0 -fpre-include=/usr/include/finclude/math-vector-fortran.h
REM seed 1468417570 -704825183 1457705775 -1476737151 2026057860 -84773064 -1470539443 -579482644 -22236420 -1836895474 1316656777 -370301705 974083886 -1045797262 558048646 -1547994975 1610548702 256374540 1736624450 201119451 -436012442 -1270300488 -1637143617 -231237221 1351778761 -1375055188 878085624 -279044177 -42407313 -760007965 -2074572862 -1697787050 -33928555
REM
CELL 1.54180   50.00000   50.00000   50.00000   90.00000   90.00000   90.00000
LATT -1
SFAC C  
C      1  0.4923560000000  0.4734710000000  0.6013580000000 1.0
C      1  0.4486800000000  0.5191250000000  0.3989640000000 1.0
C      1  0.4713180000000  0.6060240000000  0.4551980000000 1.0
C      1  0.4107450000000  0.5991740000000  0.4708820000000 1.0
C      1  0.4797230000000  0.5292870000000  0.6097290000000 1.0
C      1  0.5722920000000  0.5931050000000  0.5290550000000 1.0
C      1  0.5850600000000  0.4300300000000  0.5306490000000 1.0
C      1  0.5594190000000  0.5381230000000  0.5075540000000 1.0
C      1  0.5693900000000  0.6321600000000  0.4665090000000 1.0
C      1  0.3834170000000  0.4516940000000  0.4879600000000 1.0
C      1  0.3813330000000  0.4983340000000  0.4319820000000 1.0
C      1  0.5899510000000  0.5315560000000  0.4279570000000 1.0
C      1  0.4132610000000  0.4235400000000  0.4623230000000 1.0
C      1  0.4402250000000  0.6332670000000  0.4289270000000 1.0
C      1  0.4635710000000  0.4946330000000  0.4016910000000 1.0
C      1  0.4380780000000  0.5106400000000  0.4669010000000 1.0
C      1  0.5436150000000  0.3909170000000  0.5566490000000 1.0
C      1  0.5497240000000  0.5633640000000  0.4461250000000 1.0
C      1  0.3818780000000  0.5250540000000  0.5059030000000 1.0
C      1  0.4932700000000  0.5316820000000  0.5147010000000 1.0
C      1  0.4975070000000  0.5159760000000  0.4686840000000 1.0
C      1  0.5315460000000  0.5507500000000  0.4636040000000 1.0
C      1  0.5286800000000  0.5329000000000  0.5652530000000 1.0
C      1  0.4819540000000  0.4281040000000  0.4821230000000 1.0
C      1  0.5833100000000  0.5498490000000  0.5152410000000 1.0
C      1  0.3766020000000  0.4545980000000  0.4596080000000 1.0
C      1  0.4762810000000  0.3831510000000  0.5115690000000 1.0
C      1  0.5829730000000  0.4304880000000  0.4509330000000 1.0
C      1  0.5270330000000  0.6122880000000  0.5084060000000 1.0
C      1  0.5074730000000  0.6258220000000  0.5234840000000 1.0
C      1  0.4807320000000  0.4277670000000  0.5103670000000 1.0
C      1  0.5807470000000  0.4705900000000  0.4834910000000 1.0
C      1  0.4315920000000  0.6016940000000  0.5199430000000 1.0
C      1  0.5214510000000  0.4554390000000  0.5681310000000 1.0
C      1  0.4957240000000  0.5667010000000  0.5860510000000 1.0
C      1  0.5811360000000  0.5850360000000  0.4808760000000 1.0
C      1  0.5446140000000  0.4425850000000  0.5805350000000 1.0
C      1  0.5015560000000  0.4886650000000  0.4798190000000 1.0
C      1  0.5547070000000  0.5162580000000  0.6014430000000 1.0
C      1  0.5186420000000  0.4694410000000  0.6434610000000 1.0
C      1  0.4910650000000  0.4688680000000  0.4625720000000 1.0
C      1  0.5647340000000  0.3821880000000  0.5395560000000 1.0
C      1  0.5188620000000  0.5481250000000  0.5884230000000 1.0
C      1  0.6017210000000  0.4862840000000  0.5707930000000 1.0
C      1  0.5663610000000  0.6501210000000  0.4478730000000 1.0
C      1  0.6158180000000  0.5193030000000  0.5013470000000 1.0
C      1  0.5799540000000  0.5059890000000  0.4195210000000 1.0
C      1  0.5541590000000  0.3782490000000  0.4928490000000 1.0
C      1  0.5399970000000  0.4513930000000  0.4763320000000 1.0
C      1  0.4077250000000  0.5708370000000  0.4287190000000 1.0
C      1  0.4818040000000  0.4934420000000  0.4236900000000 1.0
C      1  0.4256530000000  0.4364580000000  0.5112430000000 1.0
C      1  0.5286920000000  0.5666730000000  0.5331070000000 1.0
C      1  0.4566610000000  0.5141790000000  0.6157270000000 1.0
C      1  0.3734710000000  0.4987320000000  0.5104420000000 1.0
C      1  0.5383560000000  0.5645330000000  0.4192640000000 1.0
C      1  0.4477920000000  0.5863960000000  0.5407950000000 1.0
C      1  0.5732690000000  0.3875320000000  0.5124280000000 1.0
C      1  0.5248750000000  0.4678500000000  0.4298430000000 1.0
C      1  0.5034320000000  0.5690410000000  0.5433170000000 1.0
C      1  0.5320140000000  0.3800480000000  0.4509150000000 1.0
C      1  0.5692670000000  0.6112980000000  0.4847290000000 1.0
C      1  0.4529820000000  0.3950730000000  0.4633330000000 1.0
C      1  0.3703890000000  0.4791170000000  0.4474880000000 1.0
C      1  0.4301350000000  0.5741030000000  0.5627410000000 1.0
C      1  0.5264440000000  0.5227180000000  0.4618920000000 1.0
C      1  0.4653910000000  0.4619600000000  0.5963480000000 1.0
C      1  0.5571380000000  0.5569240000000  0.3989810000000 1.0
C      1  0.4846290000000  0.6232200000000  0.5376960000000 1.0
C      1  0.4099330000000  0.5956750000000  0.4425060000000 1.0
C      1  0.5563060000000  0.5104850000000  0.5045390000000 1.0
C      1  0.5859120000000  0.5766140000000  0.5085730000000 1.0
C      1  0.4929350000000  0.5848160000000  0.5646000000000 1.0
C      1  0.5268910000000  0.4268560000000  0.4801220000000 1.0
C      1  0.5255250000000  0.5659620000000  0.4862630000000 1.0
C      1  0.4786530000000  0.4421400000000  0.4232800000000 1.0
C      1  0.6088540000000  0.5293510000000  0.4765100000000 1.0
C      1  0.4047030000000  0.4975960000000  0.4159170000000 1.0
C      1  0.4295890000000  0.5074120000000  0.4947850000000 1.0
C      1  0.4053010000000  0.5386400000000  0.5178710000000 1.0
C      1  0.5558130000000  0.6116650000000  0.5113480000000 1.0
C      1  0.6123050000000  0.4967960000000  0.5485540000000 1.0
C      1  0.4476890000000  0.5207180000000  0.5535800000000 1.0
C      1  0.3817720000000  0.5370180000000  0.4793480000000 1.0
C      1  0.4838130000000  0.5479610000000  0.5370310000000 1.0
C      1  0.6026410000000  0.4271830000000  0.5520360000000 1.0
C      1  0.4373670000000  0.5049590000000  0.5963070000000 1.0
C      1  0.4312990000000  0.4874730000000  0.5186340000000 1.0
C      1  0.3752670000000  0.4724570000000  0.5051180000000 1.0
C      1  0.5368450000000  0.4317270000000  0.5288670000000 1.0
C      1  0.5001040000000  0.3989680000000  0.4213020000000 1.0
C      1  0.5118600000000  0.4867540000000  0.5062560000000 1.0
C      1  0.5764680000000  0.5659650000000  0.4592730000000 1.0
C      1  0.4932790000000  0.4734240000000  0.5223050000000 1.0
C      1  0.4276980000000  0.4636110000000  0.5645910000000 1.0
C      1  0.4671060000000  0.5796840000000  0.4568500000000 1.0
C      1  0.5937090000000  0.5419530000000  0.4550570000000 1.0
C      1  0.6152310000000  0.4276640000000  0.5756360000000 1.0
C      1  0.6051840000000  0.4260380000000  0.4898860000000 1.0
C      1  0.5596970000000  0.4957820000000  0.4016490000000 1.0
C      1  0.4195020000000  0.6040180000000  0.4959400000000 1.0
C      1  0.4216150000000  0.5518420000000  0.5761660000000 1.0
C      1  0.4147210000000  0.4766880000000  0.5424050000000 1.0
C      1  0.5558010000000  0.3854810000000  0.4650280000000 1.0
C      1  0.5338390000000  0.5008380000000  0.5197330000000 1.0
C      1  0.4655190000000  0.5555500000000  0.4427570000000 1.0
C      1  0.4406340000000  0.4774350000000  0.5879280000000 1.0
C      1  0.5092870000000  0.3962110000000  0.4475120000000 1.0
C      1  0.5373850000000  0.5554040000000  0.5094290000000 1.0
C      1  0.5479300000000  0.4137790000000  0.5750240000000 1.0
C      1  0.4497030000000  0.4368800000000  0.4284440000000 1.0
C      1  0.4209620000000  0.5209930000000  0.4090160000000 1.0
C      1  0.5039470000000  0.4161320000000  0.4675110000000 1.0
C      1  0.5494310000000  0.5392050000000  0.3783940000000 1.0
C      1  0.5093850000000  0.5294380000000  0.6101200000000 1.0
C      1  0.4747570000000  0.5315090000000  0.5606760000000 1.0
C      1  0.5942430000000  0.5397520000000  0.5393760000000 1.0
C      1  0.4469170000000  0.4634700000000  0.4769760000000 1.0
C      1  0.4946490000000  0.4673550000000  0.4320660000000 1.0
C      1  0.4656090000000  0.5423070000000  0.3970120000000 1.0
C      1  0.5091160000000  0.5625410000000  0.4159580000000 1.0
C      1  0.5453410000000  0.4989580000000  0.4616980000000 1.0
C      1  0.4415650000000  0.4373570000000  0.5591330000000 1.0
C      1  0.4601970000000  0.5627540000000  0.5243690000000 1.0
C      1  0.5654080000000  0.4588580000000  0.5902950000000 1.0
C      1  0.4751150000000  0.5465100000000  0.5867030000000 1.0
C      1  0.4404890000000  0.4230910000000  0.5330460000000 1.0
C      1  0.4639660000000  0.4080900000000  0.5229450000000 1.0
C      1  0.5702980000000  0.5336500000000  0.5850420000000 1.0
C      1  0.4562160000000  0.5284340000000  0.4511940000000 1.0
C      1  0.4629460000000  0.6280280000000  0.4423690000000 1.0
C      1  0.4727320000000  0.6018460000000  0.5523040000000 1.0
C      1  0.5527490000000  0.5124310000000  0.3797450000000 1.0
C      1  0.5176470000000  0.5929800000000  0.4891260000000 1.0
C      1  0.4360660000000  0.4547590000000  0.4094010000000 1.0
C      1  0.5413280000000  0.4754280000000  0.4083950000000 1.0
C      1  0.3913350000000  0.4337760000000  0.4463160000000 1.0
C      1  0.4115480000000  0.5470160000000  0.4166520000000 1.0
C      1  0.5728780000000  0.5807180000000  0.5566530000000 1.0
C      1  0.4935090000000  0.4464310000000  0.5264150000000 1.0
C      1  0.5614350000000  0.4450280000000  0.5240730000000 1.0
C      1  0.4778300000000  0.4886750000000  0.5386330000000 1.0
C      1  0.5046920000000  0.4779590000000  0.5755370000000 1.0
C      1  0.4715690000000  0.4517550000000  0.4720920000000 1.0
C      1  0.4519110000000  0.5514950000000  0.5002190000000 1.0
C      1  0.5665250000000  0.5967830000000  0.5781350000000 1.0
C      1  0.5904830000000  0.4109010000000  0.5094120000000 1.0
C      1  0.4130930000000  0.4707250000000  0.4116850000000 1.0
C      1  0.4540200000000  0.4697380000000  0.3923910000000 1.0
C      1  0.4236670000000  0.5500900000000  0.4969830000000 1.0
C      1  0.5837380000000  0.5521780000000  0.4087090000000 1.0
C      1  0.5672950000000  0.4973020000000  0.4811680000000 1.0
C      1  0.5804980000000  0.5513440000000  0.5624830000000 1.0
C      1  0.5373790000000  0.4713650000000  0.4553380000000 1.0
C      1  0.5319590000000  0.5138260000000  0.5458180000000 1.0
C      1  0.4390670000000  0.4175590000000  0.4501310000000 1.0
C      1  0.4368040000000  0.4619900000000  0.5034360000000 1.0
C      1  0.5021240000000  0.4108460000000  0.5568500000000 1.0
C      1  0.5924180000000  0.4668230000000  0.5888950000000 1.0
C      1  0.5132370000000  0.4829920000000  0.6202540000000 1.0
C      1  0.5127210000000  0.4369450000000  0.5463760000000 1.0
C      1  0.4813220000000  0.5328120000000  0.4902290000000 1.0
C      1  0.5597270000000  0.4566800000000  0.4977970000000 1.0
C      1  0.4808330000000  0.5553160000000  0.4174560000000 1.0
C      1  0.4176860000000  0.6185630000000  0.4277010000000 1.0
C      1  0.5275940000000  0.3698910000000  0.5031290000000 1.0
C      1  0.4647900000000  0.3810060000000  0.4841760000000 1.0
C      1  0.6111010000000  0.4463110000000  0.5947100000000 1.0
C      1  0.4527150000000  0.5000640000000  0.5347140000000 1.0
C      1  0.4300950000000  0.5245070000000  0.5755850000000 1.0
C      1  0.5154210000000  0.3873400000000  0.5472620000000 1.0
C      1  0.5279160000000  0.5077260000000  0.6130520000000 1.0
C      1  0.5054030000000  0.3767950000000  0.5210710000000 1.0
C      1  0.4056270000000  0.5502160000000  0.4741890000000 1.0
C      1  0.4916590000000  0.4213830000000  0.4095270000000 1.0
C      1  0.5950980000000  0.4468010000000  0.4716430000000 1.0
C      1  0.4911240000000  0.4985380000000  0.5609050000000 1.0
C      1  0.6108430000000  0.5179590000000  0.5302880000000 1.0
C      1  0.4615070000000  0.4367740000000  0.5809010000000 1.0
C      1  0.4800500000000  0.5127580000000  0.4445320000000 1.0
C      1  0.5303320000000  0.4168120000000  0.5059670000000 1.0
C      1  0.5726230000000  0.4053520000000  0.4533460000000 1.0
C      1  0.4378680000000  0.4831070000000  0.4587290000000 1.0
C      1  0.4058090000000  0.4317450000000  0.4906050000000 1.0
END
