TITL C-3866676-3738-290 0.494677268847759 125000 -336.621252265253 0 0 58 (C1) n - 1
REM
REM in /home/nfs/bkarasulu/CARBON/AIRSS/Generating-Clusters/LCBOP/Only-C1/SD-CG/FIRE-CG
REM
REM
REM
REM
REM
REM ./C.cell (11c1c37f851c82e70ff6c80c92926a4b)
REM AIRSS Version 0.9.1 bugfix July 2018 build 013d7b7c2542+ Fri, 06 Jul 2018 19:26:36 +0100
REM compiler GCC version 9.2.1 20190827 (Red Hat 9.2.1-1)
REM options -cpp -mtune=generic -march=x86-64 -g -O0 -fpre-include=/usr/include/finclude/math-vector-fortran.h
REM seed -877038092 552139742 222216760 823093509 -1871195319 -159244830 1881121563 737022061 -1829891812 807503016 -1279802102 880714559 -2117647893 909783776 579922681 1504942430 -1062878983 -1774428528 -492334964 -32987975 -887032318 -700550297 -180467122 649367138 1476509157 2098626729 634572614 488768834 1476569739 1792676071 -1754176977 -412529028 475755182
REM
CELL 1.54180   50.00000   50.00000   50.00000   90.00000   90.00000   90.00000
LATT -1
SFAC C  
C      1  0.4218850000000  0.5618550000000  0.4449890000000 1.0
C      1  0.5332010000000  0.5381730000000  0.5238700000000 1.0
C      1  0.4842430000000  0.5798650000000  0.4158700000000 1.0
C      1  0.5072700000000  0.5682330000000  0.4218380000000 1.0
C      1  0.5182330000000  0.4919300000000  0.5055670000000 1.0
C      1  0.5688820000000  0.5345950000000  0.4296790000000 1.0
C      1  0.4498060000000  0.4567770000000  0.5618370000000 1.0
C      1  0.5666530000000  0.4349790000000  0.5483980000000 1.0
C      1  0.6448180000000  0.4305130000000  0.5594140000000 1.0
C      1  0.4927530000000  0.4767150000000  0.5871000000000 1.0
C      1  0.4014140000000  0.4271490000000  0.4508640000000 1.0
C      1  0.4996530000000  0.4362260000000  0.5121350000000 1.0
C      1  0.5274080000000  0.5933250000000  0.5717730000000 1.0
C      1  0.3809910000000  0.4127470000000  0.4420270000000 1.0
C      1  0.4880690000000  0.4968840000000  0.4692020000000 1.0
C      1  0.5746090000000  0.4954680000000  0.4865040000000 1.0
C      1  0.4218230000000  0.4415380000000  0.4596970000000 1.0
C      1  0.5215480000000  0.5722020000000  0.5576800000000 1.0
C      1  0.5150730000000  0.5495740000000  0.5427680000000 1.0
C      1  0.5628530000000  0.5439510000000  0.4852930000000 1.0
C      1  0.4917320000000  0.4516000000000  0.4897110000000 1.0
C      1  0.5212080000000  0.4449430000000  0.5647950000000 1.0
C      1  0.4576470000000  0.5882060000000  0.4136250000000 1.0
C      1  0.5250350000000  0.5242680000000  0.4416550000000 1.0
C      1  0.4863320000000  0.5037750000000  0.5865750000000 1.0
C      1  0.4752540000000  0.4568740000000  0.5753700000000 1.0
C      1  0.4432330000000  0.4565290000000  0.4690970000000 1.0
C      1  0.5019270000000  0.4780240000000  0.4865960000000 1.0
C      1  0.5392960000000  0.4374100000000  0.5444170000000 1.0
C      1  0.5536560000000  0.5155470000000  0.4465140000000 1.0
C      1  0.4616460000000  0.5032210000000  0.4794700000000 1.0
C      1  0.5580610000000  0.5481090000000  0.5134520000000 1.0
C      1  0.5274100000000  0.5524870000000  0.4323340000000 1.0
C      1  0.6190400000000  0.4319520000000  0.5557960000000 1.0
C      1  0.5928310000000  0.4334160000000  0.5521170000000 1.0
C      1  0.4062990000000  0.5481430000000  0.4607580000000 1.0
C      1  0.4681230000000  0.4449690000000  0.4757350000000 1.0
C      1  0.4815770000000  0.4336660000000  0.5338750000000 1.0
C      1  0.4265490000000  0.4677620000000  0.5703510000000 1.0
C      1  0.5555440000000  0.5597760000000  0.4377270000000 1.0
C      1  0.5269190000000  0.4326390000000  0.5192370000000 1.0
C      1  0.5615560000000  0.5650080000000  0.4654420000000 1.0
C      1  0.5767060000000  0.5602180000000  0.5293390000000 1.0
C      1  0.4932670000000  0.4384640000000  0.5601000000000 1.0
C      1  0.5205520000000  0.5202220000000  0.5064240000000 1.0
C      1  0.4891430000000  0.5369640000000  0.5456540000000 1.0
C      1  0.5198820000000  0.4668760000000  0.5835090000000 1.0
C      1  0.4606520000000  0.5204040000000  0.5021640000000 1.0
C      1  0.4381310000000  0.5755450000000  0.4291540000000 1.0
C      1  0.4713070000000  0.5321670000000  0.5239740000000 1.0
C      1  0.4542270000000  0.4424920000000  0.5369810000000 1.0
C      1  0.4838080000000  0.5248320000000  0.5704500000000 1.0
C      1  0.4417080000000  0.4845190000000  0.4728340000000 1.0
C      1  0.5088210000000  0.5336320000000  0.4842890000000 1.0
C      1  0.4508250000000  0.6084180000000  0.3965190000000 1.0
C      1  0.3609040000000  0.3985830000000  0.4333360000000 1.0
C      1  0.5634120000000  0.5168990000000  0.4737890000000 1.0
C      1  0.5045930000000  0.5187420000000  0.4603330000000 1.0
END
