TITL C-3866672-3872-244 -1.8466525538921e-06 125000 -1214.88044994443 0 0 194 (C1) n - 1
REM
REM in /home/nfs/bkarasulu/CARBON/AIRSS/Generating-Clusters/LCBOP/Only-C1/SD-CG/HFTN-CG/FIRE-CG
REM
REM
REM
REM
REM
REM ./C.cell (11c1c37f851c82e70ff6c80c92926a4b)
REM AIRSS Version 0.9.1 bugfix July 2018 build 013d7b7c2542+ Fri, 06 Jul 2018 19:26:36 +0100
REM compiler GCC version 9.2.1 20190827 (Red Hat 9.2.1-1)
REM options -cpp -mtune=generic -march=x86-64 -g -O0 -fpre-include=/usr/include/finclude/math-vector-fortran.h
REM seed 1793678951 -1884987184 -1618201389 -1769558220 706473471 -1935739690 1087283403 -126734537 -761355284 -1721716909 -39219242 1916776604 615473205 92722006 -1245335495 -2130583761 -342702621 -1083324121 -166113112 -2055621527 250703217 -298778371 814672067 -936433460 1404641665 762426767 1619768787 382005868 978795784 -1491638715 -1283380595 -1354962341 816406748
REM
CELL 1.54180   50.00000   50.00000   50.00000   90.00000   90.00000   90.00000
LATT -1
SFAC C  
C      1  0.6368650000000  0.4433080000000  0.5239190000000 1.0
C      1  0.5900890000000  0.5454010000000  0.5309700000000 1.0
C      1  0.4821150000000  0.5637930000000  0.5509190000000 1.0
C      1  0.4511580000000  0.4691340000000  0.4398190000000 1.0
C      1  0.6316390000000  0.5010420000000  0.4891440000000 1.0
C      1  0.6123760000000  0.4346390000000  0.5133510000000 1.0
C      1  0.5011940000000  0.5939590000000  0.5914240000000 1.0
C      1  0.4615670000000  0.5466050000000  0.5021460000000 1.0
C      1  0.5420780000000  0.5545740000000  0.5964490000000 1.0
C      1  0.4857480000000  0.5695670000000  0.5960370000000 1.0
C      1  0.5261710000000  0.5535860000000  0.4992170000000 1.0
C      1  0.4317170000000  0.5197230000000  0.6012210000000 1.0
C      1  0.5447080000000  0.5218850000000  0.5388180000000 1.0
C      1  0.5014760000000  0.5471430000000  0.4530550000000 1.0
C      1  0.5086890000000  0.5639040000000  0.4752340000000 1.0
C      1  0.4952780000000  0.5434750000000  0.6069900000000 1.0
C      1  0.5449520000000  0.4258220000000  0.4560360000000 1.0
C      1  0.5552020000000  0.3994540000000  0.4512780000000 1.0
C      1  0.5026290000000  0.6253810000000  0.4725450000000 1.0
C      1  0.5303450000000  0.5105070000000  0.6188920000000 1.0
C      1  0.4068300000000  0.6088340000000  0.4650810000000 1.0
C      1  0.3675090000000  0.4559640000000  0.4182480000000 1.0
C      1  0.4272610000000  0.4791460000000  0.5065310000000 1.0
C      1  0.5849510000000  0.4786210000000  0.5195530000000 1.0
C      1  0.5382440000000  0.4995470000000  0.5223690000000 1.0
C      1  0.5427800000000  0.5905420000000  0.4572720000000 1.0
C      1  0.4149690000000  0.5547820000000  0.5780280000000 1.0
C      1  0.5344310000000  0.5239930000000  0.4144800000000 1.0
C      1  0.3987000000000  0.5052520000000  0.5715740000000 1.0
C      1  0.6131230000000  0.5105680000000  0.4259660000000 1.0
C      1  0.6197920000000  0.5100090000000  0.5408490000000 1.0
C      1  0.3803450000000  0.5143570000000  0.5285320000000 1.0
C      1  0.4944300000000  0.4995050000000  0.4462110000000 1.0
C      1  0.4802190000000  0.5260660000000  0.5017380000000 1.0
C      1  0.4443260000000  0.5332260000000  0.5434720000000 1.0
C      1  0.4124600000000  0.5438660000000  0.4005700000000 1.0
C      1  0.4901510000000  0.3834830000000  0.5146300000000 1.0
C      1  0.5593680000000  0.4875890000000  0.5089070000000 1.0
C      1  0.4369300000000  0.5729320000000  0.5733120000000 1.0
C      1  0.5833760000000  0.3984070000000  0.4528230000000 1.0
C      1  0.4599570000000  0.4132490000000  0.5407290000000 1.0
C      1  0.5062550000000  0.3868890000000  0.4430370000000 1.0
C      1  0.4754200000000  0.4591790000000  0.5155620000000 1.0
C      1  0.5212210000000  0.6108230000000  0.4552830000000 1.0
C      1  0.6036560000000  0.4163980000000  0.4533470000000 1.0
C      1  0.4091070000000  0.4114940000000  0.4612300000000 1.0
C      1  0.5763920000000  0.4044520000000  0.5565770000000 1.0
C      1  0.5547840000000  0.5426480000000  0.4986130000000 1.0
C      1  0.4368330000000  0.5677990000000  0.4349230000000 1.0
C      1  0.4014620000000  0.5034420000000  0.5430780000000 1.0
C      1  0.5343470000000  0.3818670000000  0.4438740000000 1.0
C      1  0.6178070000000  0.4666870000000  0.4057340000000 1.0
C      1  0.5048170000000  0.4286590000000  0.5669810000000 1.0
C      1  0.4818330000000  0.5280430000000  0.4100040000000 1.0
C      1  0.6003680000000  0.4896070000000  0.5399910000000 1.0
C      1  0.5957420000000  0.5134130000000  0.4037520000000 1.0
C      1  0.3913440000000  0.5087280000000  0.4716480000000 1.0
C      1  0.5249840000000  0.6204310000000  0.5200950000000 1.0
C      1  0.5231400000000  0.4274750000000  0.4749440000000 1.0
C      1  0.5319190000000  0.5747340000000  0.5214040000000 1.0
C      1  0.5541310000000  0.5959770000000  0.4841370000000 1.0
C      1  0.5612120000000  0.4749220000000  0.3997300000000 1.0
C      1  0.4766960000000  0.5891300000000  0.4095030000000 1.0
C      1  0.4949980000000  0.4074750000000  0.4249160000000 1.0
C      1  0.4215420000000  0.6090210000000  0.5380510000000 1.0
C      1  0.3559770000000  0.5229310000000  0.5247410000000 1.0
C      1  0.4621080000000  0.5652610000000  0.4802160000000 1.0
C      1  0.4795710000000  0.4817930000000  0.4034100000000 1.0
C      1  0.4801950000000  0.5840990000000  0.5308820000000 1.0
C      1  0.4979140000000  0.4514160000000  0.4391320000000 1.0
C      1  0.4100890000000  0.4583840000000  0.4988900000000 1.0
C      1  0.6330250000000  0.4783420000000  0.4750230000000 1.0
C      1  0.4361560000000  0.4456000000000  0.4441920000000 1.0
C      1  0.4216030000000  0.6130900000000  0.5105110000000 1.0
C      1  0.3762370000000  0.4626400000000  0.5694020000000 1.0
C      1  0.5062460000000  0.4343050000000  0.4171760000000 1.0
C      1  0.5193450000000  0.6217120000000  0.5485850000000 1.0
C      1  0.5365340000000  0.5543720000000  0.4147300000000 1.0
C      1  0.3751870000000  0.5580960000000  0.4823670000000 1.0
C      1  0.4490640000000  0.3947900000000  0.4931770000000 1.0
C      1  0.4654010000000  0.4713090000000  0.6153270000000 1.0
C      1  0.6158000000000  0.5238210000000  0.4952540000000 1.0
C      1  0.4858190000000  0.5794790000000  0.4833190000000 1.0
C      1  0.4537230000000  0.4223610000000  0.4533700000000 1.0
C      1  0.6453400000000  0.5040280000000  0.5504290000000 1.0
C      1  0.4418490000000  0.6294200000000  0.4985640000000 1.0
C      1  0.4581990000000  0.5692810000000  0.4159610000000 1.0
C      1  0.4941440000000  0.4799510000000  0.5014640000000 1.0
C      1  0.4654580000000  0.5671270000000  0.5748760000000 1.0
C      1  0.4628480000000  0.4625930000000  0.5421740000000 1.0
C      1  0.5120550000000  0.4624100000000  0.6130800000000 1.0
C      1  0.4412250000000  0.4963310000000  0.4878180000000 1.0
C      1  0.6256450000000  0.4848610000000  0.4271950000000 1.0
C      1  0.4172160000000  0.5527180000000  0.5018710000000 1.0
C      1  0.3779040000000  0.4846010000000  0.4779960000000 1.0
C      1  0.5115640000000  0.4881630000000  0.5240570000000 1.0
C      1  0.5772440000000  0.4970990000000  0.3931320000000 1.0
C      1  0.6092150000000  0.5274760000000  0.4479930000000 1.0
C      1  0.5217530000000  0.5033970000000  0.3978040000000 1.0
C      1  0.5107500000000  0.6116050000000  0.5725990000000 1.0
C      1  0.4545410000000  0.5120010000000  0.5599870000000 1.0
C      1  0.4889140000000  0.5266890000000  0.4379900000000 1.0
C      1  0.4651540000000  0.4379880000000  0.5002790000000 1.0
C      1  0.3663560000000  0.4556980000000  0.5453940000000 1.0
C      1  0.4892520000000  0.3782460000000  0.4653890000000 1.0
C      1  0.3755840000000  0.5329650000000  0.4716620000000 1.0
C      1  0.5706230000000  0.5378900000000  0.4761980000000 1.0
C      1  0.5070360000000  0.4776110000000  0.5498810000000 1.0
C      1  0.4869180000000  0.5961460000000  0.5062240000000 1.0
C      1  0.5468570000000  0.5643730000000  0.4411260000000 1.0
C      1  0.5236900000000  0.5373500000000  0.6101610000000 1.0
C      1  0.5548370000000  0.5386040000000  0.4533370000000 1.0
C      1  0.5230600000000  0.5728590000000  0.3985550000000 1.0
C      1  0.5030150000000  0.6193460000000  0.5013210000000 1.0
C      1  0.4419230000000  0.5596040000000  0.4612620000000 1.0
C      1  0.4132680000000  0.4692550000000  0.6019160000000 1.0
C      1  0.4930910000000  0.5057300000000  0.3960210000000 1.0
C      1  0.6597910000000  0.4815070000000  0.5482030000000 1.0
C      1  0.5193370000000  0.4503970000000  0.3973160000000 1.0
C      1  0.5569100000000  0.4625910000000  0.5675680000000 1.0
C      1  0.5291590000000  0.3919340000000  0.5408960000000 1.0
C      1  0.4377880000000  0.4664760000000  0.6124490000000 1.0
C      1  0.5194870000000  0.4966810000000  0.5673770000000 1.0
C      1  0.5904450000000  0.4519550000000  0.5094410000000 1.0
C      1  0.5068490000000  0.5322990000000  0.5080430000000 1.0
C      1  0.5640720000000  0.4443480000000  0.4998990000000 1.0
C      1  0.5269780000000  0.4162420000000  0.5014120000000 1.0
C      1  0.6253010000000  0.4667520000000  0.4508030000000 1.0
C      1  0.4121030000000  0.5603910000000  0.4223600000000 1.0
C      1  0.4362760000000  0.5355420000000  0.3900600000000 1.0
C      1  0.4240090000000  0.4886910000000  0.5329980000000 1.0
C      1  0.6550530000000  0.4576830000000  0.5369930000000 1.0
C      1  0.4799540000000  0.4751780000000  0.4331850000000 1.0
C      1  0.5551640000000  0.4455000000000  0.4387160000000 1.0
C      1  0.4817210000000  0.3941900000000  0.5413970000000 1.0
C      1  0.4279940000000  0.6226740000000  0.4546020000000 1.0
C      1  0.4667330000000  0.4095200000000  0.4297600000000 1.0
C      1  0.5552470000000  0.4040030000000  0.5383310000000 1.0
C      1  0.4389520000000  0.5463510000000  0.5194400000000 1.0
C      1  0.3823850000000  0.4634320000000  0.4961670000000 1.0
C      1  0.5487120000000  0.4289660000000  0.5208220000000 1.0
C      1  0.5157580000000  0.4504530000000  0.5524360000000 1.0
C      1  0.4757610000000  0.4970760000000  0.6233160000000 1.0
C      1  0.4513930000000  0.4163400000000  0.5132510000000 1.0
C      1  0.5711090000000  0.4545720000000  0.4172080000000 1.0
C      1  0.4732560000000  0.4331580000000  0.4739330000000 1.0
C      1  0.4780730000000  0.5201800000000  0.6064500000000 1.0
C      1  0.5314020000000  0.4834020000000  0.6088850000000 1.0
C      1  0.4047430000000  0.5985790000000  0.4918200000000 1.0
C      1  0.5431260000000  0.4486760000000  0.5451420000000 1.0
C      1  0.4090000000000  0.4359410000000  0.4458030000000 1.0
C      1  0.4715480000000  0.5001590000000  0.4928110000000 1.0
C      1  0.5237980000000  0.4782300000000  0.4779090000000 1.0
C      1  0.5865460000000  0.4231020000000  0.5731350000000 1.0
C      1  0.6128350000000  0.5309200000000  0.5228770000000 1.0
C      1  0.4617800000000  0.4379100000000  0.5578690000000 1.0
C      1  0.4355360000000  0.4031520000000  0.4693540000000 1.0
C      1  0.5790440000000  0.4485580000000  0.5780030000000 1.0
C      1  0.4809070000000  0.4375220000000  0.5806860000000 1.0
C      1  0.5176090000000  0.3913980000000  0.5132420000000 1.0
C      1  0.4748570000000  0.3810970000000  0.4905540000000 1.0
C      1  0.5298440000000  0.5677870000000  0.5491540000000 1.0
C      1  0.4482670000000  0.4864260000000  0.5484600000000 1.0
C      1  0.4608330000000  0.5443540000000  0.4014510000000 1.0
C      1  0.4768250000000  0.6339820000000  0.4637660000000 1.0
C      1  0.5457500000000  0.5681940000000  0.5729860000000 1.0
C      1  0.4206670000000  0.5132610000000  0.4737610000000 1.0
C      1  0.4294820000000  0.5967540000000  0.5602430000000 1.0
C      1  0.4567450000000  0.5176790000000  0.5879600000000 1.0
C      1  0.5403070000000  0.5153790000000  0.4429430000000 1.0
C      1  0.4990120000000  0.4390110000000  0.4647230000000 1.0
C      1  0.3872360000000  0.4464900000000  0.4324010000000 1.0
C      1  0.5988050000000  0.4482430000000  0.4171620000000 1.0
C      1  0.5216780000000  0.5238130000000  0.5573080000000 1.0
C      1  0.5330450000000  0.4761900000000  0.3955460000000 1.0
C      1  0.6099190000000  0.4072080000000  0.5081460000000 1.0
C      1  0.5487280000000  0.4683530000000  0.4899950000000 1.0
C      1  0.5427950000000  0.5990850000000  0.5106290000000 1.0
C      1  0.5073260000000  0.5492770000000  0.5536980000000 1.0
C      1  0.5060870000000  0.4019590000000  0.5563600000000 1.0
C      1  0.3942210000000  0.4793230000000  0.5836320000000 1.0
C      1  0.5015430000000  0.5887450000000  0.3994560000000 1.0
C      1  0.4496090000000  0.6312850000000  0.4710650000000 1.0
C      1  0.3666540000000  0.4565320000000  0.5185200000000 1.0
C      1  0.3963060000000  0.5714980000000  0.4963350000000 1.0
C      1  0.6108140000000  0.4418480000000  0.4436610000000 1.0
C      1  0.5411600000000  0.4828780000000  0.5818040000000 1.0
C      1  0.5636000000000  0.5383620000000  0.5256830000000 1.0
C      1  0.5985560000000  0.5320990000000  0.4739140000000 1.0
C      1  0.5216700000000  0.4963920000000  0.4562220000000 1.0
C      1  0.4248850000000  0.5413730000000  0.4753800000000 1.0
C      1  0.6111450000000  0.3811910000000  0.5069030000000 1.0
C      1  0.4097800000000  0.5276900000000  0.5855080000000 1.0
C      1  0.4855250000000  0.4542670000000  0.6041300000000 1.0
END
