TITL C-3866669-3764-458 0.266874320584637 125000 -404.542583949169 0 0 68 (C1) n - 1
REM
REM in /home/nfs/bkarasulu/CARBON/AIRSS/Generating-Clusters/LCBOP/Only-C1/SD-CG/FIRE-CG
REM
REM
REM
REM
REM
REM ./C.cell (11c1c37f851c82e70ff6c80c92926a4b)
REM AIRSS Version 0.9.1 bugfix July 2018 build 013d7b7c2542+ Fri, 06 Jul 2018 19:26:36 +0100
REM compiler GCC version 9.2.1 20190827 (Red Hat 9.2.1-1)
REM options -cpp -mtune=generic -march=x86-64 -g -O0 -fpre-include=/usr/include/finclude/math-vector-fortran.h
REM seed 751572532 -1000499548 -1395583725 347893661 503077001 -465508093 -589433977 1987334082 1064418126 36487137 350922268 1801412127 724606640 117449045 365206300 1282856155 -671832572 940018218 377871281 1714571722 109379661 -800913463 256176991 -703131835 -1996006265 1818212483 -1818931122 -1963918016 671578212 -361057952 1057339947 10239526 -1822713587
REM
CELL 1.54180   50.00000   50.00000   50.00000   90.00000   90.00000   90.00000
LATT -1
SFAC C  
C      1  0.4983620000000  0.5632490000000  0.5598050000000 1.0
C      1  0.4522890000000  0.4504830000000  0.4316170000000 1.0
C      1  0.4688210000000  0.5600300000000  0.5210800000000 1.0
C      1  0.3755650000000  0.4711880000000  0.5780610000000 1.0
C      1  0.4449940000000  0.5356520000000  0.4876110000000 1.0
C      1  0.5448210000000  0.5602860000000  0.5111680000000 1.0
C      1  0.5414200000000  0.4840400000000  0.4864110000000 1.0
C      1  0.5453580000000  0.5044340000000  0.4690760000000 1.0
C      1  0.5449220000000  0.5277550000000  0.4525270000000 1.0
C      1  0.5618080000000  0.5993280000000  0.5354040000000 1.0
C      1  0.4147330000000  0.4850640000000  0.5528690000000 1.0
C      1  0.4937790000000  0.4857560000000  0.4818950000000 1.0
C      1  0.3989820000000  0.4849630000000  0.5761770000000 1.0
C      1  0.5178200000000  0.4440450000000  0.4273180000000 1.0
C      1  0.5091160000000  0.4495530000000  0.4010720000000 1.0
C      1  0.5239500000000  0.4151260000000  0.5049180000000 1.0
C      1  0.5363290000000  0.4729180000000  0.5126000000000 1.0
C      1  0.4560580000000  0.4429360000000  0.4047740000000 1.0
C      1  0.5504590000000  0.4447200000000  0.5517420000000 1.0
C      1  0.4824290000000  0.4433780000000  0.3949360000000 1.0
C      1  0.4550860000000  0.5221130000000  0.5934160000000 1.0
C      1  0.5500280000000  0.4250610000000  0.5056590000000 1.0
C      1  0.4832600000000  0.4971530000000  0.5588340000000 1.0
C      1  0.5108540000000  0.4505980000000  0.4523050000000 1.0
C      1  0.5123060000000  0.4968400000000  0.5547970000000 1.0
C      1  0.5223580000000  0.5754980000000  0.5514290000000 1.0
C      1  0.5374840000000  0.4906460000000  0.3870810000000 1.0
C      1  0.4378440000000  0.4964720000000  0.5418110000000 1.0
C      1  0.5454630000000  0.5148220000000  0.5262490000000 1.0
C      1  0.5044870000000  0.5328840000000  0.5023210000000 1.0
C      1  0.4312710000000  0.5146290000000  0.6026510000000 1.0
C      1  0.5732810000000  0.5094840000000  0.5258450000000 1.0
C      1  0.4568320000000  0.5888570000000  0.5584700000000 1.0
C      1  0.4093970000000  0.5002450000000  0.5973710000000 1.0
C      1  0.5309670000000  0.5354110000000  0.5139270000000 1.0
C      1  0.5399470000000  0.5542760000000  0.4625480000000 1.0
C      1  0.4990120000000  0.5388400000000  0.5742500000000 1.0
C      1  0.5208660000000  0.5201470000000  0.5708070000000 1.0
C      1  0.4763320000000  0.5204680000000  0.5756230000000 1.0
C      1  0.5289370000000  0.4919370000000  0.5327180000000 1.0
C      1  0.4898730000000  0.5129830000000  0.4867080000000 1.0
C      1  0.5547060000000  0.5639090000000  0.4849680000000 1.0
C      1  0.5241800000000  0.4675890000000  0.3858990000000 1.0
C      1  0.5538840000000  0.4505290000000  0.5223760000000 1.0
C      1  0.4959000000000  0.5731410000000  0.4784780000000 1.0
C      1  0.5148610000000  0.5675650000000  0.4597440000000 1.0
C      1  0.4631880000000  0.4833040000000  0.5444810000000 1.0
C      1  0.5832730000000  0.4601880000000  0.5163170000000 1.0
C      1  0.4143130000000  0.4281680000000  0.3732950000000 1.0
C      1  0.3942870000000  0.4210820000000  0.3581830000000 1.0
C      1  0.4900690000000  0.5583480000000  0.5019350000000 1.0
C      1  0.5942290000000  0.4392480000000  0.4997290000000 1.0
C      1  0.5793040000000  0.6185380000000  0.5374080000000 1.0
C      1  0.5482800000000  0.5240560000000  0.4249270000000 1.0
C      1  0.5459160000000  0.5111240000000  0.4018310000000 1.0
C      1  0.4346660000000  0.4353690000000  0.3886530000000 1.0
C      1  0.4989210000000  0.4208880000000  0.5123760000000 1.0
C      1  0.4465410000000  0.5427830000000  0.5150670000000 1.0
C      1  0.4740540000000  0.5711810000000  0.5467370000000 1.0
C      1  0.5755760000000  0.4198450000000  0.4935970000000 1.0
C      1  0.5432470000000  0.5787270000000  0.5326950000000 1.0
C      1  0.4640440000000  0.4582570000000  0.4543290000000 1.0
C      1  0.4371160000000  0.5231800000000  0.5327630000000 1.0
C      1  0.4895210000000  0.4639060000000  0.4649480000000 1.0
C      1  0.4801610000000  0.4367040000000  0.5228390000000 1.0
C      1  0.4653380000000  0.5226750000000  0.4754780000000 1.0
C      1  0.4682530000000  0.4581080000000  0.5333160000000 1.0
C      1  0.5882730000000  0.4873180000000  0.5217490000000 1.0
END
