TITL C-3866673-4222-524 -3413.62213046176 125000 -1239.68167714797 0 0 200 (C1) n - 1
REM
REM in /home/nfs/bkarasulu/CARBON/AIRSS/Generating-Clusters/LCBOP/Only-C1/SD-CG/FIRE-CG
REM
REM
REM
REM
REM
REM ./C.cell (11c1c37f851c82e70ff6c80c92926a4b)
REM AIRSS Version 0.9.1 bugfix July 2018 build 013d7b7c2542+ Fri, 06 Jul 2018 19:26:36 +0100
REM compiler GCC version 9.2.1 20190827 (Red Hat 9.2.1-1)
REM options -cpp -mtune=generic -march=x86-64 -g -O0 -fpre-include=/usr/include/finclude/math-vector-fortran.h
REM seed -856374705 -1971510387 2016466177 -436758446 1559196388 1396361854 329507170 -2083369288 -733171122 -1603649519 -1233687527 -622315876 1212407391 1912004120 -1370131913 -729492842 1832788861 1001952736 -510098735 -1986573177 1798805185 -2126393701 -777284422 1773544023 1433819999 208919870 -105263641 1672709487 110737974 -2011877121 -1612248888 -10543633 -1165001973
REM
CELL 1.54180   50.00000   50.00000   50.00000   90.00000   90.00000   90.00000
LATT -1
SFAC C  
C      1  0.4381390000000  0.4986710000000  0.6134540000000 1.0
C      1  0.5822250000000  0.5212460000000  0.3679330000000 1.0
C      1  0.5835200000000  0.5690360000000  0.5694990000000 1.0
C      1  0.4588750000000  0.5686900000000  0.4715440000000 1.0
C      1  0.5383720000000  0.3970740000000  0.4671320000000 1.0
C      1  0.4217710000000  0.5634800000000  0.3999850000000 1.0
C      1  0.5015940000000  0.4172490000000  0.6029570000000 1.0
C      1  0.4118460000000  0.4933910000000  0.6016020000000 1.0
C      1  0.3871840000000  0.4441940000000  0.5142150000000 1.0
C      1  0.4353680000000  0.4977240000000  0.4081830000000 1.0
C      1  0.4837550000000  0.4897200000000  0.4582230000000 1.0
C      1  0.5482040000000  0.5817960000000  0.4672830000000 1.0
C      1  0.5093450000000  0.4580940000000  0.4898250000000 1.0
C      1  0.5835510000000  0.4640120000000  0.5035860000000 1.0
C      1  0.5012240000000  0.4820450000000  0.5938380000000 1.0
C      1  0.5811790000000  0.4360530000000  0.5587720000000 1.0
C      1  0.4330580000000  0.4313520000000  0.4898960000000 1.0
C      1  0.4094710000000  0.5572750000000  0.4946390000000 1.0
C      1  0.4425370000000  0.5831270000000  0.5404940000000 1.0
C      1  0.4256350000000  0.4108150000000  0.5289330000000 1.0
C      1  0.4888670000000  0.5871710000000  0.5555060000000 1.0
C      1  0.5048590000000  0.4538750000000  0.3805290000000 1.0
C      1  0.5298220000000  0.5433830000000  0.4468990000000 1.0
C      1  0.4683610000000  0.4301890000000  0.4167770000000 1.0
C      1  0.4687760000000  0.5978480000000  0.5350370000000 1.0
C      1  0.3781130000000  0.5014370000000  0.5116000000000 1.0
C      1  0.4641510000000  0.4200720000000  0.5583540000000 1.0
C      1  0.4226420000000  0.6010770000000  0.4363730000000 1.0
C      1  0.4728200000000  0.3851440000000  0.5107910000000 1.0
C      1  0.4751850000000  0.5678370000000  0.5714850000000 1.0
C      1  0.3804220000000  0.5144770000000  0.4853670000000 1.0
C      1  0.4288780000000  0.5005160000000  0.5128690000000 1.0
C      1  0.4880190000000  0.5377720000000  0.5292600000000 1.0
C      1  0.5130520000000  0.5031440000000  0.5258300000000 1.0
C      1  0.5129170000000  0.4786180000000  0.5693320000000 1.0
C      1  0.5164820000000  0.5939240000000  0.4197100000000 1.0
C      1  0.4767810000000  0.5505730000000  0.4239460000000 1.0
C      1  0.5738370000000  0.4263630000000  0.4540500000000 1.0
C      1  0.6079230000000  0.5652810000000  0.4907350000000 1.0
C      1  0.5018050000000  0.5365390000000  0.3701160000000 1.0
C      1  0.5407930000000  0.4811710000000  0.5638320000000 1.0
C      1  0.4999700000000  0.5901540000000  0.4442540000000 1.0
C      1  0.5303910000000  0.5232070000000  0.5399550000000 1.0
C      1  0.5167640000000  0.4860440000000  0.4192790000000 1.0
C      1  0.5517060000000  0.4973850000000  0.4586840000000 1.0
C      1  0.5305670000000  0.5596240000000  0.4706390000000 1.0
C      1  0.5970610000000  0.5371860000000  0.5284080000000 1.0
C      1  0.6189370000000  0.4775410000000  0.4718790000000 1.0
C      1  0.5159630000000  0.4133430000000  0.3996720000000 1.0
C      1  0.5221670000000  0.5505940000000  0.5508790000000 1.0
C      1  0.5651320000000  0.6325670000000  0.5122000000000 1.0
C      1  0.5163810000000  0.4404410000000  0.6117330000000 1.0
C      1  0.4372860000000  0.6091110000000  0.4575240000000 1.0
C      1  0.4939840000000  0.5623090000000  0.3821250000000 1.0
C      1  0.3776420000000  0.5465680000000  0.5292520000000 1.0
C      1  0.5733040000000  0.6570830000000  0.5155910000000 1.0
C      1  0.4876430000000  0.5055960000000  0.5988060000000 1.0
C      1  0.4806450000000  0.4496910000000  0.4342570000000 1.0
C      1  0.5855920000000  0.5728990000000  0.4380970000000 1.0
C      1  0.5388190000000  0.4061170000000  0.5715660000000 1.0
C      1  0.4744120000000  0.4434090000000  0.5449110000000 1.0
C      1  0.3655320000000  0.4281190000000  0.5224430000000 1.0
C      1  0.5128310000000  0.3883270000000  0.4770830000000 1.0
C      1  0.5230850000000  0.4225240000000  0.5192130000000 1.0
C      1  0.5929280000000  0.4649290000000  0.5529100000000 1.0
C      1  0.4468070000000  0.5348040000000  0.5426090000000 1.0
C      1  0.5854260000000  0.4858410000000  0.3983470000000 1.0
C      1  0.5560090000000  0.4379760000000  0.4042510000000 1.0
C      1  0.4154940000000  0.4768670000000  0.4699150000000 1.0
C      1  0.4788950000000  0.4397840000000  0.3900530000000 1.0
C      1  0.6336060000000  0.5273400000000  0.4716400000000 1.0
C      1  0.5444090000000  0.5996730000000  0.4241170000000 1.0
C      1  0.5167180000000  0.5450670000000  0.5798540000000 1.0
C      1  0.4117650000000  0.5605410000000  0.5694170000000 1.0
C      1  0.5092180000000  0.4051510000000  0.5775880000000 1.0
C      1  0.5715500000000  0.5874770000000  0.5516060000000 1.0
C      1  0.5537020000000  0.5141470000000  0.5009510000000 1.0
C      1  0.5004010000000  0.4869490000000  0.5457820000000 1.0
C      1  0.3983270000000  0.5642470000000  0.5206790000000 1.0
C      1  0.4854770000000  0.4000150000000  0.5592840000000 1.0
C      1  0.4023860000000  0.5132860000000  0.5830590000000 1.0
C      1  0.5644390000000  0.4086740000000  0.4771650000000 1.0
C      1  0.5756380000000  0.4077890000000  0.5041850000000 1.0
C      1  0.5171410000000  0.3956150000000  0.5247880000000 1.0
C      1  0.4933790000000  0.5449030000000  0.5025170000000 1.0
C      1  0.5532980000000  0.5482330000000  0.4004120000000 1.0
C      1  0.4446760000000  0.5144330000000  0.4527650000000 1.0
C      1  0.5946710000000  0.4641660000000  0.4771120000000 1.0
C      1  0.4530710000000  0.5598370000000  0.5550840000000 1.0
C      1  0.5442240000000  0.5097530000000  0.5628090000000 1.0
C      1  0.5528550000000  0.4699640000000  0.4474770000000 1.0
C      1  0.5098170000000  0.5834120000000  0.3936430000000 1.0
C      1  0.5364860000000  0.5518590000000  0.4208730000000 1.0
C      1  0.3943340000000  0.4773550000000  0.4245060000000 1.0
C      1  0.4199760000000  0.5272740000000  0.4585000000000 1.0
C      1  0.3733380000000  0.4973650000000  0.4637180000000 1.0
C      1  0.5567250000000  0.4282130000000  0.5821770000000 1.0
C      1  0.5323350000000  0.5161320000000  0.4484860000000 1.0
C      1  0.4098740000000  0.4868090000000  0.4044580000000 1.0
C      1  0.4714400000000  0.5159170000000  0.4642060000000 1.0
C      1  0.5882630000000  0.5499440000000  0.5877060000000 1.0
C      1  0.4570900000000  0.5981890000000  0.4743820000000 1.0
C      1  0.5104310000000  0.5841060000000  0.5147870000000 1.0
C      1  0.4378320000000  0.5286290000000  0.5156140000000 1.0
C      1  0.4506700000000  0.5202640000000  0.3998440000000 1.0
C      1  0.5787160000000  0.5104710000000  0.4633190000000 1.0
C      1  0.5813620000000  0.5146090000000  0.4924920000000 1.0
C      1  0.4448530000000  0.5258920000000  0.6012650000000 1.0
C      1  0.5393950000000  0.6028700000000  0.4833740000000 1.0
C      1  0.5041460000000  0.5090390000000  0.3669790000000 1.0
C      1  0.4790890000000  0.5673080000000  0.4472430000000 1.0
C      1  0.3775220000000  0.5186200000000  0.5347880000000 1.0
C      1  0.5893740000000  0.4947650000000  0.3707230000000 1.0
C      1  0.5949120000000  0.5017430000000  0.5927160000000 1.0
C      1  0.5407710000000  0.4942100000000  0.4862290000000 1.0
C      1  0.4461050000000  0.4911170000000  0.4339460000000 1.0
C      1  0.4562370000000  0.4451710000000  0.4994390000000 1.0
C      1  0.4911060000000  0.3881160000000  0.5331980000000 1.0
C      1  0.5084380000000  0.4426070000000  0.4373460000000 1.0
C      1  0.5135950000000  0.5629250000000  0.4947570000000 1.0
C      1  0.4704380000000  0.5196520000000  0.5436440000000 1.0
C      1  0.5146940000000  0.4154830000000  0.4279630000000 1.0
C      1  0.5442420000000  0.4410630000000  0.6043460000000 1.0
C      1  0.4348130000000  0.4854000000000  0.4893000000000 1.0
C      1  0.3813000000000  0.4725470000000  0.5127240000000 1.0
C      1  0.4139200000000  0.5759000000000  0.5426350000000 1.0
C      1  0.5745740000000  0.5318460000000  0.3933900000000 1.0
C      1  0.4695040000000  0.5619770000000  0.3973060000000 1.0
C      1  0.4441040000000  0.4513040000000  0.6262980000000 1.0
C      1  0.5815040000000  0.5254750000000  0.6004620000000 1.0
C      1  0.5027790000000  0.4369540000000  0.5065710000000 1.0
C      1  0.4354060000000  0.4241330000000  0.5523390000000 1.0
C      1  0.5605290000000  0.4194650000000  0.4287100000000 1.0
C      1  0.5376530000000  0.4043630000000  0.4391130000000 1.0
C      1  0.4544710000000  0.4779390000000  0.6270000000000 1.0
C      1  0.5579980000000  0.6058070000000  0.5062670000000 1.0
C      1  0.4211610000000  0.4828280000000  0.5350770000000 1.0
C      1  0.4733910000000  0.5293580000000  0.5983820000000 1.0
C      1  0.5353580000000  0.4680390000000  0.4922600000000 1.0
C      1  0.4202710000000  0.5370620000000  0.5853060000000 1.0
C      1  0.5893710000000  0.5229410000000  0.4399310000000 1.0
C      1  0.5740690000000  0.4602150000000  0.4015500000000 1.0
C      1  0.4976100000000  0.4960950000000  0.6508480000000 1.0
C      1  0.5565380000000  0.4546900000000  0.5044870000000 1.0
C      1  0.4985820000000  0.5052700000000  0.4149460000000 1.0
C      1  0.4600960000000  0.4672310000000  0.5520000000000 1.0
C      1  0.5058940000000  0.6060980000000  0.4691020000000 1.0
C      1  0.5731500000000  0.5843650000000  0.5225420000000 1.0
C      1  0.5421650000000  0.5176100000000  0.6337530000000 1.0
C      1  0.5995880000000  0.5494500000000  0.4454640000000 1.0
C      1  0.4880500000000  0.4778940000000  0.4851640000000 1.0
C      1  0.4817690000000  0.6086860000000  0.4853610000000 1.0
C      1  0.5552710000000  0.3958660000000  0.5498760000000 1.0
C      1  0.3847090000000  0.5109310000000  0.5611830000000 1.0
C      1  0.3471410000000  0.4140420000000  0.5344260000000 1.0
C      1  0.4771750000000  0.4382460000000  0.5172000000000 1.0
C      1  0.5954230000000  0.5096850000000  0.5181830000000 1.0
C      1  0.4892290000000  0.5501900000000  0.5877640000000 1.0
C      1  0.4843910000000  0.3882950000000  0.4824120000000 1.0
C      1  0.5922550000000  0.5629840000000  0.5144450000000 1.0
C      1  0.4441560000000  0.5481800000000  0.3923790000000 1.0
C      1  0.5696370000000  0.4178080000000  0.5334400000000 1.0
C      1  0.4163320000000  0.5838230000000  0.4167950000000 1.0
C      1  0.5369050000000  0.5255720000000  0.5865820000000 1.0
C      1  0.5291820000000  0.4371180000000  0.3885900000000 1.0
C      1  0.5840410000000  0.5121740000000  0.4137970000000 1.0
C      1  0.4730230000000  0.4918260000000  0.5482470000000 1.0
C      1  0.5274430000000  0.4642180000000  0.4344660000000 1.0
C      1  0.4593240000000  0.4712840000000  0.4911430000000 1.0
C      1  0.4765690000000  0.5224860000000  0.4159120000000 1.0
C      1  0.5473000000000  0.4377380000000  0.5265250000000 1.0
C      1  0.4760940000000  0.4134730000000  0.6143370000000 1.0
C      1  0.4327380000000  0.4610520000000  0.5497500000000 1.0
C      1  0.5457030000000  0.4586120000000  0.5481420000000 1.0
C      1  0.5617710000000  0.5871820000000  0.4429540000000 1.0
C      1  0.4831540000000  0.4774790000000  0.6349770000000 1.0
C      1  0.4868840000000  0.5240570000000  0.4861430000000 1.0
C      1  0.6331070000000  0.5004000000000  0.4715090000000 1.0
C      1  0.4120300000000  0.4300310000000  0.5100480000000 1.0
C      1  0.4620410000000  0.4078930000000  0.4357660000000 1.0
C      1  0.4386660000000  0.5514720000000  0.4950450000000 1.0
C      1  0.4540540000000  0.4267210000000  0.6219390000000 1.0
C      1  0.5540380000000  0.5234490000000  0.6088980000000 1.0
C      1  0.4408040000000  0.4044340000000  0.4825350000000 1.0
C      1  0.6168730000000  0.5500970000000  0.4685280000000 1.0
C      1  0.4442020000000  0.3928970000000  0.5109010000000 1.0
C      1  0.3930850000000  0.4804620000000  0.4524990000000 1.0
C      1  0.5932600000000  0.4799950000000  0.5263020000000 1.0
C      1  0.5759800000000  0.4544940000000  0.4572770000000 1.0
C      1  0.5584450000000  0.6090540000000  0.5624820000000 1.0
C      1  0.5049240000000  0.4814650000000  0.3702340000000 1.0
C      1  0.5210350000000  0.5093810000000  0.6482640000000 1.0
C      1  0.4863420000000  0.6011890000000  0.5120090000000 1.0
C      1  0.5985340000000  0.4811100000000  0.5759420000000 1.0
C      1  0.3996460000000  0.5352800000000  0.4778250000000 1.0
C      1  0.4628010000000  0.3987180000000  0.4638270000000 1.0
C      1  0.5009220000000  0.4639970000000  0.6156450000000 1.0
C      1  0.4985080000000  0.5017070000000  0.5006600000000 1.0
C      1  0.5130830000000  0.5763450000000  0.5422980000000 1.0
C      1  0.4688640000000  0.4742570000000  0.4397260000000 1.0
END
