TITL C-3866670-4165-752 39043.6153702202 125000 -973.697971964571 0 0 160 (C1) n - 1
REM
REM in /home/nfs/bkarasulu/CARBON/AIRSS/Generating-Clusters/LCBOP/Only-C1/SD-CG/FIRE-CG
REM
REM
REM
REM
REM
REM ./C.cell (11c1c37f851c82e70ff6c80c92926a4b)
REM AIRSS Version 0.9.1 bugfix July 2018 build 013d7b7c2542+ Fri, 06 Jul 2018 19:26:36 +0100
REM compiler GCC version 9.2.1 20190827 (Red Hat 9.2.1-1)
REM options -cpp -mtune=generic -march=x86-64 -g -O0 -fpre-include=/usr/include/finclude/math-vector-fortran.h
REM seed -1882184773 -1338876749 677878169 -1549630309 2065185710 -1080624378 -650045333 162794893 -1734097228 -363319396 -680148748 1529346023 -6414243 1981844452 1767604092 -1451822237 -1158486618 -1992140285 -1442878633 -754050782 971009921 -1605525769 -146325297 189349587 -1090125398 1023141952 -1577985081 -1881711150 1036001168 835355128 1729060483 -1074524303 1946736441
REM
CELL 1.54180   50.00000   50.00000   50.00000   90.00000   90.00000   90.00000
LATT -1
SFAC C  
C      1  0.5102170000000  0.6325470000000  0.4812880000000 1.0
C      1  0.4659970000000  0.5215760000000  0.6158620000000 1.0
C      1  0.4980560000000  0.5379420000000  0.5092460000000 1.0
C      1  0.6324520000000  0.4706110000000  0.5390850000000 1.0
C      1  0.5354010000000  0.3934190000000  0.4654060000000 1.0
C      1  0.5203970000000  0.4856320000000  0.5012060000000 1.0
C      1  0.4747800000000  0.5429340000000  0.5984790000000 1.0
C      1  0.4246030000000  0.4989870000000  0.4012150000000 1.0
C      1  0.5342220000000  0.3936210000000  0.4965900000000 1.0
C      1  0.4575810000000  0.4476680000000  0.5084860000000 1.0
C      1  0.5794600000000  0.4544810000000  0.4523680000000 1.0
C      1  0.4978790000000  0.4742670000000  0.4268150000000 1.0
C      1  0.5162210000000  0.4294180000000  0.4349990000000 1.0
C      1  0.4204300000000  0.4336970000000  0.4437300000000 1.0
C      1  0.4206040000000  0.4734620000000  0.5195430000000 1.0
C      1  0.5891080000000  0.4912330000000  0.3591470000000 1.0
C      1  0.5357140000000  0.5725760000000  0.4255580000000 1.0
C      1  0.5590280000000  0.4065780000000  0.5062980000000 1.0
C      1  0.5241660000000  0.4844520000000  0.5977890000000 1.0
C      1  0.5052710000000  0.5792010000000  0.5958270000000 1.0
C      1  0.5119170000000  0.5000010000000  0.4337540000000 1.0
C      1  0.5498150000000  0.4518200000000  0.4931010000000 1.0
C      1  0.4491800000000  0.5308680000000  0.4936410000000 1.0
C      1  0.5871820000000  0.4966860000000  0.4762930000000 1.0
C      1  0.5731730000000  0.4141930000000  0.5297100000000 1.0
C      1  0.5904060000000  0.4901770000000  0.4129130000000 1.0
C      1  0.4842090000000  0.4480720000000  0.6091420000000 1.0
C      1  0.5124920000000  0.5042130000000  0.6165480000000 1.0
C      1  0.4881910000000  0.4154740000000  0.5644150000000 1.0
C      1  0.5921950000000  0.5313170000000  0.5502860000000 1.0
C      1  0.4625060000000  0.4972490000000  0.5139700000000 1.0
C      1  0.5275200000000  0.4545560000000  0.5921120000000 1.0
C      1  0.4582120000000  0.4521370000000  0.4263430000000 1.0
C      1  0.5090080000000  0.3925880000000  0.5140990000000 1.0
C      1  0.5233480000000  0.5364760000000  0.4941190000000 1.0
C      1  0.5936240000000  0.4656400000000  0.4277820000000 1.0
C      1  0.4196300000000  0.4749300000000  0.4122870000000 1.0
C      1  0.5141930000000  0.4840210000000  0.5501110000000 1.0
C      1  0.5085560000000  0.5838980000000  0.4248310000000 1.0
C      1  0.6130560000000  0.4800070000000  0.5221800000000 1.0
C      1  0.4647720000000  0.4461510000000  0.5363890000000 1.0
C      1  0.4849680000000  0.5777620000000  0.4074330000000 1.0
C      1  0.4873310000000  0.5121070000000  0.5179290000000 1.0
C      1  0.5910690000000  0.4907400000000  0.3851290000000 1.0
C      1  0.4757740000000  0.4381920000000  0.4087530000000 1.0
C      1  0.5579360000000  0.5842360000000  0.4412580000000 1.0
C      1  0.5366820000000  0.5443030000000  0.4204800000000 1.0
C      1  0.5622910000000  0.4002340000000  0.4544080000000 1.0
C      1  0.5365150000000  0.5431210000000  0.5557310000000 1.0
C      1  0.3842890000000  0.5056830000000  0.5240760000000 1.0
C      1  0.5086960000000  0.5464520000000  0.5589400000000 1.0
C      1  0.5249020000000  0.4433630000000  0.4806500000000 1.0
C      1  0.4738270000000  0.4685470000000  0.4444810000000 1.0
C      1  0.4125300000000  0.5638450000000  0.5659360000000 1.0
C      1  0.5401950000000  0.4917140000000  0.4414100000000 1.0
C      1  0.5631350000000  0.5669960000000  0.5151370000000 1.0
C      1  0.4152640000000  0.5604160000000  0.4556860000000 1.0
C      1  0.3898010000000  0.5364110000000  0.5257280000000 1.0
C      1  0.4863580000000  0.5551680000000  0.3604200000000 1.0
C      1  0.5489290000000  0.5169260000000  0.4532380000000 1.0
C      1  0.4925860000000  0.5319190000000  0.5771730000000 1.0
C      1  0.5477650000000  0.4793560000000  0.4994700000000 1.0
C      1  0.4504300000000  0.5140690000000  0.5728700000000 1.0
C      1  0.3962680000000  0.5481260000000  0.4992470000000 1.0
C      1  0.4780100000000  0.4716470000000  0.4728050000000 1.0
C      1  0.5100520000000  0.4966580000000  0.5240910000000 1.0
C      1  0.6151690000000  0.5559780000000  0.4655980000000 1.0
C      1  0.4346230000000  0.5690550000000  0.5801470000000 1.0
C      1  0.4064460000000  0.5060810000000  0.5654710000000 1.0
C      1  0.5494430000000  0.4652300000000  0.4462760000000 1.0
C      1  0.3936570000000  0.4857320000000  0.5539520000000 1.0
C      1  0.5912870000000  0.4677190000000  0.4800780000000 1.0
C      1  0.5041300000000  0.3999370000000  0.5432950000000 1.0
C      1  0.5494750000000  0.5302780000000  0.6012610000000 1.0
C      1  0.4564470000000  0.5771950000000  0.4648360000000 1.0
C      1  0.5021920000000  0.4373780000000  0.5889180000000 1.0
C      1  0.5058380000000  0.4428530000000  0.5258590000000 1.0
C      1  0.4135710000000  0.5685650000000  0.4855500000000 1.0
C      1  0.4377700000000  0.4955370000000  0.5294090000000 1.0
C      1  0.5861920000000  0.4902900000000  0.5795000000000 1.0
C      1  0.4814790000000  0.5593980000000  0.5211740000000 1.0
C      1  0.4839090000000  0.5806490000000  0.5743080000000 1.0
C      1  0.4127020000000  0.5314300000000  0.4590090000000 1.0
C      1  0.4727730000000  0.5328060000000  0.3546500000000 1.0
C      1  0.4650840000000  0.4664100000000  0.5575380000000 1.0
C      1  0.4828160000000  0.5678810000000  0.4585310000000 1.0
C      1  0.4523450000000  0.5678260000000  0.4170980000000 1.0
C      1  0.4559820000000  0.4242710000000  0.5515600000000 1.0
C      1  0.5155810000000  0.4026730000000  0.4459200000000 1.0
C      1  0.4426930000000  0.4664620000000  0.5777430000000 1.0
C      1  0.4115910000000  0.4455440000000  0.5275490000000 1.0
C      1  0.4475500000000  0.4790870000000  0.6027760000000 1.0
C      1  0.5993770000000  0.5324650000000  0.5228810000000 1.0
C      1  0.4024820000000  0.4486970000000  0.4841170000000 1.0
C      1  0.4625770000000  0.5243290000000  0.4476550000000 1.0
C      1  0.5536630000000  0.4516070000000  0.5786570000000 1.0
C      1  0.5661710000000  0.4288570000000  0.4890390000000 1.0
C      1  0.5763480000000  0.4663450000000  0.5873400000000 1.0
C      1  0.5003190000000  0.5889420000000  0.4516240000000 1.0
C      1  0.5751270000000  0.4249730000000  0.4615880000000 1.0
C      1  0.4423550000000  0.5751370000000  0.4904740000000 1.0
C      1  0.4536550000000  0.5179890000000  0.3663270000000 1.0
C      1  0.4396610000000  0.5181330000000  0.4665490000000 1.0
C      1  0.5307630000000  0.4967260000000  0.5717120000000 1.0
C      1  0.4849020000000  0.4994760000000  0.6229870000000 1.0
C      1  0.4211620000000  0.4354760000000  0.5522400000000 1.0
C      1  0.3934730000000  0.4356990000000  0.5080730000000 1.0
C      1  0.5880000000000  0.5538250000000  0.5067570000000 1.0
C      1  0.4859720000000  0.4849100000000  0.5603330000000 1.0
C      1  0.5671380000000  0.5770020000000  0.4679860000000 1.0
C      1  0.5776010000000  0.5142150000000  0.5669980000000 1.0
C      1  0.5940430000000  0.4615740000000  0.5101880000000 1.0
C      1  0.5513450000000  0.4506920000000  0.5499520000000 1.0
C      1  0.4724210000000  0.4728710000000  0.6166270000000 1.0
C      1  0.4386230000000  0.5208720000000  0.3900770000000 1.0
C      1  0.4841780000000  0.3910770000000  0.4991000000000 1.0
C      1  0.4620210000000  0.4033010000000  0.4896270000000 1.0
C      1  0.5605760000000  0.5297180000000  0.4302330000000 1.0
C      1  0.5243460000000  0.4567810000000  0.5420820000000 1.0
C      1  0.5062390000000  0.6112350000000  0.4668290000000 1.0
C      1  0.3960730000000  0.5519440000000  0.5484400000000 1.0
C      1  0.4238260000000  0.4339020000000  0.4717260000000 1.0
C      1  0.5856600000000  0.5138420000000  0.4286250000000 1.0
C      1  0.4386400000000  0.5726730000000  0.4423340000000 1.0
C      1  0.4412700000000  0.5463920000000  0.4021930000000 1.0
C      1  0.5918660000000  0.5638700000000  0.4788840000000 1.0
C      1  0.4298930000000  0.4898470000000  0.4713380000000 1.0
C      1  0.4094510000000  0.4778820000000  0.4901590000000 1.0
C      1  0.5025200000000  0.4848620000000  0.4796350000000 1.0
C      1  0.5053790000000  0.4375410000000  0.4994140000000 1.0
C      1  0.4449740000000  0.5076860000000  0.6007360000000 1.0
C      1  0.4637150000000  0.4727460000000  0.4969240000000 1.0
C      1  0.4914490000000  0.5676270000000  0.5480670000000 1.0
C      1  0.3892560000000  0.4999800000000  0.4955350000000 1.0
C      1  0.4305350000000  0.4524510000000  0.4254860000000 1.0
C      1  0.5246560000000  0.5318110000000  0.6153400000000 1.0
C      1  0.5459310000000  0.5230830000000  0.4808380000000 1.0
C      1  0.5990670000000  0.5118620000000  0.4547520000000 1.0
C      1  0.5718080000000  0.6047180000000  0.4288370000000 1.0
C      1  0.5630570000000  0.5024510000000  0.4920410000000 1.0
C      1  0.4163870000000  0.4588250000000  0.5686500000000 1.0
C      1  0.4614610000000  0.5667450000000  0.5876460000000 1.0
C      1  0.5101600000000  0.5301620000000  0.4248480000000 1.0
C      1  0.4775610000000  0.5106790000000  0.5670070000000 1.0
C      1  0.5505560000000  0.5603130000000  0.5388720000000 1.0
C      1  0.4897250000000  0.5728270000000  0.3802120000000 1.0
C      1  0.5026990000000  0.4460140000000  0.4157810000000 1.0
C      1  0.6197970000000  0.5304430000000  0.4585510000000 1.0
C      1  0.3933120000000  0.5246170000000  0.4802620000000 1.0
C      1  0.4315410000000  0.5103430000000  0.5535240000000 1.0
C      1  0.4856570000000  0.5418620000000  0.4433580000000 1.0
C      1  0.5743330000000  0.4430020000000  0.5333990000000 1.0
C      1  0.5520810000000  0.5810850000000  0.4925920000000 1.0
C      1  0.5490420000000  0.5213300000000  0.5722070000000 1.0
C      1  0.5028220000000  0.5056100000000  0.4617330000000 1.0
C      1  0.4557960000000  0.5560980000000  0.5071070000000 1.0
C      1  0.5142090000000  0.5591980000000  0.6132020000000 1.0
C      1  0.5293240000000  0.4463440000000  0.4531690000000 1.0
C      1  0.4469780000000  0.4274740000000  0.4895630000000 1.0
C      1  0.6118790000000  0.5079040000000  0.5155090000000 1.0
END
