TITL C-3866671-3735-233 0.434270641738439 125000 -616.351085469214 0 0 102 (C1) n - 1
REM
REM in /home/nfs/bkarasulu/CARBON/AIRSS/Generating-Clusters/LCBOP/Only-C1/SD-CG/HFTN-CG/FIRE-CG
REM
REM
REM
REM
REM
REM ./C.cell (11c1c37f851c82e70ff6c80c92926a4b)
REM AIRSS Version 0.9.1 bugfix July 2018 build 013d7b7c2542+ Fri, 06 Jul 2018 19:26:36 +0100
REM compiler GCC version 9.2.1 20190827 (Red Hat 9.2.1-1)
REM options -cpp -mtune=generic -march=x86-64 -g -O0 -fpre-include=/usr/include/finclude/math-vector-fortran.h
REM seed -935420188 -452153342 -1980242212 -1413969778 186169346 -1519335823 -1654304038 -1286110877 -829438993 -805527378 -1492872900 847147759 -1135824914 1041120032 -1791271847 -709396611 1768222491 515014535 -1771972858 1222154331 -232288898 -925737890 674337338 -735431231 -1795695015 1037077630 -2066539714 2112248862 257930894 1276023421 35385009 -1266398515 -623682362
REM
CELL 1.54180   50.00000   50.00000   50.00000   90.00000   90.00000   90.00000
LATT -1
SFAC C  
C      1  0.4598590000000  0.4279160000000  0.4582000000000 1.0
C      1  0.5670200000000  0.4339200000000  0.4671080000000 1.0
C      1  0.4642270000000  0.4198840000000  0.5385360000000 1.0
C      1  0.4247830000000  0.5330450000000  0.4930350000000 1.0
C      1  0.4612700000000  0.4877030000000  0.4396870000000 1.0
C      1  0.4211940000000  0.4871500000000  0.4727580000000 1.0
C      1  0.4718920000000  0.4041180000000  0.4697130000000 1.0
C      1  0.5099900000000  0.5585540000000  0.4454870000000 1.0
C      1  0.5163320000000  0.5893510000000  0.5078550000000 1.0
C      1  0.4836170000000  0.4705240000000  0.4365340000000 1.0
C      1  0.4928490000000  0.5808600000000  0.4477890000000 1.0
C      1  0.4754560000000  0.5051540000000  0.5296050000000 1.0
C      1  0.5967610000000  0.5285170000000  0.4137610000000 1.0
C      1  0.5592510000000  0.5341530000000  0.5397320000000 1.0
C      1  0.4238080000000  0.5360350000000  0.5517900000000 1.0
C      1  0.5171240000000  0.4535970000000  0.4946330000000 1.0
C      1  0.5165000000000  0.4530920000000  0.5512020000000 1.0
C      1  0.4176570000000  0.5084010000000  0.5498110000000 1.0
C      1  0.5131400000000  0.5414470000000  0.5394940000000 1.0
C      1  0.5438900000000  0.4149210000000  0.4733000000000 1.0
C      1  0.4140110000000  0.4951020000000  0.5235390000000 1.0
C      1  0.4604320000000  0.5275860000000  0.5237290000000 1.0
C      1  0.4910640000000  0.4468620000000  0.5011460000000 1.0
C      1  0.5103480000000  0.5191830000000  0.5568440000000 1.0
C      1  0.4855790000000  0.5958650000000  0.4255010000000 1.0
C      1  0.6013210000000  0.4845080000000  0.5385780000000 1.0
C      1  0.4392270000000  0.4962670000000  0.4525090000000 1.0
C      1  0.5272490000000  0.4681620000000  0.6043610000000 1.0
C      1  0.4717080000000  0.5321080000000  0.4760030000000 1.0
C      1  0.5466410000000  0.5291420000000  0.4682950000000 1.0
C      1  0.5649090000000  0.4474810000000  0.5418490000000 1.0
C      1  0.5876600000000  0.4629860000000  0.5464920000000 1.0
C      1  0.5049780000000  0.5034120000000  0.4931940000000 1.0
C      1  0.5567310000000  0.5094170000000  0.4930130000000 1.0
C      1  0.4720530000000  0.4665290000000  0.5025400000000 1.0
C      1  0.5395440000000  0.4592490000000  0.5361880000000 1.0
C      1  0.4983440000000  0.4732260000000  0.5578670000000 1.0
C      1  0.5309010000000  0.4966760000000  0.5022840000000 1.0
C      1  0.4336190000000  0.4909170000000  0.5681180000000 1.0
C      1  0.5672270000000  0.4426580000000  0.4393730000000 1.0
C      1  0.4646190000000  0.6387900000000  0.3619700000000 1.0
C      1  0.5528650000000  0.5574250000000  0.4804830000000 1.0
C      1  0.4374640000000  0.4647950000000  0.5549410000000 1.0
C      1  0.4654960000000  0.5260790000000  0.5938050000000 1.0
C      1  0.5963850000000  0.5071510000000  0.5251210000000 1.0
C      1  0.4848220000000  0.5471810000000  0.5898890000000 1.0
C      1  0.5124830000000  0.5409830000000  0.5969370000000 1.0
C      1  0.4978570000000  0.5227200000000  0.4745210000000 1.0
C      1  0.5101460000000  0.4826040000000  0.4328720000000 1.0
C      1  0.6177040000000  0.5363040000000  0.4003310000000 1.0
C      1  0.5298600000000  0.4938620000000  0.5967240000000 1.0
C      1  0.4831820000000  0.4915620000000  0.5065170000000 1.0
C      1  0.4785960000000  0.6101680000000  0.4043300000000 1.0
C      1  0.5284100000000  0.5197520000000  0.5813820000000 1.0
C      1  0.5753690000000  0.4564940000000  0.4830690000000 1.0
C      1  0.5026840000000  0.4248330000000  0.4366100000000 1.0
C      1  0.5755500000000  0.5205230000000  0.4274680000000 1.0
C      1  0.5538440000000  0.5116960000000  0.4428920000000 1.0
C      1  0.5346410000000  0.4049700000000  0.5001210000000 1.0
C      1  0.5236570000000  0.6063620000000  0.5281800000000 1.0
C      1  0.5548140000000  0.4029690000000  0.5199200000000 1.0
C      1  0.4833420000000  0.5873240000000  0.4735420000000 1.0
C      1  0.4321120000000  0.4180440000000  0.4960810000000 1.0
C      1  0.4455250000000  0.4113120000000  0.5186340000000 1.0
C      1  0.5731340000000  0.4836720000000  0.4842800000000 1.0
C      1  0.4532650000000  0.5311440000000  0.4965640000000 1.0
C      1  0.4507540000000  0.6671840000000  0.3199480000000 1.0
C      1  0.5214960000000  0.4418520000000  0.6020330000000 1.0
C      1  0.4487440000000  0.5450820000000  0.5424010000000 1.0
C      1  0.4935400000000  0.4132610000000  0.5362670000000 1.0
C      1  0.4535880000000  0.4408910000000  0.5562100000000 1.0
C      1  0.5062700000000  0.4029280000000  0.5101350000000 1.0
C      1  0.5371010000000  0.5764920000000  0.4923140000000 1.0
C      1  0.4643920000000  0.5689120000000  0.5457650000000 1.0
C      1  0.5669980000000  0.4199190000000  0.5366830000000 1.0
C      1  0.5093500000000  0.4260830000000  0.5570700000000 1.0
C      1  0.4881450000000  0.5866470000000  0.5015640000000 1.0
C      1  0.5374570000000  0.5502300000000  0.5321030000000 1.0
C      1  0.5327870000000  0.4699420000000  0.5111660000000 1.0
C      1  0.5723270000000  0.5202180000000  0.5181640000000 1.0
C      1  0.4499480000000  0.5049260000000  0.5868980000000 1.0
C      1  0.4917660000000  0.4994060000000  0.5514900000000 1.0
C      1  0.4351570000000  0.4344520000000  0.4724330000000 1.0
C      1  0.4784590000000  0.5680380000000  0.5706860000000 1.0
C      1  0.5231770000000  0.4265210000000  0.4558340000000 1.0
C      1  0.4649290000000  0.5823590000000  0.5192850000000 1.0
C      1  0.4202960000000  0.5614100000000  0.4967910000000 1.0
C      1  0.4456790000000  0.4622930000000  0.5082770000000 1.0
C      1  0.4576290000000  0.6531050000000  0.3407850000000 1.0
C      1  0.4716070000000  0.6244790000000  0.3831500000000 1.0
C      1  0.5174650000000  0.5356860000000  0.4601170000000 1.0
C      1  0.4144770000000  0.5055610000000  0.4956820000000 1.0
C      1  0.5557490000000  0.5258780000000  0.5675200000000 1.0
C      1  0.5389400000000  0.4875420000000  0.4342940000000 1.0
C      1  0.4274680000000  0.4696950000000  0.5277280000000 1.0
C      1  0.5220270000000  0.4525030000000  0.4675770000000 1.0
C      1  0.5138900000000  0.4220430000000  0.5848640000000 1.0
C      1  0.5555550000000  0.4647460000000  0.4286800000000 1.0
C      1  0.4876840000000  0.3953090000000  0.4896180000000 1.0
C      1  0.4387180000000  0.5800450000000  0.5057590000000 1.0
C      1  0.4791140000000  0.4415960000000  0.4406310000000 1.0
C      1  0.4193220000000  0.4583740000000  0.4714380000000 1.0
END
