TITL C-3866672-3872-642 168.613794077709 125000 -890.490333544268 0 0 146 (C1) n - 1
REM
REM in /home/nfs/bkarasulu/CARBON/AIRSS/Generating-Clusters/LCBOP/Only-C1/SD-CG/FIRE-CG
REM
REM
REM
REM
REM
REM ./C.cell (11c1c37f851c82e70ff6c80c92926a4b)
REM AIRSS Version 0.9.1 bugfix July 2018 build 013d7b7c2542+ Fri, 06 Jul 2018 19:26:36 +0100
REM compiler GCC version 9.2.1 20190827 (Red Hat 9.2.1-1)
REM options -cpp -mtune=generic -march=x86-64 -g -O0 -fpre-include=/usr/include/finclude/math-vector-fortran.h
REM seed 219357684 -1297764442 1356360791 465305229 -812774755 95646127 1224577212 115402441 1486047097 950223354 -1380812957 65252142 -351060434 812036026 -444326554 -1381484804 -443607045 -386122963 -1270646079 368458997 -547097727 2123753454 -1965598921 -1295123020 235292624 -1721918387 423508456 830969543 -959672498 775821089 1898787267 -86255323 -1895349715
REM
CELL 1.54180   50.00000   50.00000   50.00000   90.00000   90.00000   90.00000
LATT -1
SFAC C  
C      1  0.5740280000000  0.4786960000000  0.5589610000000 1.0
C      1  0.4221890000000  0.5558370000000  0.4486560000000 1.0
C      1  0.5406520000000  0.6242680000000  0.4408700000000 1.0
C      1  0.5080500000000  0.5084370000000  0.4292450000000 1.0
C      1  0.6311760000000  0.4757460000000  0.5447130000000 1.0
C      1  0.5459080000000  0.5278430000000  0.4893220000000 1.0
C      1  0.4373100000000  0.4726600000000  0.3662560000000 1.0
C      1  0.5236100000000  0.4438640000000  0.3933520000000 1.0
C      1  0.4672730000000  0.4588650000000  0.4129360000000 1.0
C      1  0.4771750000000  0.5551600000000  0.5777300000000 1.0
C      1  0.5820940000000  0.4329100000000  0.5061470000000 1.0
C      1  0.4228420000000  0.4135080000000  0.4832400000000 1.0
C      1  0.5516770000000  0.4405090000000  0.5758570000000 1.0
C      1  0.5276150000000  0.3743930000000  0.5251050000000 1.0
C      1  0.5057590000000  0.5221540000000  0.6083640000000 1.0
C      1  0.5650800000000  0.4394730000000  0.4555060000000 1.0
C      1  0.4679280000000  0.5916280000000  0.4423370000000 1.0
C      1  0.4166290000000  0.5027600000000  0.5200100000000 1.0
C      1  0.5043420000000  0.5313110000000  0.5359290000000 1.0
C      1  0.5285340000000  0.4998060000000  0.4481670000000 1.0
C      1  0.5516190000000  0.4797060000000  0.4085470000000 1.0
C      1  0.4307990000000  0.3953230000000  0.6543220000000 1.0
C      1  0.4754930000000  0.4488950000000  0.3880380000000 1.0
C      1  0.5707470000000  0.4675320000000  0.4505490000000 1.0
C      1  0.5045000000000  0.5383270000000  0.6312340000000 1.0
C      1  0.5598200000000  0.5890090000000  0.5007890000000 1.0
C      1  0.4438160000000  0.5568200000000  0.4666770000000 1.0
C      1  0.4130030000000  0.4290230000000  0.5031990000000 1.0
C      1  0.5272830000000  0.4729480000000  0.3942380000000 1.0
C      1  0.4776360000000  0.4552160000000  0.5248670000000 1.0
C      1  0.4944070000000  0.4046930000000  0.3915180000000 1.0
C      1  0.5641210000000  0.4875200000000  0.4927190000000 1.0
C      1  0.5018830000000  0.4537900000000  0.6195740000000 1.0
C      1  0.6076020000000  0.4670460000000  0.5316650000000 1.0
C      1  0.5036890000000  0.5394680000000  0.4639150000000 1.0
C      1  0.5535220000000  0.5398560000000  0.5431150000000 1.0
C      1  0.5923230000000  0.5529540000000  0.4784060000000 1.0
C      1  0.5678650000000  0.4553800000000  0.4023840000000 1.0
C      1  0.4730430000000  0.5847330000000  0.5405300000000 1.0
C      1  0.6319150000000  0.4976430000000  0.5610240000000 1.0
C      1  0.4225400000000  0.4882560000000  0.3822490000000 1.0
C      1  0.6158910000000  0.5170450000000  0.5710260000000 1.0
C      1  0.4231170000000  0.5788980000000  0.5322970000000 1.0
C      1  0.4162870000000  0.3777970000000  0.6679040000000 1.0
C      1  0.4532650000000  0.5050340000000  0.4680550000000 1.0
C      1  0.5083560000000  0.4453430000000  0.4661830000000 1.0
C      1  0.5212900000000  0.5168500000000  0.4747060000000 1.0
C      1  0.4644720000000  0.5091660000000  0.5277550000000 1.0
C      1  0.4985930000000  0.4321780000000  0.3878290000000 1.0
C      1  0.4949770000000  0.5331040000000  0.4354010000000 1.0
C      1  0.4464610000000  0.5761590000000  0.5473860000000 1.0
C      1  0.4803540000000  0.6466890000000  0.5037000000000 1.0
C      1  0.5182200000000  0.6357590000000  0.4319790000000 1.0
C      1  0.4598180000000  0.4303670000000  0.6271640000000 1.0
C      1  0.5553320000000  0.5260850000000  0.5179090000000 1.0
C      1  0.4161330000000  0.4747400000000  0.5213280000000 1.0
C      1  0.4630810000000  0.4392850000000  0.4824240000000 1.0
C      1  0.4373520000000  0.5160070000000  0.5338790000000 1.0
C      1  0.4488070000000  0.4166610000000  0.4721490000000 1.0
C      1  0.5451620000000  0.4285450000000  0.4361390000000 1.0
C      1  0.5198480000000  0.4971570000000  0.6107740000000 1.0
C      1  0.4750940000000  0.4487530000000  0.6128840000000 1.0
C      1  0.5180050000000  0.4297000000000  0.4448120000000 1.0
C      1  0.4226620000000  0.5523270000000  0.4205200000000 1.0
C      1  0.5468830000000  0.4537090000000  0.6014650000000 1.0
C      1  0.4432270000000  0.5673220000000  0.4082150000000 1.0
C      1  0.5786440000000  0.4254710000000  0.4778740000000 1.0
C      1  0.5579360000000  0.5580880000000  0.4294290000000 1.0
C      1  0.3729820000000  0.3254990000000  0.7084320000000 1.0
C      1  0.3960190000000  0.5440740000000  0.5056990000000 1.0
C      1  0.5129390000000  0.5826750000000  0.4821210000000 1.0
C      1  0.5402290000000  0.5743430000000  0.4436250000000 1.0
C      1  0.5506860000000  0.4843570000000  0.4371990000000 1.0
C      1  0.4930150000000  0.5318660000000  0.5845260000000 1.0
C      1  0.4200400000000  0.5013350000000  0.4069800000000 1.0
C      1  0.4834870000000  0.5758440000000  0.4905610000000 1.0
C      1  0.5247220000000  0.4688560000000  0.6125120000000 1.0
C      1  0.5386030000000  0.5975880000000  0.4836000000000 1.0
C      1  0.5164820000000  0.4634030000000  0.5529580000000 1.0
C      1  0.4590460000000  0.4567940000000  0.3666500000000 1.0
C      1  0.4915520000000  0.5748950000000  0.5606200000000 1.0
C      1  0.5731150000000  0.4490720000000  0.5585100000000 1.0
C      1  0.4643500000000  0.4629660000000  0.5912140000000 1.0
C      1  0.4017750000000  0.3602710000000  0.6814850000000 1.0
C      1  0.5639160000000  0.5245180000000  0.5653590000000 1.0
C      1  0.5059350000000  0.5039900000000  0.4972210000000 1.0
C      1  0.4025140000000  0.5173290000000  0.4998770000000 1.0
C      1  0.5176940000000  0.5547670000000  0.3707660000000 1.0
C      1  0.4782850000000  0.5936190000000  0.5143610000000 1.0
C      1  0.4279540000000  0.4504850000000  0.5141620000000 1.0
C      1  0.4621170000000  0.5800190000000  0.4679420000000 1.0
C      1  0.5030500000000  0.4661480000000  0.5286950000000 1.0
C      1  0.5287110000000  0.3977290000000  0.5135450000000 1.0
C      1  0.5483230000000  0.4337320000000  0.4077520000000 1.0
C      1  0.5305020000000  0.4216370000000  0.5022550000000 1.0
C      1  0.4815530000000  0.4562940000000  0.4684690000000 1.0
C      1  0.5433590000000  0.5666030000000  0.5451860000000 1.0
C      1  0.5396540000000  0.4701750000000  0.4955670000000 1.0
C      1  0.5758970000000  0.5390630000000  0.4360200000000 1.0
C      1  0.3872590000000  0.3427410000000  0.6950710000000 1.0
C      1  0.4961220000000  0.5178960000000  0.5600890000000 1.0
C      1  0.4044790000000  0.5073840000000  0.4734960000000 1.0
C      1  0.5912250000000  0.5279670000000  0.5732530000000 1.0
C      1  0.4917900000000  0.6327380000000  0.4313650000000 1.0
C      1  0.5035180000000  0.5546710000000  0.3926320000000 1.0
C      1  0.4453110000000  0.4128490000000  0.6407400000000 1.0
C      1  0.4350240000000  0.5312560000000  0.5579090000000 1.0
C      1  0.4304090000000  0.4894380000000  0.4306010000000 1.0
C      1  0.4572680000000  0.5326740000000  0.4757590000000 1.0
C      1  0.5874240000000  0.4876110000000  0.5353540000000 1.0
C      1  0.4556330000000  0.4754300000000  0.4317410000000 1.0
C      1  0.5167690000000  0.4815410000000  0.5092460000000 1.0
C      1  0.5543560000000  0.4972060000000  0.5673510000000 1.0
C      1  0.5548340000000  0.5857210000000  0.5280950000000 1.0
C      1  0.5195430000000  0.5740780000000  0.5583430000000 1.0
C      1  0.4831310000000  0.5431490000000  0.4889130000000 1.0
C      1  0.4832290000000  0.3883610000000  0.4094200000000 1.0
C      1  0.4046660000000  0.5665460000000  0.5173840000000 1.0
C      1  0.4682410000000  0.5728560000000  0.4204320000000 1.0
C      1  0.5970860000000  0.4756090000000  0.4517770000000 1.0
C      1  0.5709170000000  0.5004970000000  0.5177790000000 1.0
C      1  0.5030540000000  0.5539000000000  0.6520790000000 1.0
C      1  0.4651060000000  0.4800420000000  0.5708670000000 1.0
C      1  0.4878410000000  0.5233220000000  0.5117090000000 1.0
C      1  0.4678980000000  0.6196300000000  0.4377950000000 1.0
C      1  0.4756640000000  0.4989340000000  0.5534060000000 1.0
C      1  0.5285740000000  0.4867240000000  0.5639210000000 1.0
C      1  0.5459100000000  0.6008060000000  0.4549470000000 1.0
C      1  0.5896850000000  0.4427860000000  0.5326000000000 1.0
C      1  0.4445120000000  0.6337350000000  0.4396480000000 1.0
C      1  0.4687800000000  0.4803870000000  0.4577470000000 1.0
C      1  0.4133870000000  0.5286690000000  0.4087030000000 1.0
C      1  0.5270220000000  0.4386830000000  0.5616850000000 1.0
C      1  0.4560470000000  0.4483870000000  0.5087510000000 1.0
C      1  0.4495030000000  0.5541270000000  0.5663780000000 1.0
C      1  0.5821730000000  0.5750960000000  0.4899840000000 1.0
C      1  0.4786760000000  0.6213540000000  0.5095590000000 1.0
C      1  0.5282090000000  0.4451580000000  0.4872320000000 1.0
C      1  0.4593500000000  0.3983040000000  0.4541270000000 1.0
C      1  0.4888560000000  0.5535510000000  0.4164730000000 1.0
C      1  0.4259480000000  0.5005590000000  0.4569000000000 1.0
C      1  0.5902710000000  0.4012340000000  0.4708840000000 1.0
C      1  0.5671100000000  0.5116630000000  0.4754830000000 1.0
C      1  0.4703630000000  0.3871700000000  0.4326870000000 1.0
C      1  0.5835310000000  0.5310930000000  0.4621310000000 1.0
C      1  0.5190270000000  0.5643180000000  0.4602380000000 1.0
END
