TITL C-3866676-3738-10 0.0761902601525563 125000 -643.713844091665 0 0 106 (C1) n - 1
REM
REM in /home/nfs/bkarasulu/CARBON/AIRSS/Generating-Clusters/LCBOP/Only-C1/SD-CG/HFTN-CG/FIRE-CG
REM
REM
REM
REM
REM
REM ./C.cell (11c1c37f851c82e70ff6c80c92926a4b)
REM AIRSS Version 0.9.1 bugfix July 2018 build 013d7b7c2542+ Fri, 06 Jul 2018 19:26:36 +0100
REM compiler GCC version 9.2.1 20190827 (Red Hat 9.2.1-1)
REM options -cpp -mtune=generic -march=x86-64 -g -O0 -fpre-include=/usr/include/finclude/math-vector-fortran.h
REM seed 2093170109 1122429522 -1965838559 -289346551 1063004071 2097351516 354065282 -1823643009 842063486 1043277407 251270607 -560630572 -513030206 -529590220 -1414155854 343263073 1646756481 -1027966174 545860127 468908087 1443209913 1803745976 1927438078 -911855522 1168428684 1340951723 -800228538 130090392 -890471774 -880815624 -217185373 -1103116626 2061271610
REM
CELL 1.54180   50.00000   50.00000   50.00000   90.00000   90.00000   90.00000
LATT -1
SFAC C  
C      1  0.5426610000000  0.4961200000000  0.5917940000000 1.0
C      1  0.5108580000000  0.5436720000000  0.4324580000000 1.0
C      1  0.4093640000000  0.4896900000000  0.5425470000000 1.0
C      1  0.5737520000000  0.4306680000000  0.5012200000000 1.0
C      1  0.4935600000000  0.4283140000000  0.5441270000000 1.0
C      1  0.4074070000000  0.4580420000000  0.6091040000000 1.0
C      1  0.4602320000000  0.5542620000000  0.4288700000000 1.0
C      1  0.4992720000000  0.4265500000000  0.4468870000000 1.0
C      1  0.5032620000000  0.5398420000000  0.5863600000000 1.0
C      1  0.4765980000000  0.5153440000000  0.4615510000000 1.0
C      1  0.5867470000000  0.5029390000000  0.4914820000000 1.0
C      1  0.4448850000000  0.5329860000000  0.4185090000000 1.0
C      1  0.5201160000000  0.4417830000000  0.3894640000000 1.0
C      1  0.4201930000000  0.4770140000000  0.4579050000000 1.0
C      1  0.5319750000000  0.4817020000000  0.5705970000000 1.0
C      1  0.5633150000000  0.5119980000000  0.5976480000000 1.0
C      1  0.4335550000000  0.5173180000000  0.5745110000000 1.0
C      1  0.4923430000000  0.5341100000000  0.4764470000000 1.0
C      1  0.5670070000000  0.5874050000000  0.4345300000000 1.0
C      1  0.4279690000000  0.4429280000000  0.5144780000000 1.0
C      1  0.5492260000000  0.4178410000000  0.4847360000000 1.0
C      1  0.4730760000000  0.5851530000000  0.4653020000000 1.0
C      1  0.4558230000000  0.5674250000000  0.5070230000000 1.0
C      1  0.5863200000000  0.5026030000000  0.5203050000000 1.0
C      1  0.5688980000000  0.5031100000000  0.4464170000000 1.0
C      1  0.5307390000000  0.5679700000000  0.4695190000000 1.0
C      1  0.5560580000000  0.5704950000000  0.5101440000000 1.0
C      1  0.5510530000000  0.4578160000000  0.4631210000000 1.0
C      1  0.4504000000000  0.4930160000000  0.5250810000000 1.0
C      1  0.5354050000000  0.4708830000000  0.5077500000000 1.0
C      1  0.5412660000000  0.4552610000000  0.5642470000000 1.0
C      1  0.4020590000000  0.4553680000000  0.6344780000000 1.0
C      1  0.5310930000000  0.5768380000000  0.4964360000000 1.0
C      1  0.4677570000000  0.4984270000000  0.5478620000000 1.0
C      1  0.5885460000000  0.4813490000000  0.4513120000000 1.0
C      1  0.5454450000000  0.4304010000000  0.4589010000000 1.0
C      1  0.4185960000000  0.4894940000000  0.4325260000000 1.0
C      1  0.5248740000000  0.5621310000000  0.5480550000000 1.0
C      1  0.4765420000000  0.5395350000000  0.5768170000000 1.0
C      1  0.4684080000000  0.5653530000000  0.5674880000000 1.0
C      1  0.5305380000000  0.4481690000000  0.4158660000000 1.0
C      1  0.5850210000000  0.5289070000000  0.5327660000000 1.0
C      1  0.4905560000000  0.5218260000000  0.5023380000000 1.0
C      1  0.4909980000000  0.4929140000000  0.5085650000000 1.0
C      1  0.4356640000000  0.5473260000000  0.5099650000000 1.0
C      1  0.4647690000000  0.4362100000000  0.5481120000000 1.0
C      1  0.4053860000000  0.4595480000000  0.5027350000000 1.0
C      1  0.4512920000000  0.4507600000000  0.4994630000000 1.0
C      1  0.5173580000000  0.4371720000000  0.5602920000000 1.0
C      1  0.4512380000000  0.5697590000000  0.4524020000000 1.0
C      1  0.5256240000000  0.4309320000000  0.4382390000000 1.0
C      1  0.5667450000000  0.4556460000000  0.5470420000000 1.0
C      1  0.5374610000000  0.4775090000000  0.4143040000000 1.0
C      1  0.5411300000000  0.5186010000000  0.4839380000000 1.0
C      1  0.5744780000000  0.5526900000000  0.5198070000000 1.0
C      1  0.5380610000000  0.5201140000000  0.5131670000000 1.0
C      1  0.5055210000000  0.5822990000000  0.5378290000000 1.0
C      1  0.5197400000000  0.5154690000000  0.3924530000000 1.0
C      1  0.4968390000000  0.5375510000000  0.5238800000000 1.0
C      1  0.5237930000000  0.4981790000000  0.4704890000000 1.0
C      1  0.4129790000000  0.4610490000000  0.5833810000000 1.0
C      1  0.5939090000000  0.4764720000000  0.4797750000000 1.0
C      1  0.5358390000000  0.4939600000000  0.5246080000000 1.0
C      1  0.5677840000000  0.5161560000000  0.4734350000000 1.0
C      1  0.4612490000000  0.4059840000000  0.4668630000000 1.0
C      1  0.4752150000000  0.4487020000000  0.4842510000000 1.0
C      1  0.4023120000000  0.4868140000000  0.5144800000000 1.0
C      1  0.5893910000000  0.4556950000000  0.4988680000000 1.0
C      1  0.5367130000000  0.4743400000000  0.4798210000000 1.0
C      1  0.4885870000000  0.4741560000000  0.4853460000000 1.0
C      1  0.4405440000000  0.4885180000000  0.4741580000000 1.0
C      1  0.5247100000000  0.5402200000000  0.5291980000000 1.0
C      1  0.4473210000000  0.4796350000000  0.5000500000000 1.0
C      1  0.4069390000000  0.5104510000000  0.4972580000000 1.0
C      1  0.5250480000000  0.4210580000000  0.5033950000000 1.0
C      1  0.4295040000000  0.5287370000000  0.4887380000000 1.0
C      1  0.4363730000000  0.4455140000000  0.5425450000000 1.0
C      1  0.5018950000000  0.4140620000000  0.5194470000000 1.0
C      1  0.4787030000000  0.4271720000000  0.4659840000000 1.0
C      1  0.4033830000000  0.4598650000000  0.4736100000000 1.0
C      1  0.4198850000000  0.4654650000000  0.5566050000000 1.0
C      1  0.5345030000000  0.4446960000000  0.5174920000000 1.0
C      1  0.5128060000000  0.5474400000000  0.4614760000000 1.0
C      1  0.5462200000000  0.5024160000000  0.4285160000000 1.0
C      1  0.5827320000000  0.5251560000000  0.5848840000000 1.0
C      1  0.5245880000000  0.4877650000000  0.3885240000000 1.0
C      1  0.5604910000000  0.4352400000000  0.5274330000000 1.0
C      1  0.5273760000000  0.5246600000000  0.4190870000000 1.0
C      1  0.4487600000000  0.5152810000000  0.4703800000000 1.0
C      1  0.5048680000000  0.5838670000000  0.5084530000000 1.0
C      1  0.4953430000000  0.4921480000000  0.4632420000000 1.0
C      1  0.4165730000000  0.5168500000000  0.5516760000000 1.0
C      1  0.5190370000000  0.4918440000000  0.5478050000000 1.0
C      1  0.4817570000000  0.5842660000000  0.5533230000000 1.0
C      1  0.4294970000000  0.5108520000000  0.4198820000000 1.0
C      1  0.4928180000000  0.4901280000000  0.5379480000000 1.0
C      1  0.5237080000000  0.5539380000000  0.5751840000000 1.0
C      1  0.4892160000000  0.5620280000000  0.4255730000000 1.0
C      1  0.4911670000000  0.5869350000000  0.4424540000000 1.0
C      1  0.5909810000000  0.5307490000000  0.5601590000000 1.0
C      1  0.4614810000000  0.5164050000000  0.5693210000000 1.0
C      1  0.4781130000000  0.5812180000000  0.4938610000000 1.0
C      1  0.4217230000000  0.5394270000000  0.5340690000000 1.0
C      1  0.5835940000000  0.4746070000000  0.5300810000000 1.0
C      1  0.5163500000000  0.4644740000000  0.3742380000000 1.0
C      1  0.5491460000000  0.5788500000000  0.4514670000000 1.0
END
