TITL C-3866670-4165-129 3664.27684743883 125000 -961.224059512946 0 0 159 (C1) n - 1
REM
REM in /home/nfs/bkarasulu/CARBON/AIRSS/Generating-Clusters/LCBOP/Only-C1/SD-CG/HFTN-CG/FIRE-CG
REM
REM
REM
REM
REM
REM ./C.cell (11c1c37f851c82e70ff6c80c92926a4b)
REM AIRSS Version 0.9.1 bugfix July 2018 build 013d7b7c2542+ Fri, 06 Jul 2018 19:26:36 +0100
REM compiler GCC version 9.2.1 20190827 (Red Hat 9.2.1-1)
REM options -cpp -mtune=generic -march=x86-64 -g -O0 -fpre-include=/usr/include/finclude/math-vector-fortran.h
REM seed 1574715044 1014287966 445732305 -1237693041 -1595454580 -1609710484 1234756472 -289650666 -354744918 1968301089 -2013878766 -1429120114 -735155344 -16348148 -1816555244 -1214901231 180364709 -789162160 1247173905 -1721627327 -796839849 1367526888 1003369886 305363353 -383324039 817651475 -1446454844 932662351 684105856 -1528084092 996206319 1413616547 -1331233252
REM
CELL 1.54180   50.00000   50.00000   50.00000   90.00000   90.00000   90.00000
LATT -1
SFAC C  
C      1  0.5562340000000  0.5969360000000  0.5022740000000 1.0
C      1  0.5019440000000  0.4556400000000  0.5577040000000 1.0
C      1  0.5556780000000  0.4475160000000  0.4257890000000 1.0
C      1  0.4755360000000  0.3339950000000  0.4850090000000 1.0
C      1  0.4609470000000  0.5010120000000  0.6170480000000 1.0
C      1  0.6025630000000  0.4810830000000  0.5234530000000 1.0
C      1  0.4666660000000  0.4902140000000  0.5107080000000 1.0
C      1  0.5245380000000  0.5956230000000  0.5792590000000 1.0
C      1  0.5401150000000  0.4646870000000  0.3635610000000 1.0
C      1  0.4796420000000  0.3866960000000  0.4958420000000 1.0
C      1  0.4389010000000  0.5338980000000  0.5377140000000 1.0
C      1  0.5431930000000  0.4105870000000  0.4813520000000 1.0
C      1  0.4530410000000  0.5507160000000  0.4842070000000 1.0
C      1  0.4587420000000  0.4048000000000  0.4876600000000 1.0
C      1  0.5758320000000  0.5535410000000  0.4888240000000 1.0
C      1  0.4643450000000  0.5871840000000  0.5622770000000 1.0
C      1  0.4658180000000  0.5521840000000  0.6011360000000 1.0
C      1  0.5162820000000  0.6161230000000  0.4254260000000 1.0
C      1  0.4272380000000  0.5113810000000  0.4038490000000 1.0
C      1  0.4490280000000  0.5765260000000  0.4726340000000 1.0
C      1  0.3978010000000  0.5032440000000  0.5585740000000 1.0
C      1  0.4641030000000  0.4213760000000  0.5390120000000 1.0
C      1  0.4766290000000  0.4432040000000  0.3898110000000 1.0
C      1  0.5872910000000  0.5581780000000  0.5150690000000 1.0
C      1  0.5026640000000  0.5108750000000  0.5406750000000 1.0
C      1  0.4404700000000  0.5377130000000  0.4062380000000 1.0
C      1  0.5486890000000  0.5932000000000  0.4726180000000 1.0
C      1  0.4185270000000  0.4319000000000  0.4695330000000 1.0
C      1  0.4269640000000  0.5132250000000  0.5232600000000 1.0
C      1  0.4295030000000  0.5146870000000  0.4597530000000 1.0
C      1  0.5527140000000  0.5122010000000  0.5943690000000 1.0
C      1  0.5355870000000  0.4025460000000  0.5492500000000 1.0
C      1  0.3883200000000  0.5005190000000  0.4848010000000 1.0
C      1  0.4969100000000  0.5605630000000  0.5419940000000 1.0
C      1  0.4180200000000  0.5783830000000  0.5366230000000 1.0
C      1  0.4313150000000  0.4062470000000  0.4774320000000 1.0
C      1  0.5044800000000  0.5251160000000  0.4372820000000 1.0
C      1  0.4884660000000  0.4315820000000  0.5974580000000 1.0
C      1  0.5187490000000  0.5987900000000  0.4701450000000 1.0
C      1  0.5485770000000  0.4897900000000  0.3605440000000 1.0
C      1  0.5155340000000  0.4698670000000  0.6033050000000 1.0
C      1  0.5458040000000  0.5024980000000  0.4371620000000 1.0
C      1  0.5167490000000  0.5097740000000  0.6276560000000 1.0
C      1  0.5108530000000  0.5176990000000  0.4642690000000 1.0
C      1  0.4016570000000  0.4340330000000  0.5147420000000 1.0
C      1  0.3862130000000  0.5468420000000  0.5035950000000 1.0
C      1  0.4013960000000  0.5188830000000  0.4652570000000 1.0
C      1  0.4921250000000  0.5023470000000  0.5123430000000 1.0
C      1  0.4515870000000  0.4734740000000  0.5540160000000 1.0
C      1  0.5247250000000  0.4856530000000  0.4248030000000 1.0
C      1  0.5527940000000  0.4355840000000  0.3997880000000 1.0
C      1  0.4543840000000  0.5766010000000  0.4444470000000 1.0
C      1  0.4357260000000  0.4474560000000  0.4523800000000 1.0
C      1  0.5676870000000  0.5921130000000  0.5493380000000 1.0
C      1  0.5250850000000  0.5596570000000  0.5436870000000 1.0
C      1  0.4612200000000  0.4682540000000  0.5269960000000 1.0
C      1  0.3935700000000  0.5688540000000  0.5223480000000 1.0
C      1  0.5518430000000  0.5149640000000  0.4854520000000 1.0
C      1  0.3914700000000  0.4721630000000  0.4846020000000 1.0
C      1  0.6063140000000  0.5132960000000  0.4701700000000 1.0
C      1  0.4589890000000  0.5246850000000  0.5549130000000 1.0
C      1  0.5004850000000  0.4994550000000  0.5677840000000 1.0
C      1  0.6020550000000  0.5317920000000  0.5205360000000 1.0
C      1  0.5533820000000  0.5146360000000  0.3688890000000 1.0
C      1  0.5534640000000  0.4573790000000  0.5632590000000 1.0
C      1  0.5806790000000  0.4486260000000  0.4910000000000 1.0
C      1  0.4019620000000  0.4458370000000  0.4888590000000 1.0
C      1  0.4796030000000  0.5886980000000  0.4389180000000 1.0
C      1  0.4757210000000  0.5546310000000  0.5002010000000 1.0
C      1  0.5481290000000  0.5994550000000  0.5665050000000 1.0
C      1  0.4636730000000  0.5410180000000  0.3902690000000 1.0
C      1  0.5416700000000  0.5383130000000  0.5438660000000 1.0
C      1  0.5634660000000  0.4896870000000  0.5780670000000 1.0
C      1  0.5856180000000  0.5016110000000  0.5624110000000 1.0
C      1  0.5827110000000  0.4604540000000  0.5179940000000 1.0
C      1  0.3836080000000  0.5170590000000  0.5094960000000 1.0
C      1  0.5046700000000  0.4394510000000  0.3855800000000 1.0
C      1  0.5046600000000  0.6007950000000  0.4451400000000 1.0
C      1  0.5095900000000  0.5433330000000  0.4159620000000 1.0
C      1  0.5040480000000  0.3964850000000  0.5086250000000 1.0
C      1  0.5316630000000  0.6092130000000  0.5130420000000 1.0
C      1  0.5060180000000  0.4749030000000  0.5773870000000 1.0
C      1  0.4620220000000  0.5275470000000  0.6117020000000 1.0
C      1  0.4724730000000  0.4491260000000  0.6109540000000 1.0
C      1  0.4399940000000  0.5583100000000  0.4269220000000 1.0
C      1  0.5551490000000  0.5590320000000  0.6014540000000 1.0
C      1  0.5700320000000  0.5359940000000  0.5968170000000 1.0
C      1  0.4846900000000  0.5348060000000  0.5463640000000 1.0
C      1  0.5076080000000  0.6047480000000  0.4975010000000 1.0
C      1  0.4377730000000  0.4582120000000  0.4237440000000 1.0
C      1  0.5326550000000  0.5119930000000  0.5387430000000 1.0
C      1  0.4394110000000  0.4506710000000  0.5661610000000 1.0
C      1  0.4981310000000  0.4980860000000  0.4268640000000 1.0
C      1  0.5402220000000  0.3743320000000  0.4416290000000 1.0
C      1  0.4313500000000  0.4870490000000  0.4196550000000 1.0
C      1  0.5011280000000  0.5457370000000  0.4970430000000 1.0
C      1  0.4769490000000  0.3593120000000  0.4910190000000 1.0
C      1  0.5200030000000  0.4168130000000  0.4962310000000 1.0
C      1  0.4656170000000  0.4416670000000  0.5171620000000 1.0
C      1  0.3930740000000  0.5457750000000  0.4749100000000 1.0
C      1  0.5504310000000  0.5419940000000  0.4905290000000 1.0
C      1  0.4148640000000  0.4232260000000  0.5355790000000 1.0
C      1  0.5427320000000  0.3914060000000  0.4611550000000 1.0
C      1  0.5325110000000  0.4439210000000  0.3810290000000 1.0
C      1  0.4882370000000  0.4113240000000  0.5515970000000 1.0
C      1  0.4471770000000  0.4995590000000  0.5656400000000 1.0
C      1  0.4727840000000  0.4934820000000  0.4389590000000 1.0
C      1  0.4812180000000  0.5850040000000  0.5373600000000 1.0
C      1  0.4648600000000  0.4475400000000  0.4155410000000 1.0
C      1  0.5985890000000  0.5068070000000  0.5372760000000 1.0
C      1  0.5035650000000  0.4293640000000  0.5714370000000 1.0
C      1  0.5270410000000  0.5240770000000  0.6056880000000 1.0
C      1  0.4788120000000  0.5733990000000  0.5863540000000 1.0
C      1  0.5079250000000  0.4423580000000  0.4397920000000 1.0
C      1  0.4451180000000  0.4986090000000  0.4424170000000 1.0
C      1  0.5168060000000  0.4422070000000  0.5083440000000 1.0
C      1  0.6147830000000  0.5250680000000  0.4947780000000 1.0
C      1  0.5666390000000  0.4245280000000  0.4877070000000 1.0
C      1  0.4632830000000  0.4740110000000  0.6167600000000 1.0
C      1  0.5499600000000  0.5352090000000  0.3855190000000 1.0
C      1  0.5864360000000  0.4848300000000  0.4246340000000 1.0
C      1  0.5300610000000  0.4740950000000  0.4746250000000 1.0
C      1  0.4382230000000  0.4263540000000  0.5513820000000 1.0
C      1  0.5267860000000  0.5554840000000  0.4955640000000 1.0
C      1  0.4000460000000  0.5083120000000  0.5308940000000 1.0
C      1  0.4999980000000  0.5184860000000  0.4902000000000 1.0
C      1  0.5578000000000  0.3872500000000  0.5450790000000 1.0
C      1  0.5088590000000  0.3969390000000  0.5371400000000 1.0
C      1  0.5351510000000  0.4265240000000  0.5670450000000 1.0
C      1  0.4885210000000  0.5476240000000  0.3976880000000 1.0
C      1  0.5361180000000  0.5021210000000  0.4654270000000 1.0
C      1  0.5812060000000  0.5549770000000  0.4603380000000 1.0
C      1  0.4446200000000  0.5058230000000  0.5027610000000 1.0
C      1  0.5161370000000  0.4828300000000  0.6268470000000 1.0
C      1  0.4445810000000  0.5241950000000  0.4812830000000 1.0
C      1  0.5291760000000  0.4580640000000  0.4310120000000 1.0
C      1  0.4349640000000  0.5920020000000  0.5569650000000 1.0
C      1  0.4636090000000  0.4451110000000  0.4635320000000 1.0
C      1  0.5086750000000  0.5745440000000  0.5907890000000 1.0
C      1  0.5353440000000  0.5463170000000  0.4050030000000 1.0
C      1  0.5093730000000  0.4554180000000  0.5304740000000 1.0
C      1  0.4818840000000  0.5984470000000  0.5099790000000 1.0
C      1  0.4366440000000  0.5589900000000  0.5277990000000 1.0
C      1  0.5612390000000  0.4986890000000  0.5049500000000 1.0
C      1  0.5785300000000  0.4602090000000  0.4384750000000 1.0
C      1  0.5888740000000  0.4619600000000  0.4663560000000 1.0
C      1  0.4660340000000  0.4331540000000  0.4897050000000 1.0
C      1  0.5659270000000  0.5789730000000  0.4537350000000 1.0
C      1  0.5589950000000  0.4643850000000  0.5361590000000 1.0
C      1  0.5484660000000  0.4906680000000  0.5283650000000 1.0
C      1  0.4197940000000  0.5023010000000  0.5748630000000 1.0
C      1  0.5736760000000  0.5836510000000  0.5227640000000 1.0
C      1  0.4802460000000  0.4427990000000  0.4400750000000 1.0
C      1  0.5735840000000  0.5091340000000  0.4334160000000 1.0
C      1  0.6058540000000  0.4848500000000  0.4695840000000 1.0
C      1  0.5261160000000  0.5534650000000  0.6017550000000 1.0
C      1  0.4601340000000  0.4426400000000  0.3678480000000 1.0
C      1  0.4592560000000  0.5970180000000  0.4910980000000 1.0
C      1  0.5887810000000  0.5278500000000  0.4508320000000 1.0
END
