TITL C-3866674-3872-600 72.9230112512678 125000 -1223.96989829917 0 0 199 (C1) n - 1
REM
REM in /home/nfs/bkarasulu/CARBON/AIRSS/Generating-Clusters/LCBOP/Only-C1/SD-CG/FIRE-CG
REM
REM
REM
REM
REM
REM ./C.cell (11c1c37f851c82e70ff6c80c92926a4b)
REM AIRSS Version 0.9.1 bugfix July 2018 build 013d7b7c2542+ Fri, 06 Jul 2018 19:26:36 +0100
REM compiler GCC version 9.2.1 20190827 (Red Hat 9.2.1-1)
REM options -cpp -mtune=generic -march=x86-64 -g -O0 -fpre-include=/usr/include/finclude/math-vector-fortran.h
REM seed -841374417 1715704831 -440749842 -525772743 -1922354846 1515771689 -1544000132 -462309953 1850345273 751890819 -1787995470 169677790 -1723108457 524770235 -80809431 2004773107 -986272946 189900908 -1639995913 -1157115121 149719631 1590677308 -233605305 2097065196 1662120514 670108575 363942788 -1218745674 1889992692 1907356314 -1202336593 -1795016305 -1730356915
REM
CELL 1.54180   50.00000   50.00000   50.00000   90.00000   90.00000   90.00000
LATT -1
SFAC C  
C      1  0.4814760000000  0.3702140000000  0.4755570000000 1.0
C      1  0.3918330000000  0.4837280000000  0.4608800000000 1.0
C      1  0.4317940000000  0.5120840000000  0.4565020000000 1.0
C      1  0.5596310000000  0.4713470000000  0.4870520000000 1.0
C      1  0.5679040000000  0.5463620000000  0.4706420000000 1.0
C      1  0.4044530000000  0.4746720000000  0.5752630000000 1.0
C      1  0.5137030000000  0.4201820000000  0.5563780000000 1.0
C      1  0.4485540000000  0.4169630000000  0.5833810000000 1.0
C      1  0.4481060000000  0.4111430000000  0.4368620000000 1.0
C      1  0.4380020000000  0.4690370000000  0.5177740000000 1.0
C      1  0.5273550000000  0.4982780000000  0.5164020000000 1.0
C      1  0.5295600000000  0.4692120000000  0.6092840000000 1.0
C      1  0.3735600000000  0.4892750000000  0.5401020000000 1.0
C      1  0.5452930000000  0.4023370000000  0.4802470000000 1.0
C      1  0.4285890000000  0.5250620000000  0.5670410000000 1.0
C      1  0.5023290000000  0.4647660000000  0.4372150000000 1.0
C      1  0.5128850000000  0.4889870000000  0.5694590000000 1.0
C      1  0.4151040000000  0.5345950000000  0.5436440000000 1.0
C      1  0.5168280000000  0.5588950000000  0.5364780000000 1.0
C      1  0.5389270000000  0.5630100000000  0.4396380000000 1.0
C      1  0.4749230000000  0.4712320000000  0.4913650000000 1.0
C      1  0.4423510000000  0.4449210000000  0.3967420000000 1.0
C      1  0.4543990000000  0.5593280000000  0.4222240000000 1.0
C      1  0.5590280000000  0.6071660000000  0.4732270000000 1.0
C      1  0.4176020000000  0.4139830000000  0.4759100000000 1.0
C      1  0.4994640000000  0.5502310000000  0.4010880000000 1.0
C      1  0.5185560000000  0.5052570000000  0.3981800000000 1.0
C      1  0.5544340000000  0.4691260000000  0.4142300000000 1.0
C      1  0.5540640000000  0.4608540000000  0.5145300000000 1.0
C      1  0.6161850000000  0.4639000000000  0.4418110000000 1.0
C      1  0.4580960000000  0.4636240000000  0.5378320000000 1.0
C      1  0.6092820000000  0.5918090000000  0.5983220000000 1.0
C      1  0.4844490000000  0.6067310000000  0.4399580000000 1.0
C      1  0.5227820000000  0.5830320000000  0.4296590000000 1.0
C      1  0.5788420000000  0.5474240000000  0.4973560000000 1.0
C      1  0.5545720000000  0.3555170000000  0.4704600000000 1.0
C      1  0.4176830000000  0.5681890000000  0.4567370000000 1.0
C      1  0.3697210000000  0.5082830000000  0.5218380000000 1.0
C      1  0.5274940000000  0.6193480000000  0.5230040000000 1.0
C      1  0.4760810000000  0.4098550000000  0.4413880000000 1.0
C      1  0.4443070000000  0.5772470000000  0.4463150000000 1.0
C      1  0.4789890000000  0.4447000000000  0.5307920000000 1.0
C      1  0.5255250000000  0.4191540000000  0.4911040000000 1.0
C      1  0.6066660000000  0.5629430000000  0.4504440000000 1.0
C      1  0.4692200000000  0.4134770000000  0.5671400000000 1.0
C      1  0.5833860000000  0.5935920000000  0.4802730000000 1.0
C      1  0.6143340000000  0.5214490000000  0.4724810000000 1.0
C      1  0.5364050000000  0.3754460000000  0.4751700000000 1.0
C      1  0.4996240000000  0.4722440000000  0.3733540000000 1.0
C      1  0.4625610000000  0.5903180000000  0.5775370000000 1.0
C      1  0.5284520000000  0.4696390000000  0.3717300000000 1.0
C      1  0.5469580000000  0.3880700000000  0.5342850000000 1.0
C      1  0.3826820000000  0.4354330000000  0.5138970000000 1.0
C      1  0.4480020000000  0.4774540000000  0.6009450000000 1.0
C      1  0.5084270000000  0.3696180000000  0.4752950000000 1.0
C      1  0.4095330000000  0.4270580000000  0.5572360000000 1.0
C      1  0.5582530000000  0.4122370000000  0.5319080000000 1.0
C      1  0.4066710000000  0.5499890000000  0.4377090000000 1.0
C      1  0.5386100000000  0.5526230000000  0.4675740000000 1.0
C      1  0.4938310000000  0.4934000000000  0.5498050000000 1.0
C      1  0.3938220000000  0.4428990000000  0.5396950000000 1.0
C      1  0.3775830000000  0.5197400000000  0.4964940000000 1.0
C      1  0.5117560000000  0.6229400000000  0.5467340000000 1.0
C      1  0.4241220000000  0.4228770000000  0.4475260000000 1.0
C      1  0.4111850000000  0.4471730000000  0.4332990000000 1.0
C      1  0.5441980000000  0.4226390000000  0.5958330000000 1.0
C      1  0.5246090000000  0.6166890000000  0.5712940000000 1.0
C      1  0.6028630000000  0.5731750000000  0.5806310000000 1.0
C      1  0.6066010000000  0.5290390000000  0.5604460000000 1.0
C      1  0.4590230000000  0.5140350000000  0.4655160000000 1.0
C      1  0.4961000000000  0.4009180000000  0.4237000000000 1.0
C      1  0.4372910000000  0.4669480000000  0.4664270000000 1.0
C      1  0.4561220000000  0.3795870000000  0.4763660000000 1.0
C      1  0.5039940000000  0.5777770000000  0.4078750000000 1.0
C      1  0.5056620000000  0.4752780000000  0.5939240000000 1.0
C      1  0.3724120000000  0.4992150000000  0.4757300000000 1.0
C      1  0.5471400000000  0.4095920000000  0.4247310000000 1.0
C      1  0.5932660000000  0.4370800000000  0.5095050000000 1.0
C      1  0.5931260000000  0.4234390000000  0.4834540000000 1.0
C      1  0.4488980000000  0.5061350000000  0.5601620000000 1.0
C      1  0.5223850000000  0.4014200000000  0.4184590000000 1.0
C      1  0.4772060000000  0.4725220000000  0.6008420000000 1.0
C      1  0.3902780000000  0.5463490000000  0.5006430000000 1.0
C      1  0.5994700000000  0.4826620000000  0.4507730000000 1.0
C      1  0.4270320000000  0.4338680000000  0.5790320000000 1.0
C      1  0.4832410000000  0.6206320000000  0.5464650000000 1.0
C      1  0.6528310000000  0.5480170000000  0.4582710000000 1.0
C      1  0.4870740000000  0.5161950000000  0.5049700000000 1.0
C      1  0.5503270000000  0.5413780000000  0.4013190000000 1.0
C      1  0.4770630000000  0.4573580000000  0.4276870000000 1.0
C      1  0.5704750000000  0.5846220000000  0.5275430000000 1.0
C      1  0.4288360000000  0.5215340000000  0.5211850000000 1.0
C      1  0.4673580000000  0.5091830000000  0.3989800000000 1.0
C      1  0.3481650000000  0.4846910000000  0.4807360000000 1.0
C      1  0.5936160000000  0.5020080000000  0.4701000000000 1.0
C      1  0.4858410000000  0.4488120000000  0.3792060000000 1.0
C      1  0.4514580000000  0.5648980000000  0.5030180000000 1.0
C      1  0.6141990000000  0.6108530000000  0.6160890000000 1.0
C      1  0.5924730000000  0.5547110000000  0.5620660000000 1.0
C      1  0.5234370000000  0.5274980000000  0.4747060000000 1.0
C      1  0.5380000000000  0.5727010000000  0.5960120000000 1.0
C      1  0.5059550000000  0.5280420000000  0.6369410000000 1.0
C      1  0.5014430000000  0.5031230000000  0.5248760000000 1.0
C      1  0.4893000000000  0.4498740000000  0.5043070000000 1.0
C      1  0.5430190000000  0.4575690000000  0.3523220000000 1.0
C      1  0.5021740000000  0.5375750000000  0.4945540000000 1.0
C      1  0.4884920000000  0.6256580000000  0.4901290000000 1.0
C      1  0.5531010000000  0.6070910000000  0.5270630000000 1.0
C      1  0.6216510000000  0.6096460000000  0.4539410000000 1.0
C      1  0.6259390000000  0.5443330000000  0.4604120000000 1.0
C      1  0.5009330000000  0.3635130000000  0.5386810000000 1.0
C      1  0.4346300000000  0.3940460000000  0.4887550000000 1.0
C      1  0.5498760000000  0.4495010000000  0.5996200000000 1.0
C      1  0.4389910000000  0.5040820000000  0.6086470000000 1.0
C      1  0.5229950000000  0.5330370000000  0.3983940000000 1.0
C      1  0.4480060000000  0.5769220000000  0.5970260000000 1.0
C      1  0.6168840000000  0.4230860000000  0.4682340000000 1.0
C      1  0.5683420000000  0.4158210000000  0.4688410000000 1.0
C      1  0.6051580000000  0.4743400000000  0.5476750000000 1.0
C      1  0.5349280000000  0.5444070000000  0.5949110000000 1.0
C      1  0.6090130000000  0.4574650000000  0.5237300000000 1.0
C      1  0.3959360000000  0.5509240000000  0.5295210000000 1.0
C      1  0.3424160000000  0.4634400000000  0.4963610000000 1.0
C      1  0.3555430000000  0.4446310000000  0.5105210000000 1.0
C      1  0.5204870000000  0.4796620000000  0.4528550000000 1.0
C      1  0.4738840000000  0.5346440000000  0.4546120000000 1.0
C      1  0.4500240000000  0.3749050000000  0.5329670000000 1.0
C      1  0.5128750000000  0.6025060000000  0.4491880000000 1.0
C      1  0.4733860000000  0.4996770000000  0.4863550000000 1.0
C      1  0.5677520000000  0.5014260000000  0.4893560000000 1.0
C      1  0.4842170000000  0.5983350000000  0.4121340000000 1.0
C      1  0.4558020000000  0.4620560000000  0.4456390000000 1.0
C      1  0.4036660000000  0.5639060000000  0.4817730000000 1.0
C      1  0.4724970000000  0.5970530000000  0.5318960000000 1.0
C      1  0.4182770000000  0.5249570000000  0.4347220000000 1.0
C      1  0.5685530000000  0.5638500000000  0.5470870000000 1.0
C      1  0.4853560000000  0.4208250000000  0.4657660000000 1.0
C      1  0.5468250000000  0.5023080000000  0.5615060000000 1.0
C      1  0.5406700000000  0.5317710000000  0.5693040000000 1.0
C      1  0.5780530000000  0.5210890000000  0.5111380000000 1.0
C      1  0.4625870000000  0.5986540000000  0.4571110000000 1.0
C      1  0.4742770000000  0.3651860000000  0.5387060000000 1.0
C      1  0.5280040000000  0.5736650000000  0.4870350000000 1.0
C      1  0.4717560000000  0.5395060000000  0.4062800000000 1.0
C      1  0.4673290000000  0.6069980000000  0.4845240000000 1.0
C      1  0.4334670000000  0.3881350000000  0.5164110000000 1.0
C      1  0.4269560000000  0.4614310000000  0.5874090000000 1.0
C      1  0.5170310000000  0.5077010000000  0.4538790000000 1.0
C      1  0.6188130000000  0.6296390000000  0.6335660000000 1.0
C      1  0.5389730000000  0.5102970000000  0.4932330000000 1.0
C      1  0.4699530000000  0.4463800000000  0.4018360000000 1.0
C      1  0.4873790000000  0.4254120000000  0.5496010000000 1.0
C      1  0.4305260000000  0.5283330000000  0.5955260000000 1.0
C      1  0.4931240000000  0.5576910000000  0.5533940000000 1.0
C      1  0.4694460000000  0.6180640000000  0.5723960000000 1.0
C      1  0.3779410000000  0.4377460000000  0.4660760000000 1.0
C      1  0.4192670000000  0.4884450000000  0.4639860000000 1.0
C      1  0.5288140000000  0.6025440000000  0.4759560000000 1.0
C      1  0.5424360000000  0.5514140000000  0.5485440000000 1.0
C      1  0.5384730000000  0.4834170000000  0.3954920000000 1.0
C      1  0.5620300000000  0.4263370000000  0.4421310000000 1.0
C      1  0.4919670000000  0.4961740000000  0.3888580000000 1.0
C      1  0.4409050000000  0.4949040000000  0.4036360000000 1.0
C      1  0.4897240000000  0.5379980000000  0.5720590000000 1.0
C      1  0.4439430000000  0.5397280000000  0.5065040000000 1.0
C      1  0.5334730000000  0.5978120000000  0.5880560000000 1.0
C      1  0.5002330000000  0.4299750000000  0.4877100000000 1.0
C      1  0.4199660000000  0.5120020000000  0.4101420000000 1.0
C      1  0.5264920000000  0.3709730000000  0.5364800000000 1.0
C      1  0.5994320000000  0.5033110000000  0.5490980000000 1.0
C      1  0.5668950000000  0.4365120000000  0.5210540000000 1.0
C      1  0.4470310000000  0.4624200000000  0.4919170000000 1.0
C      1  0.4357540000000  0.5543460000000  0.6045930000000 1.0
C      1  0.4666820000000  0.4865060000000  0.5522210000000 1.0
C      1  0.5746870000000  0.5100470000000  0.5372240000000 1.0
C      1  0.5291690000000  0.4122120000000  0.5765370000000 1.0
C      1  0.3937350000000  0.4266250000000  0.4878230000000 1.0
C      1  0.5213180000000  0.5329060000000  0.6164270000000 1.0
C      1  0.5815100000000  0.5508210000000  0.4451540000000 1.0
C      1  0.5425120000000  0.4806980000000  0.5312110000000 1.0
C      1  0.5821060000000  0.5757280000000  0.5033210000000 1.0
C      1  0.4253830000000  0.4613470000000  0.4113410000000 1.0
C      1  0.6256320000000  0.4400100000000  0.4493270000000 1.0
C      1  0.3890530000000  0.4691840000000  0.5517060000000 1.0
C      1  0.4251960000000  0.4939660000000  0.5187860000000 1.0
C      1  0.5453600000000  0.4672190000000  0.4614450000000 1.0
C      1  0.4727690000000  0.5772140000000  0.5531490000000 1.0
C      1  0.5944280000000  0.4599360000000  0.5701330000000 1.0
C      1  0.5614520000000  0.5526750000000  0.4246140000000 1.0
C      1  0.5576580000000  0.4544150000000  0.4388180000000 1.0
C      1  0.5613910000000  0.4914690000000  0.5853950000000 1.0
C      1  0.5131970000000  0.5607360000000  0.5082130000000 1.0
C      1  0.5157080000000  0.6200810000000  0.4966550000000 1.0
C      1  0.3884450000000  0.4575700000000  0.4487320000000 1.0
C      1  0.5467290000000  0.4931510000000  0.6107470000000 1.0
C      1  0.5711000000000  0.4638390000000  0.5850680000000 1.0
C      1  0.4881390000000  0.5561970000000  0.4548620000000 1.0
C      1  0.6046740000000  0.5895700000000  0.4612680000000 1.0
C      1  0.4616500000000  0.5905030000000  0.5067600000000 1.0
END
