TITL C-3866674-3872-507 6.88427199493241e-05 125000 -383.631891237862 0 0 65 (C1) n - 1
REM
REM in /home/nfs/bkarasulu/CARBON/AIRSS/Generating-Clusters/LCBOP/Only-C1/SD-CG/FIRE-CG
REM
REM
REM
REM
REM
REM ./C.cell (11c1c37f851c82e70ff6c80c92926a4b)
REM AIRSS Version 0.9.1 bugfix July 2018 build 013d7b7c2542+ Fri, 06 Jul 2018 19:26:36 +0100
REM compiler GCC version 9.2.1 20190827 (Red Hat 9.2.1-1)
REM options -cpp -mtune=generic -march=x86-64 -g -O0 -fpre-include=/usr/include/finclude/math-vector-fortran.h
REM seed 437944103 -1398159122 -1949837492 -1571879564 2117950326 1879753947 -1940867829 489148321 2145443536 -1703792209 1882101868 71862722 -754943142 1835472622 1196707810 -1906248154 -1646459542 1195423619 673595313 -1441397575 -355363019 199709440 -275828966 -1158037774 272198079 -349173632 -2106454106 -22644912 -2055865779 -1813889059 -1080485147 -802240453 -1045198977
REM
CELL 1.54180   50.00000   50.00000   50.00000   90.00000   90.00000   90.00000
LATT -1
SFAC C  
C      1  0.5289700000000  0.5517780000000  0.4722890000000 1.0
C      1  0.4841530000000  0.5279080000000  0.5221930000000 1.0
C      1  0.4879400000000  0.5177180000000  0.4949260000000 1.0
C      1  0.4485650000000  0.5121870000000  0.4045980000000 1.0
C      1  0.5767380000000  0.4989730000000  0.5426600000000 1.0
C      1  0.4522810000000  0.4396520000000  0.4417190000000 1.0
C      1  0.4260680000000  0.5187250000000  0.5701550000000 1.0
C      1  0.4374330000000  0.4479630000000  0.4203400000000 1.0
C      1  0.5080360000000  0.5829950000000  0.5031560000000 1.0
C      1  0.4940920000000  0.4858870000000  0.5857140000000 1.0
C      1  0.4375890000000  0.4800430000000  0.4972390000000 1.0
C      1  0.4918390000000  0.4556420000000  0.4657730000000 1.0
C      1  0.4368030000000  0.5077330000000  0.4907240000000 1.0
C      1  0.5460490000000  0.4770980000000  0.4516830000000 1.0
C      1  0.5598060000000  0.4783360000000  0.5503120000000 1.0
C      1  0.4135090000000  0.4668460000000  0.4990040000000 1.0
C      1  0.5571240000000  0.5713730000000  0.5048330000000 1.0
C      1  0.5128200000000  0.4376920000000  0.5290250000000 1.0
C      1  0.4614870000000  0.4648290000000  0.5017930000000 1.0
C      1  0.5465690000000  0.4592320000000  0.4965370000000 1.0
C      1  0.5689530000000  0.4584610000000  0.5667550000000 1.0
C      1  0.5192770000000  0.4960550000000  0.5236230000000 1.0
C      1  0.4425430000000  0.4885410000000  0.3935580000000 1.0
C      1  0.5081190000000  0.5045400000000  0.4311660000000 1.0
C      1  0.4394850000000  0.5819060000000  0.5335530000000 1.0
C      1  0.4920340000000  0.4460560000000  0.4169190000000 1.0
C      1  0.5290160000000  0.4881830000000  0.4341810000000 1.0
C      1  0.4840680000000  0.5248520000000  0.4681380000000 1.0
C      1  0.5537150000000  0.3632540000000  0.4813040000000 1.0
C      1  0.5707210000000  0.5475350000000  0.5439670000000 1.0
C      1  0.5760870000000  0.5530440000000  0.4925330000000 1.0
C      1  0.4635150000000  0.4416170000000  0.5178940000000 1.0
C      1  0.5602800000000  0.5703030000000  0.5330980000000 1.0
C      1  0.4586020000000  0.5772610000000  0.5129810000000 1.0
C      1  0.5090330000000  0.5205710000000  0.5347480000000 1.0
C      1  0.4947560000000  0.5386150000000  0.5847120000000 1.0
C      1  0.5746940000000  0.5252640000000  0.5012090000000 1.0
C      1  0.4923530000000  0.5763700000000  0.5483550000000 1.0
C      1  0.4862270000000  0.5807860000000  0.5208460000000 1.0
C      1  0.4949920000000  0.5612280000000  0.5703220000000 1.0
C      1  0.4857700000000  0.5188820000000  0.4406540000000 1.0
C      1  0.5331110000000  0.4784070000000  0.5407050000000 1.0
C      1  0.4607160000000  0.5281890000000  0.5374930000000 1.0
C      1  0.5016490000000  0.4919670000000  0.4997560000000 1.0
C      1  0.5475790000000  0.3869090000000  0.4903830000000 1.0
C      1  0.4493550000000  0.5589600000000  0.4931770000000 1.0
C      1  0.4497750000000  0.4619480000000  0.3986390000000 1.0
C      1  0.5569220000000  0.5093180000000  0.4849760000000 1.0
C      1  0.4865860000000  0.4706060000000  0.4888520000000 1.0
C      1  0.4862220000000  0.4288980000000  0.5252980000000 1.0
C      1  0.4933890000000  0.5123520000000  0.5898120000000 1.0
C      1  0.5334900000000  0.4363760000000  0.5084240000000 1.0
C      1  0.5766580000000  0.5233950000000  0.5298110000000 1.0
C      1  0.4771790000000  0.4541680000000  0.3954400000000 1.0
C      1  0.5165010000000  0.4570720000000  0.5495550000000 1.0
C      1  0.5313700000000  0.5718460000000  0.4921680000000 1.0
C      1  0.4644000000000  0.5232250000000  0.4230520000000 1.0
C      1  0.5412320000000  0.4109520000000  0.4995180000000 1.0
C      1  0.5390250000000  0.5268340000000  0.4708040000000 1.0
C      1  0.4387140000000  0.5345390000000  0.4884550000000 1.0
C      1  0.4388140000000  0.5360930000000  0.5534520000000 1.0
C      1  0.5010540000000  0.4637420000000  0.5721280000000 1.0
C      1  0.5527710000000  0.4811200000000  0.4790760000000 1.0
C      1  0.4308080000000  0.5630690000000  0.5508420000000 1.0
C      1  0.4805720000000  0.4440810000000  0.4429970000000 1.0
END
