TITL C-3866675-3766-53 -1049.79418441883 125000 -1076.71639103295 0 0 176 (C1) n - 1
REM
REM in /home/nfs/bkarasulu/CARBON/AIRSS/Generating-Clusters/LCBOP/Only-C1/SD-CG/HFTN-CG/FIRE-CG
REM
REM
REM
REM
REM
REM ./C.cell (11c1c37f851c82e70ff6c80c92926a4b)
REM AIRSS Version 0.9.1 bugfix July 2018 build 013d7b7c2542+ Fri, 06 Jul 2018 19:26:36 +0100
REM compiler GCC version 9.2.1 20190827 (Red Hat 9.2.1-1)
REM options -cpp -mtune=generic -march=x86-64 -g -O0 -fpre-include=/usr/include/finclude/math-vector-fortran.h
REM seed 224483593 1075099354 1971859665 -1746576505 948328931 2006942718 358263325 -153140018 552157049 -1624797366 1891508303 -42157272 1744319670 -1441863895 -652584357 1182043178 -2123676536 1907145994 -64903471 1502424020 -366862879 794397263 -1155010205 1740031138 294056288 1801575107 1112681222 1419359929 -1841907855 -1795341134 1414080107 -1707090993 1014296185
REM
CELL 1.54180   50.00000   50.00000   50.00000   90.00000   90.00000   90.00000
LATT -1
SFAC C  
C      1  0.5531600000000  0.4526530000000  0.5008070000000 1.0
C      1  0.6271900000000  0.5371950000000  0.4956070000000 1.0
C      1  0.4279210000000  0.4754690000000  0.4251880000000 1.0
C      1  0.4885170000000  0.5965500000000  0.3388310000000 1.0
C      1  0.5921820000000  0.4573780000000  0.4372220000000 1.0
C      1  0.4446470000000  0.5048740000000  0.5963830000000 1.0
C      1  0.4850100000000  0.4182520000000  0.5931320000000 1.0
C      1  0.5372220000000  0.4450660000000  0.5579040000000 1.0
C      1  0.6044180000000  0.4831780000000  0.4405900000000 1.0
C      1  0.4452300000000  0.4048610000000  0.4078710000000 1.0
C      1  0.5840320000000  0.5958320000000  0.5053130000000 1.0
C      1  0.4837740000000  0.5678440000000  0.4713740000000 1.0
C      1  0.5772550000000  0.4757980000000  0.5549020000000 1.0
C      1  0.5094200000000  0.4627710000000  0.3109550000000 1.0
C      1  0.5299390000000  0.4446170000000  0.6083900000000 1.0
C      1  0.5210380000000  0.5404800000000  0.4656990000000 1.0
C      1  0.5526200000000  0.4622580000000  0.6018670000000 1.0
C      1  0.4250570000000  0.5027920000000  0.5419090000000 1.0
C      1  0.5124810000000  0.5321770000000  0.5829240000000 1.0
C      1  0.5325610000000  0.4903760000000  0.5717370000000 1.0
C      1  0.5678190000000  0.5368420000000  0.4726720000000 1.0
C      1  0.5889150000000  0.5255380000000  0.5502620000000 1.0
C      1  0.4391320000000  0.5925030000000  0.5624590000000 1.0
C      1  0.5927400000000  0.6133900000000  0.5245500000000 1.0
C      1  0.5239970000000  0.4958490000000  0.5244750000000 1.0
C      1  0.4205510000000  0.4134050000000  0.5200280000000 1.0
C      1  0.5797450000000  0.4609400000000  0.4907370000000 1.0
C      1  0.4882010000000  0.4616210000000  0.4275190000000 1.0
C      1  0.4110310000000  0.6069230000000  0.4228230000000 1.0
C      1  0.5312010000000  0.5749130000000  0.5637310000000 1.0
C      1  0.5317820000000  0.5986100000000  0.5182520000000 1.0
C      1  0.4661830000000  0.5933550000000  0.5543950000000 1.0
C      1  0.4953180000000  0.5914940000000  0.4283160000000 1.0
C      1  0.4360270000000  0.4240430000000  0.4738380000000 1.0
C      1  0.5759840000000  0.3745960000000  0.4264130000000 1.0
C      1  0.5333180000000  0.4736520000000  0.5088690000000 1.0
C      1  0.4815100000000  0.4965570000000  0.5010080000000 1.0
C      1  0.3852700000000  0.4831680000000  0.5008490000000 1.0
C      1  0.4896890000000  0.4404180000000  0.5461590000000 1.0
C      1  0.5435460000000  0.4055770000000  0.4140710000000 1.0
C      1  0.4920970000000  0.5569580000000  0.3044420000000 1.0
C      1  0.4738660000000  0.6108180000000  0.3828560000000 1.0
C      1  0.5195620000000  0.5964090000000  0.4717020000000 1.0
C      1  0.4464570000000  0.6151570000000  0.3863860000000 1.0
C      1  0.4679640000000  0.4612750000000  0.4051150000000 1.0
C      1  0.3740540000000  0.5772180000000  0.5256740000000 1.0
C      1  0.5066230000000  0.4371390000000  0.5926280000000 1.0
C      1  0.5539470000000  0.5133170000000  0.6076790000000 1.0
C      1  0.4883620000000  0.5921840000000  0.5372610000000 1.0
C      1  0.5558740000000  0.5914790000000  0.5024210000000 1.0
C      1  0.4718930000000  0.4783940000000  0.4811790000000 1.0
C      1  0.4885600000000  0.6004280000000  0.4042910000000 1.0
C      1  0.5681520000000  0.5377640000000  0.6087750000000 1.0
C      1  0.5083770000000  0.4501090000000  0.5652830000000 1.0
C      1  0.5455010000000  0.5545280000000  0.4704730000000 1.0
C      1  0.5384310000000  0.4502320000000  0.4294290000000 1.0
C      1  0.4549920000000  0.3807470000000  0.5344660000000 1.0
C      1  0.6212360000000  0.4625310000000  0.5700510000000 1.0
C      1  0.4082280000000  0.4668710000000  0.4907880000000 1.0
C      1  0.6162130000000  0.5284810000000  0.5440950000000 1.0
C      1  0.5707010000000  0.4161280000000  0.5432150000000 1.0
C      1  0.6151940000000  0.4225130000000  0.5267780000000 1.0
C      1  0.5951310000000  0.4303180000000  0.5447650000000 1.0
C      1  0.5165040000000  0.4429510000000  0.3591310000000 1.0
C      1  0.4718460000000  0.5429740000000  0.5286470000000 1.0
C      1  0.4961290000000  0.4310140000000  0.4268050000000 1.0
C      1  0.5999370000000  0.4419380000000  0.4826430000000 1.0
C      1  0.4474620000000  0.4891740000000  0.5317720000000 1.0
C      1  0.5685080000000  0.4470800000000  0.4242370000000 1.0
C      1  0.3656520000000  0.5565800000000  0.5109900000000 1.0
C      1  0.4459050000000  0.5128520000000  0.6232560000000 1.0
C      1  0.5445500000000  0.5820800000000  0.4769540000000 1.0
C      1  0.4446660000000  0.5449170000000  0.5202450000000 1.0
C      1  0.4415350000000  0.4535070000000  0.4124800000000 1.0
C      1  0.4283750000000  0.6085420000000  0.6121330000000 1.0
C      1  0.4651540000000  0.4446970000000  0.5386820000000 1.0
C      1  0.4434450000000  0.5289480000000  0.6442180000000 1.0
C      1  0.3894340000000  0.5121120000000  0.4957330000000 1.0
C      1  0.5181160000000  0.5896610000000  0.5425440000000 1.0
C      1  0.6060960000000  0.4979500000000  0.4652570000000 1.0
C      1  0.5779600000000  0.5002140000000  0.5392930000000 1.0
C      1  0.5074270000000  0.4794680000000  0.5647050000000 1.0
C      1  0.4651120000000  0.4090570000000  0.5739230000000 1.0
C      1  0.5311510000000  0.4414380000000  0.4591480000000 1.0
C      1  0.4885380000000  0.4138290000000  0.4867560000000 1.0
C      1  0.4744360000000  0.3923460000000  0.5515820000000 1.0
C      1  0.4402840000000  0.4251420000000  0.5709020000000 1.0
C      1  0.4964100000000  0.6416960000000  0.3533010000000 1.0
C      1  0.4903140000000  0.5766840000000  0.3213940000000 1.0
C      1  0.5012350000000  0.3945460000000  0.5415630000000 1.0
C      1  0.5849250000000  0.4882660000000  0.4823060000000 1.0
C      1  0.3963430000000  0.4295200000000  0.4461570000000 1.0
C      1  0.5532350000000  0.4683300000000  0.5712550000000 1.0
C      1  0.4649630000000  0.5804290000000  0.4891580000000 1.0
C      1  0.4376750000000  0.4267190000000  0.4225080000000 1.0
C      1  0.4684370000000  0.5367810000000  0.5634150000000 1.0
C      1  0.5202630000000  0.5020240000000  0.4285690000000 1.0
C      1  0.4000640000000  0.4740610000000  0.4284190000000 1.0
C      1  0.4189970000000  0.4535380000000  0.5386980000000 1.0
C      1  0.4898860000000  0.4977280000000  0.5537330000000 1.0
C      1  0.4197760000000  0.5766170000000  0.5486330000000 1.0
C      1  0.4339560000000  0.3884300000000  0.5193140000000 1.0
C      1  0.5122210000000  0.4612860000000  0.4673090000000 1.0
C      1  0.5584620000000  0.5644200000000  0.5658170000000 1.0
C      1  0.4261790000000  0.4894690000000  0.4823980000000 1.0
C      1  0.5599020000000  0.4864600000000  0.6164600000000 1.0
C      1  0.4992770000000  0.5857110000000  0.4550520000000 1.0
C      1  0.6083520000000  0.4117800000000  0.4439830000000 1.0
C      1  0.6163890000000  0.4288230000000  0.5009010000000 1.0
C      1  0.4259580000000  0.5499630000000  0.5413540000000 1.0
C      1  0.5687330000000  0.5592960000000  0.5921350000000 1.0
C      1  0.3857870000000  0.4528910000000  0.4373820000000 1.0
C      1  0.5229730000000  0.4272360000000  0.4127670000000 1.0
C      1  0.5665930000000  0.5451620000000  0.5466140000000 1.0
C      1  0.5254100000000  0.5161360000000  0.4521460000000 1.0
C      1  0.6036250000000  0.5826850000000  0.4888660000000 1.0
C      1  0.4233780000000  0.4261690000000  0.5464640000000 1.0
C      1  0.4987850000000  0.5463750000000  0.4828680000000 1.0
C      1  0.4849950000000  0.3662200000000  0.4604080000000 1.0
C      1  0.4172660000000  0.4325790000000  0.4955370000000 1.0
C      1  0.5982050000000  0.4563560000000  0.5565010000000 1.0
C      1  0.5636710000000  0.5114550000000  0.5158770000000 1.0
C      1  0.5432390000000  0.4219180000000  0.5426740000000 1.0
C      1  0.4330570000000  0.5423940000000  0.4941150000000 1.0
C      1  0.3934960000000  0.4640960000000  0.5432920000000 1.0
C      1  0.5232110000000  0.4808830000000  0.4830690000000 1.0
C      1  0.4593090000000  0.4565490000000  0.4950270000000 1.0
C      1  0.5098430000000  0.6040830000000  0.4980630000000 1.0
C      1  0.4316620000000  0.6058060000000  0.5859270000000 1.0
C      1  0.4239480000000  0.5264920000000  0.5571760000000 1.0
C      1  0.3713090000000  0.5327230000000  0.5005720000000 1.0
C      1  0.5151200000000  0.5602320000000  0.5820800000000 1.0
C      1  0.4867570000000  0.3885600000000  0.4737010000000 1.0
C      1  0.5157760000000  0.4178830000000  0.4999310000000 1.0
C      1  0.6035920000000  0.4373810000000  0.4550140000000 1.0
C      1  0.4466130000000  0.4900710000000  0.4408790000000 1.0
C      1  0.4449180000000  0.5259210000000  0.5763320000000 1.0
C      1  0.4329380000000  0.5783290000000  0.6532030000000 1.0
C      1  0.6297140000000  0.5249170000000  0.5209000000000 1.0
C      1  0.4703900000000  0.4789860000000  0.4523030000000 1.0
C      1  0.5637420000000  0.5093070000000  0.4858340000000 1.0
C      1  0.4385260000000  0.5524380000000  0.6556380000000 1.0
C      1  0.5492740000000  0.3780270000000  0.4196910000000 1.0
C      1  0.5931710000000  0.5441160000000  0.4627960000000 1.0
C      1  0.5331650000000  0.5134620000000  0.5880330000000 1.0
C      1  0.4195900000000  0.5831420000000  0.4680220000000 1.0
C      1  0.4746320000000  0.4966850000000  0.5291390000000 1.0
C      1  0.4829760000000  0.5956080000000  0.5082500000000 1.0
C      1  0.4396580000000  0.4500750000000  0.5863010000000 1.0
C      1  0.4242800000000  0.4235130000000  0.4477170000000 1.0
C      1  0.4908000000000  0.5220560000000  0.5682500000000 1.0
C      1  0.5900250000000  0.3998180000000  0.4265860000000 1.0
C      1  0.4382360000000  0.5694180000000  0.4834990000000 1.0
C      1  0.4241960000000  0.6138030000000  0.4008030000000 1.0
C      1  0.4454200000000  0.4608040000000  0.5234210000000 1.0
C      1  0.4864460000000  0.6166780000000  0.3581210000000 1.0
C      1  0.5129860000000  0.4527860000000  0.3347710000000 1.0
C      1  0.6137360000000  0.5255990000000  0.4718390000000 1.0
C      1  0.6251170000000  0.5660810000000  0.4982110000000 1.0
C      1  0.3946620000000  0.5859580000000  0.5403070000000 1.0
C      1  0.4176830000000  0.5174220000000  0.4880970000000 1.0
C      1  0.5207990000000  0.5255410000000  0.5232000000000 1.0
C      1  0.4421450000000  0.4767360000000  0.5908700000000 1.0
C      1  0.5193180000000  0.4343950000000  0.3840250000000 1.0
C      1  0.5702960000000  0.4189050000000  0.4162150000000 1.0
C      1  0.5214050000000  0.4094280000000  0.5275660000000 1.0
C      1  0.5386910000000  0.5006110000000  0.4717740000000 1.0
C      1  0.4097820000000  0.5959540000000  0.4469710000000 1.0
C      1  0.4289740000000  0.5990070000000  0.6369430000000 1.0
C      1  0.5169600000000  0.4743540000000  0.4243310000000 1.0
C      1  0.5975520000000  0.5721390000000  0.4629680000000 1.0
C      1  0.5384470000000  0.4310570000000  0.4855520000000 1.0
C      1  0.3758580000000  0.4748120000000  0.5260100000000 1.0
C      1  0.4971670000000  0.5393790000000  0.5121460000000 1.0
C      1  0.4634210000000  0.4298880000000  0.4840200000000 1.0
C      1  0.5480610000000  0.5346460000000  0.5267410000000 1.0
END
