TITL C-3866671-3735-326 78.191147337514 125000 -769.652886615579 0 0 129 (C1) n - 1
REM
REM in /home/nfs/bkarasulu/CARBON/AIRSS/Generating-Clusters/LCBOP/Only-C1/SD-CG/FIRE-CG
REM
REM
REM
REM
REM
REM ./C.cell (11c1c37f851c82e70ff6c80c92926a4b)
REM AIRSS Version 0.9.1 bugfix July 2018 build 013d7b7c2542+ Fri, 06 Jul 2018 19:26:36 +0100
REM compiler GCC version 9.2.1 20190827 (Red Hat 9.2.1-1)
REM options -cpp -mtune=generic -march=x86-64 -g -O0 -fpre-include=/usr/include/finclude/math-vector-fortran.h
REM seed 1067908129 1271713667 1150267352 -1082727661 100194230 175989216 -196285238 -518591145 -640278198 1017996265 -1565582231 1149313851 140047451 1563675508 1545109116 -1497030251 1259499717 -31735089 2136247645 1648540072 -1249649326 -1986929127 1928153863 1727997291 1457377224 1651966410 -244775255 264976668 183704765 -2138589948 1157500377 -662221034 1995000066
REM
CELL 1.54180   50.00000   50.00000   50.00000   90.00000   90.00000   90.00000
LATT -1
SFAC C  
C      1  0.4445090000000  0.4228890000000  0.5365500000000 1.0
C      1  0.4473860000000  0.5509110000000  0.5002600000000 1.0
C      1  0.5492810000000  0.4917790000000  0.4827290000000 1.0
C      1  0.5048520000000  0.5049180000000  0.4959490000000 1.0
C      1  0.5205480000000  0.6013440000000  0.5123950000000 1.0
C      1  0.4488240000000  0.5380400000000  0.5286740000000 1.0
C      1  0.4943300000000  0.4586870000000  0.6093310000000 1.0
C      1  0.5403790000000  0.5685240000000  0.5744520000000 1.0
C      1  0.5986370000000  0.5306660000000  0.4814970000000 1.0
C      1  0.6015740000000  0.4592550000000  0.4698280000000 1.0
C      1  0.4809150000000  0.4383630000000  0.5046460000000 1.0
C      1  0.5558440000000  0.5652200000000  0.4395030000000 1.0
C      1  0.5700730000000  0.5241490000000  0.3764020000000 1.0
C      1  0.5447780000000  0.5437730000000  0.4959550000000 1.0
C      1  0.4893290000000  0.4434660000000  0.4759730000000 1.0
C      1  0.4071240000000  0.4600060000000  0.4860440000000 1.0
C      1  0.5174090000000  0.4186690000000  0.5469730000000 1.0
C      1  0.4716140000000  0.4376080000000  0.5713980000000 1.0
C      1  0.4664520000000  0.4427220000000  0.4574580000000 1.0
C      1  0.4733400000000  0.4606240000000  0.5906520000000 1.0
C      1  0.5647180000000  0.4343820000000  0.4902710000000 1.0
C      1  0.5491540000000  0.5886690000000  0.5097520000000 1.0
C      1  0.4091080000000  0.5096920000000  0.4750220000000 1.0
C      1  0.5564340000000  0.5108900000000  0.3942130000000 1.0
C      1  0.4890530000000  0.4222840000000  0.5514160000000 1.0
C      1  0.4925070000000  0.5819120000000  0.5550310000000 1.0
C      1  0.4948300000000  0.3781290000000  0.4914660000000 1.0
C      1  0.5446750000000  0.4312230000000  0.4387940000000 1.0
C      1  0.4277780000000  0.5555050000000  0.4779900000000 1.0
C      1  0.5788670000000  0.5006510000000  0.4449220000000 1.0
C      1  0.4509680000000  0.4874340000000  0.4833260000000 1.0
C      1  0.5540400000000  0.5697650000000  0.4872370000000 1.0
C      1  0.5278390000000  0.4072470000000  0.5222460000000 1.0
C      1  0.5169990000000  0.4961530000000  0.5651380000000 1.0
C      1  0.5197530000000  0.5276830000000  0.4522530000000 1.0
C      1  0.4666900000000  0.5949390000000  0.4602350000000 1.0
C      1  0.4425520000000  0.4569370000000  0.4484080000000 1.0
C      1  0.4911340000000  0.5045460000000  0.4114340000000 1.0
C      1  0.5854450000000  0.4545690000000  0.4946230000000 1.0
C      1  0.4726260000000  0.4195920000000  0.5262770000000 1.0
C      1  0.4713370000000  0.5401680000000  0.4611850000000 1.0
C      1  0.5132950000000  0.4588570000000  0.4028310000000 1.0
C      1  0.4008740000000  0.5196570000000  0.5222680000000 1.0
C      1  0.3932280000000  0.5188300000000  0.4947040000000 1.0
C      1  0.5613210000000  0.5496860000000  0.5771810000000 1.0
C      1  0.4365880000000  0.5062610000000  0.4696290000000 1.0
C      1  0.4966580000000  0.5972620000000  0.5306030000000 1.0
C      1  0.5190300000000  0.4480250000000  0.6074890000000 1.0
C      1  0.5354430000000  0.5457100000000  0.4402150000000 1.0
C      1  0.4272790000000  0.5029930000000  0.4251850000000 1.0
C      1  0.5213970000000  0.4950650000000  0.5178500000000 1.0
C      1  0.4471910000000  0.3834940000000  0.4704770000000 1.0
C      1  0.4546900000000  0.5287570000000  0.6069190000000 1.0
C      1  0.5297310000000  0.4416250000000  0.4187910000000 1.0
C      1  0.4640620000000  0.5150230000000  0.5241460000000 1.0
C      1  0.5152510000000  0.4877340000000  0.4059340000000 1.0
C      1  0.6157770000000  0.4845280000000  0.4714790000000 1.0
C      1  0.4481440000000  0.5850220000000  0.5338110000000 1.0
C      1  0.5925210000000  0.5300770000000  0.5106260000000 1.0
C      1  0.4662240000000  0.4967860000000  0.5438110000000 1.0
C      1  0.5149950000000  0.5763690000000  0.5708470000000 1.0
C      1  0.5267850000000  0.5013440000000  0.5905420000000 1.0
C      1  0.4716400000000  0.5796900000000  0.4373380000000 1.0
C      1  0.4542880000000  0.5182640000000  0.5820850000000 1.0
C      1  0.5185960000000  0.5385570000000  0.5360410000000 1.0
C      1  0.4121020000000  0.4818180000000  0.5560850000000 1.0
C      1  0.4860520000000  0.5335690000000  0.4108270000000 1.0
C      1  0.5700290000000  0.5686830000000  0.4640190000000 1.0
C      1  0.4761790000000  0.5446890000000  0.4893230000000 1.0
C      1  0.4760720000000  0.4894810000000  0.4315490000000 1.0
C      1  0.5443930000000  0.5139120000000  0.6061660000000 1.0
C      1  0.4179070000000  0.5481500000000  0.4524910000000 1.0
C      1  0.4531900000000  0.5224390000000  0.4542230000000 1.0
C      1  0.5607910000000  0.5345580000000  0.6010430000000 1.0
C      1  0.5365730000000  0.4716580000000  0.5224370000000 1.0
C      1  0.5701640000000  0.5792650000000  0.5278340000000 1.0
C      1  0.4332870000000  0.4673400000000  0.5676610000000 1.0
C      1  0.5134420000000  0.3876850000000  0.5080270000000 1.0
C      1  0.4960440000000  0.4481800000000  0.3844080000000 1.0
C      1  0.5969080000000  0.4776290000000  0.5132050000000 1.0
C      1  0.4149470000000  0.3971650000000  0.5030590000000 1.0
C      1  0.4146090000000  0.4193550000000  0.4606920000000 1.0
C      1  0.6231610000000  0.4841070000000  0.4996480000000 1.0
C      1  0.5100600000000  0.5782910000000  0.4744720000000 1.0
C      1  0.5014140000000  0.5583420000000  0.4925420000000 1.0
C      1  0.5997600000000  0.5070610000000  0.4637710000000 1.0
C      1  0.4548510000000  0.5437800000000  0.5573570000000 1.0
C      1  0.4651810000000  0.5714170000000  0.5557390000000 1.0
C      1  0.5505980000000  0.4191910000000  0.5096710000000 1.0
C      1  0.5808810000000  0.5105510000000  0.5515310000000 1.0
C      1  0.5613490000000  0.5799390000000  0.4172380000000 1.0
C      1  0.5353120000000  0.4391330000000  0.5880280000000 1.0
C      1  0.4692660000000  0.5989740000000  0.5156230000000 1.0
C      1  0.4759780000000  0.6047410000000  0.4867050000000 1.0
C      1  0.4082350000000  0.4916340000000  0.5299070000000 1.0
C      1  0.5206160000000  0.5479880000000  0.5099790000000 1.0
C      1  0.5066720000000  0.5076000000000  0.4671500000000 1.0
C      1  0.4791440000000  0.5588050000000  0.4204190000000 1.0
C      1  0.4209410000000  0.5719210000000  0.5321560000000 1.0
C      1  0.4816540000000  0.5187370000000  0.5035520000000 1.0
C      1  0.5568810000000  0.4292750000000  0.4628570000000 1.0
C      1  0.5102880000000  0.4627900000000  0.4640230000000 1.0
C      1  0.5389130000000  0.4756240000000  0.4610540000000 1.0
C      1  0.4469610000000  0.4724130000000  0.5061260000000 1.0
C      1  0.5524610000000  0.5176120000000  0.4897010000000 1.0
C      1  0.5459040000000  0.4561360000000  0.5424740000000 1.0
C      1  0.4182360000000  0.4723840000000  0.5097380000000 1.0
C      1  0.5890910000000  0.5031440000000  0.5248770000000 1.0
C      1  0.5062570000000  0.6042800000000  0.4860290000000 1.0
C      1  0.5416820000000  0.4961060000000  0.4127860000000 1.0
C      1  0.5356770000000  0.4364470000000  0.5600690000000 1.0
C      1  0.5758840000000  0.5386830000000  0.5553520000000 1.0
C      1  0.4184870000000  0.4474960000000  0.4623510000000 1.0
C      1  0.5208690000000  0.5115940000000  0.5418460000000 1.0
C      1  0.4233470000000  0.4084170000000  0.5257550000000 1.0
C      1  0.4808640000000  0.4735180000000  0.5404080000000 1.0
C      1  0.4939750000000  0.4855360000000  0.4537720000000 1.0
C      1  0.5535670000000  0.4880380000000  0.4377210000000 1.0
C      1  0.4709810000000  0.4623110000000  0.5165750000000 1.0
C      1  0.4167580000000  0.5283120000000  0.4322730000000 1.0
C      1  0.4235680000000  0.3976140000000  0.4762570000000 1.0
C      1  0.4064780000000  0.5474600000000  0.5319120000000 1.0
C      1  0.4535250000000  0.4826120000000  0.5833360000000 1.0
C      1  0.4438720000000  0.4409880000000  0.5594980000000 1.0
C      1  0.4474930000000  0.4815830000000  0.4319830000000 1.0
C      1  0.4721360000000  0.3770000000000  0.4774770000000 1.0
C      1  0.5822850000000  0.5526900000000  0.5300760000000 1.0
C      1  0.5023180000000  0.4729830000000  0.5582690000000 1.0
C      1  0.5947610000000  0.5555660000000  0.4681630000000 1.0
END
