TITL C-3866671-3735-436 -23.3220636029495 125000 -574.916179467982 0 0 94 (C1) n - 1
REM
REM in /home/nfs/bkarasulu/CARBON/AIRSS/Generating-Clusters/LCBOP/Only-C1/SD-CG/FIRE-CG
REM
REM
REM
REM
REM
REM ./C.cell (11c1c37f851c82e70ff6c80c92926a4b)
REM AIRSS Version 0.9.1 bugfix July 2018 build 013d7b7c2542+ Fri, 06 Jul 2018 19:26:36 +0100
REM compiler GCC version 9.2.1 20190827 (Red Hat 9.2.1-1)
REM options -cpp -mtune=generic -march=x86-64 -g -O0 -fpre-include=/usr/include/finclude/math-vector-fortran.h
REM seed 517853927 921585227 994630555 1398356114 672024305 -1458984272 857331520 564593435 1574600383 1147503188 -623968008 96146398 1497397295 -1306565971 -1222483777 705326650 -2027310117 971854276 1371739708 -392546302 1308185466 -1860381293 -1588078681 1496142013 -2097082875 -1737346745 -61052103 -287123423 -2134286487 329925536 -1579651818 1896557338 -541799861
REM
CELL 1.54180   50.00000   50.00000   50.00000   90.00000   90.00000   90.00000
LATT -1
SFAC C  
C      1  0.5592870000000  0.4905320000000  0.4532730000000 1.0
C      1  0.4975860000000  0.5348640000000  0.4145810000000 1.0
C      1  0.4317500000000  0.5396630000000  0.4384700000000 1.0
C      1  0.4533890000000  0.5533180000000  0.4245260000000 1.0
C      1  0.5341100000000  0.3969790000000  0.5515350000000 1.0
C      1  0.4532730000000  0.5064130000000  0.4164740000000 1.0
C      1  0.4655800000000  0.4392970000000  0.5244890000000 1.0
C      1  0.5903950000000  0.4935760000000  0.5749590000000 1.0
C      1  0.4214020000000  0.5533010000000  0.4853730000000 1.0
C      1  0.5281300000000  0.5170920000000  0.5752970000000 1.0
C      1  0.4430330000000  0.4569430000000  0.5281840000000 1.0
C      1  0.4556090000000  0.4645850000000  0.5746210000000 1.0
C      1  0.5035950000000  0.4471240000000  0.5815990000000 1.0
C      1  0.5070290000000  0.4877800000000  0.5435930000000 1.0
C      1  0.5237860000000  0.5432110000000  0.4218390000000 1.0
C      1  0.4358520000000  0.5032750000000  0.5517940000000 1.0
C      1  0.5254800000000  0.4230340000000  0.5456520000000 1.0
C      1  0.4616440000000  0.5890110000000  0.4600410000000 1.0
C      1  0.4609500000000  0.5780700000000  0.4354130000000 1.0
C      1  0.5164650000000  0.4426820000000  0.4552910000000 1.0
C      1  0.5440840000000  0.5241630000000  0.5114490000000 1.0
C      1  0.5687670000000  0.4756300000000  0.5792970000000 1.0
C      1  0.4904220000000  0.4854710000000  0.4939790000000 1.0
C      1  0.4369680000000  0.5383310000000  0.4662340000000 1.0
C      1  0.4608830000000  0.4834610000000  0.4315510000000 1.0
C      1  0.4670630000000  0.5282010000000  0.5238440000000 1.0
C      1  0.4782810000000  0.4547650000000  0.5846000000000 1.0
C      1  0.4859480000000  0.5403730000000  0.5885260000000 1.0
C      1  0.5874160000000  0.5205090000000  0.5664940000000 1.0
C      1  0.4602200000000  0.5820160000000  0.4874440000000 1.0
C      1  0.5314020000000  0.5700530000000  0.4708610000000 1.0
C      1  0.5669200000000  0.5118460000000  0.4703090000000 1.0
C      1  0.5643780000000  0.4435740000000  0.4587660000000 1.0
C      1  0.5301390000000  0.4919740000000  0.4512370000000 1.0
C      1  0.4836130000000  0.5705400000000  0.4997290000000 1.0
C      1  0.5203250000000  0.5125200000000  0.4694800000000 1.0
C      1  0.5107690000000  0.5305020000000  0.5905780000000 1.0
C      1  0.5717320000000  0.4668680000000  0.4442010000000 1.0
C      1  0.5169420000000  0.4685300000000  0.4438350000000 1.0
C      1  0.4120770000000  0.4642010000000  0.4836370000000 1.0
C      1  0.5081410000000  0.5730810000000  0.4865380000000 1.0
C      1  0.5437470000000  0.5222350000000  0.4838030000000 1.0
C      1  0.4505300000000  0.5854130000000  0.5452860000000 1.0
C      1  0.4236490000000  0.4575150000000  0.5071470000000 1.0
C      1  0.4708380000000  0.4718500000000  0.4788310000000 1.0
C      1  0.4696860000000  0.5311160000000  0.4142710000000 1.0
C      1  0.5559700000000  0.5729420000000  0.4849200000000 1.0
C      1  0.4595910000000  0.5195120000000  0.4748940000000 1.0
C      1  0.5623480000000  0.5129950000000  0.3988450000000 1.0
C      1  0.5861840000000  0.5414880000000  0.5497160000000 1.0
C      1  0.5505510000000  0.3481970000000  0.5621500000000 1.0
C      1  0.5717960000000  0.5688020000000  0.5063130000000 1.0
C      1  0.4273290000000  0.5048300000000  0.5081830000000 1.0
C      1  0.5288630000000  0.5603230000000  0.4441500000000 1.0
C      1  0.4914830000000  0.4290560000000  0.4572600000000 1.0
C      1  0.4289660000000  0.5788870000000  0.5278570000000 1.0
C      1  0.5812350000000  0.4695770000000  0.4177820000000 1.0
C      1  0.4580380000000  0.5217640000000  0.5515320000000 1.0
C      1  0.4681840000000  0.5440620000000  0.5673160000000 1.0
C      1  0.5506590000000  0.4565030000000  0.5738550000000 1.0
C      1  0.5453550000000  0.5317240000000  0.4075820000000 1.0
C      1  0.4065790000000  0.4776890000000  0.4608770000000 1.0
C      1  0.4952280000000  0.5102850000000  0.4806110000000 1.0
C      1  0.5423960000000  0.3723940000000  0.5568940000000 1.0
C      1  0.5814940000000  0.5578130000000  0.5288730000000 1.0
C      1  0.6250420000000  0.4678630000000  0.5496820000000 1.0
C      1  0.4793000000000  0.5546120000000  0.5228150000000 1.0
C      1  0.5156610000000  0.4278650000000  0.5191290000000 1.0
C      1  0.5487100000000  0.5046120000000  0.5309450000000 1.0
C      1  0.5294110000000  0.5025090000000  0.5515100000000 1.0
C      1  0.5396750000000  0.4359460000000  0.4707990000000 1.0
C      1  0.4013530000000  0.5371580000000  0.5276520000000 1.0
C      1  0.4098480000000  0.4948010000000  0.4401740000000 1.0
C      1  0.4735660000000  0.4343170000000  0.4360260000000 1.0
C      1  0.5879060000000  0.4696150000000  0.5178240000000 1.0
C      1  0.4647890000000  0.4567190000000  0.4237680000000 1.0
C      1  0.5270900000000  0.4423950000000  0.5668340000000 1.0
C      1  0.5660680000000  0.4837350000000  0.5236690000000 1.0
C      1  0.4967610000000  0.4806510000000  0.5202620000000 1.0
C      1  0.4150310000000  0.5122860000000  0.5331960000000 1.0
C      1  0.4712660000000  0.5664700000000  0.5486820000000 1.0
C      1  0.4837890000000  0.4206320000000  0.4831830000000 1.0
C      1  0.4590380000000  0.4879020000000  0.4591710000000 1.0
C      1  0.4877260000000  0.4277120000000  0.5106670000000 1.0
C      1  0.4525540000000  0.5159540000000  0.5029640000000 1.0
C      1  0.4260630000000  0.5138260000000  0.4266200000000 1.0
C      1  0.4349480000000  0.5749580000000  0.4993460000000 1.0
C      1  0.5759260000000  0.4899250000000  0.4007830000000 1.0
C      1  0.3988890000000  0.5421160000000  0.4990060000000 1.0
C      1  0.6122580000000  0.4626240000000  0.5265710000000 1.0
C      1  0.4423890000000  0.4746280000000  0.5517720000000 1.0
C      1  0.4087950000000  0.5619950000000  0.5394370000000 1.0
C      1  0.5348370000000  0.4302450000000  0.4980240000000 1.0
C      1  0.6157750000000  0.4815950000000  0.5709460000000 1.0
END
