TITL C-3866671-3735-157 -0.0861032250166438 125000 -759.311774437107 0 0 123 (C1) n - 1
REM
REM in /home/nfs/bkarasulu/CARBON/AIRSS/Generating-Clusters/LCBOP/Only-C1/SD-CG/HFTN-CG/FIRE-CG
REM
REM
REM
REM
REM
REM ./C.cell (11c1c37f851c82e70ff6c80c92926a4b)
REM AIRSS Version 0.9.1 bugfix July 2018 build 013d7b7c2542+ Fri, 06 Jul 2018 19:26:36 +0100
REM compiler GCC version 9.2.1 20190827 (Red Hat 9.2.1-1)
REM options -cpp -mtune=generic -march=x86-64 -g -O0 -fpre-include=/usr/include/finclude/math-vector-fortran.h
REM seed 1162386770 1398340926 -693987259 1890859851 1437962009 417987973 191424057 -708064485 2012863781 741051689 1126243432 1868532308 -149893775 518472035 -1130401359 -507917730 1524112878 593025079 1488817232 -2117397330 -150379715 -1548330888 851272199 1819165379 -1642816244 217376869 1221279369 1178525967 -1748269842 -189407413 -1999675959 -518579855 -516961513
REM
CELL 1.54180   50.00000   50.00000   50.00000   90.00000   90.00000   90.00000
LATT -1
SFAC C  
C      1  0.4124010000000  0.4080380000000  0.5216390000000 1.0
C      1  0.5025720000000  0.5036840000000  0.4451640000000 1.0
C      1  0.4646460000000  0.4208170000000  0.4677970000000 1.0
C      1  0.4458200000000  0.5242730000000  0.4084490000000 1.0
C      1  0.5529880000000  0.4991260000000  0.5366250000000 1.0
C      1  0.4882240000000  0.4058440000000  0.4632190000000 1.0
C      1  0.5753740000000  0.5043960000000  0.4328970000000 1.0
C      1  0.4162220000000  0.4138200000000  0.5476190000000 1.0
C      1  0.3927730000000  0.5110250000000  0.5282560000000 1.0
C      1  0.5321260000000  0.4864760000000  0.3902800000000 1.0
C      1  0.3966870000000  0.4639310000000  0.5050880000000 1.0
C      1  0.4829110000000  0.5021180000000  0.4875580000000 1.0
C      1  0.4046540000000  0.5359530000000  0.5354110000000 1.0
C      1  0.5453920000000  0.4265280000000  0.5695100000000 1.0
C      1  0.5367910000000  0.5167320000000  0.4791770000000 1.0
C      1  0.5115630000000  0.5283480000000  0.4058250000000 1.0
C      1  0.4500610000000  0.4157980000000  0.4920880000000 1.0
C      1  0.5016160000000  0.4908730000000  0.5561220000000 1.0
C      1  0.5295420000000  0.5437140000000  0.5903700000000 1.0
C      1  0.5867530000000  0.5041900000000  0.4589140000000 1.0
C      1  0.4278750000000  0.5149720000000  0.3913250000000 1.0
C      1  0.4904720000000  0.5726170000000  0.5739080000000 1.0
C      1  0.3792580000000  0.4368980000000  0.4416860000000 1.0
C      1  0.6498680000000  0.5383140000000  0.4743550000000 1.0
C      1  0.5715920000000  0.5065640000000  0.5562030000000 1.0
C      1  0.5157020000000  0.5681020000000  0.4853600000000 1.0
C      1  0.5761740000000  0.4873910000000  0.4794630000000 1.0
C      1  0.5115820000000  0.3906260000000  0.5236110000000 1.0
C      1  0.5006310000000  0.4745330000000  0.4476010000000 1.0
C      1  0.4594350000000  0.5128120000000  0.5590050000000 1.0
C      1  0.4738470000000  0.5086190000000  0.5151190000000 1.0
C      1  0.4386200000000  0.5651620000000  0.5550250000000 1.0
C      1  0.4347840000000  0.5180760000000  0.5718500000000 1.0
C      1  0.4328810000000  0.5044600000000  0.5963560000000 1.0
C      1  0.4569190000000  0.5995990000000  0.4910220000000 1.0
C      1  0.5707630000000  0.5436250000000  0.4041260000000 1.0
C      1  0.4784510000000  0.4832800000000  0.6000470000000 1.0
C      1  0.5600410000000  0.4514320000000  0.5676260000000 1.0
C      1  0.5708190000000  0.6005960000000  0.4678980000000 1.0
C      1  0.5767070000000  0.4538010000000  0.5443900000000 1.0
C      1  0.5485270000000  0.4915120000000  0.4835240000000 1.0
C      1  0.6244730000000  0.5337500000000  0.4707040000000 1.0
C      1  0.5595020000000  0.5658000000000  0.3937910000000 1.0
C      1  0.4256460000000  0.4998820000000  0.4971900000000 1.0
C      1  0.5610900000000  0.5011200000000  0.5820370000000 1.0
C      1  0.5383390000000  0.3991430000000  0.5248670000000 1.0
C      1  0.5608440000000  0.5187900000000  0.4133980000000 1.0
C      1  0.5217200000000  0.4225090000000  0.5843570000000 1.0
C      1  0.5948490000000  0.5209890000000  0.5514570000000 1.0
C      1  0.4918500000000  0.5208280000000  0.4249680000000 1.0
C      1  0.5144670000000  0.4014410000000  0.4647070000000 1.0
C      1  0.5726640000000  0.4258630000000  0.5046310000000 1.0
C      1  0.4447500000000  0.4387120000000  0.4267510000000 1.0
C      1  0.4132700000000  0.5557330000000  0.5152320000000 1.0
C      1  0.4654040000000  0.4031800000000  0.5127550000000 1.0
C      1  0.6023130000000  0.5709480000000  0.5480350000000 1.0
C      1  0.5348900000000  0.5110360000000  0.4033960000000 1.0
C      1  0.5465900000000  0.5229350000000  0.5937200000000 1.0
C      1  0.4211420000000  0.4348120000000  0.3799520000000 1.0
C      1  0.5231870000000  0.4970510000000  0.5337530000000 1.0
C      1  0.4669840000000  0.5619600000000  0.5616740000000 1.0
C      1  0.5774990000000  0.5485980000000  0.4746570000000 1.0
C      1  0.4554790000000  0.5469200000000  0.4509180000000 1.0
C      1  0.4883960000000  0.5319730000000  0.5268970000000 1.0
C      1  0.5810810000000  0.5759970000000  0.4694930000000 1.0
C      1  0.4853410000000  0.3970500000000  0.5316390000000 1.0
C      1  0.4446720000000  0.5143560000000  0.5116690000000 1.0
C      1  0.4645620000000  0.5310150000000  0.4281660000000 1.0
C      1  0.4736130000000  0.5368200000000  0.5506480000000 1.0
C      1  0.4024210000000  0.4910510000000  0.5104300000000 1.0
C      1  0.4767520000000  0.5889680000000  0.4744600000000 1.0
C      1  0.3935260000000  0.4391970000000  0.4633750000000 1.0
C      1  0.4708930000000  0.4625510000000  0.5355090000000 1.0
C      1  0.5178910000000  0.5633190000000  0.5731470000000 1.0
C      1  0.6068090000000  0.5446270000000  0.5486210000000 1.0
C      1  0.4732790000000  0.4915040000000  0.5419510000000 1.0
C      1  0.5014810000000  0.4824820000000  0.5837540000000 1.0
C      1  0.5816620000000  0.5878870000000  0.5492430000000 1.0
C      1  0.4302620000000  0.5474050000000  0.4643930000000 1.0
C      1  0.4638760000000  0.4859260000000  0.4717050000000 1.0
C      1  0.5490820000000  0.6160250000000  0.4700990000000 1.0
C      1  0.5300800000000  0.4708940000000  0.4883810000000 1.0
C      1  0.4992550000000  0.5476470000000  0.4725910000000 1.0
C      1  0.4943770000000  0.4557070000000  0.5205930000000 1.0
C      1  0.5168470000000  0.4722960000000  0.5137100000000 1.0
C      1  0.5227700000000  0.6148240000000  0.4751920000000 1.0
C      1  0.5523770000000  0.5402230000000  0.4851690000000 1.0
C      1  0.5254330000000  0.4725480000000  0.5943820000000 1.0
C      1  0.4330060000000  0.4317090000000  0.5584030000000 1.0
C      1  0.4754900000000  0.5615800000000  0.4641820000000 1.0
C      1  0.4048560000000  0.4418910000000  0.4887940000000 1.0
C      1  0.5333510000000  0.5704380000000  0.3890000000000 1.0
C      1  0.5057830000000  0.5177860000000  0.4722130000000 1.0
C      1  0.4739890000000  0.4667220000000  0.4537090000000 1.0
C      1  0.5971910000000  0.5291910000000  0.4680030000000 1.0
C      1  0.5518290000000  0.4737770000000  0.5845460000000 1.0
C      1  0.5371600000000  0.5585760000000  0.5005010000000 1.0
C      1  0.4973240000000  0.4124150000000  0.5793750000000 1.0
C      1  0.4213460000000  0.5403400000000  0.5594730000000 1.0
C      1  0.5316530000000  0.5511750000000  0.5272860000000 1.0
C      1  0.5047870000000  0.5942300000000  0.4803770000000 1.0
C      1  0.5160530000000  0.5274850000000  0.5287820000000 1.0
C      1  0.4526310000000  0.4478390000000  0.5504030000000 1.0
C      1  0.5194810000000  0.4610800000000  0.4640450000000 1.0
C      1  0.5815180000000  0.4499530000000  0.5165020000000 1.0
C      1  0.4362270000000  0.4892940000000  0.4738730000000 1.0
C      1  0.5494330000000  0.4069520000000  0.5495090000000 1.0
C      1  0.5513800000000  0.4079460000000  0.5011220000000 1.0
C      1  0.5284040000000  0.4628770000000  0.3798720000000 1.0
C      1  0.4305360000000  0.5752870000000  0.5286560000000 1.0
C      1  0.4604370000000  0.4423200000000  0.4495290000000 1.0
C      1  0.4100380000000  0.5054720000000  0.3748570000000 1.0
C      1  0.4329180000000  0.4367150000000  0.4031310000000 1.0
C      1  0.5885930000000  0.4705610000000  0.4983380000000 1.0
C      1  0.4223670000000  0.4214150000000  0.4986030000000 1.0
C      1  0.4427140000000  0.5951100000000  0.5132160000000 1.0
C      1  0.5337530000000  0.5687170000000  0.5496590000000 1.0
C      1  0.4533200000000  0.4900100000000  0.6067330000000 1.0
C      1  0.5549840000000  0.5869980000000  0.5504720000000 1.0
C      1  0.4827380000000  0.4021870000000  0.5592890000000 1.0
C      1  0.4160930000000  0.5519380000000  0.4871040000000 1.0
C      1  0.5381660000000  0.4032230000000  0.4768640000000 1.0
C      1  0.5126970000000  0.5538220000000  0.3939060000000 1.0
END
