TITL C-3866673-4222-164 -7.92932405400889e-07 125000 -1087.4908741621 0 0 175 (C1) n - 1
REM
REM in /home/nfs/bkarasulu/CARBON/AIRSS/Generating-Clusters/LCBOP/Only-C1/SD-CG/HFTN-CG/FIRE-CG
REM
REM
REM
REM
REM
REM ./C.cell (11c1c37f851c82e70ff6c80c92926a4b)
REM AIRSS Version 0.9.1 bugfix July 2018 build 013d7b7c2542+ Fri, 06 Jul 2018 19:26:36 +0100
REM compiler GCC version 9.2.1 20190827 (Red Hat 9.2.1-1)
REM options -cpp -mtune=generic -march=x86-64 -g -O0 -fpre-include=/usr/include/finclude/math-vector-fortran.h
REM seed 453247371 -1257484067 -570382571 -2011122808 -648091983 -1341231248 -1652634330 -2026639395 1317357320 -1626960014 332021809 181593586 -795725201 1735145223 1171353877 1589351668 -536550968 -875526449 -1453974962 549138557 -938673013 1007395864 -663680420 1757683762 752191467 1258441326 -1997156203 1099942197 -757977081 -152744071 -1835172769 13955944 363144928
REM
CELL 1.54180   50.00000   50.00000   50.00000   90.00000   90.00000   90.00000
LATT -1
SFAC C  
C      1  0.5431910000000  0.4310340000000  0.4811700000000 1.0
C      1  0.4612790000000  0.6117420000000  0.4874270000000 1.0
C      1  0.5286010000000  0.4726200000000  0.3848190000000 1.0
C      1  0.4628590000000  0.5638500000000  0.5857220000000 1.0
C      1  0.5425120000000  0.5592960000000  0.5676140000000 1.0
C      1  0.3822710000000  0.4718230000000  0.6060210000000 1.0
C      1  0.5024600000000  0.5996680000000  0.5365480000000 1.0
C      1  0.4367120000000  0.5533230000000  0.5895890000000 1.0
C      1  0.4156290000000  0.5578730000000  0.4922450000000 1.0
C      1  0.3961350000000  0.5263660000000  0.4584910000000 1.0
C      1  0.4404390000000  0.3754640000000  0.4695100000000 1.0
C      1  0.5146360000000  0.3780030000000  0.4483680000000 1.0
C      1  0.5382250000000  0.5941700000000  0.5036160000000 1.0
C      1  0.5869280000000  0.5351270000000  0.4374770000000 1.0
C      1  0.4454370000000  0.5160740000000  0.5050690000000 1.0
C      1  0.4929400000000  0.4967900000000  0.5006100000000 1.0
C      1  0.5665650000000  0.5312620000000  0.4157590000000 1.0
C      1  0.4983660000000  0.4419960000000  0.4072980000000 1.0
C      1  0.5070730000000  0.5407810000000  0.3958300000000 1.0
C      1  0.5832040000000  0.4732870000000  0.5158500000000 1.0
C      1  0.4401060000000  0.4472440000000  0.4846590000000 1.0
C      1  0.4963940000000  0.5925250000000  0.4491710000000 1.0
C      1  0.4425360000000  0.5448080000000  0.5004560000000 1.0
C      1  0.4614350000000  0.4592060000000  0.3791200000000 1.0
C      1  0.5817390000000  0.4207900000000  0.5132590000000 1.0
C      1  0.6083900000000  0.5386510000000  0.5164130000000 1.0
C      1  0.5110650000000  0.4436270000000  0.5819400000000 1.0
C      1  0.5419560000000  0.5049020000000  0.5010500000000 1.0
C      1  0.5322560000000  0.4988690000000  0.3951120000000 1.0
C      1  0.4676350000000  0.5040330000000  0.4905660000000 1.0
C      1  0.4161370000000  0.5834220000000  0.5059710000000 1.0
C      1  0.5212610000000  0.4446600000000  0.4910390000000 1.0
C      1  0.4620710000000  0.3678400000000  0.4539940000000 1.0
C      1  0.4140340000000  0.5506530000000  0.5745950000000 1.0
C      1  0.4564960000000  0.5556090000000  0.5250420000000 1.0
C      1  0.4122950000000  0.5484790000000  0.4647160000000 1.0
C      1  0.5159170000000  0.4643720000000  0.4713510000000 1.0
C      1  0.4849240000000  0.3792820000000  0.5166700000000 1.0
C      1  0.4825620000000  0.4309390000000  0.5208360000000 1.0
C      1  0.5876030000000  0.5550610000000  0.5054690000000 1.0
C      1  0.5131580000000  0.5867910000000  0.4051150000000 1.0
C      1  0.5489190000000  0.4353920000000  0.4095780000000 1.0
C      1  0.5265640000000  0.5977440000000  0.5974660000000 1.0
C      1  0.5192710000000  0.5794320000000  0.5225910000000 1.0
C      1  0.5439050000000  0.4157110000000  0.5507170000000 1.0
C      1  0.4964590000000  0.5317500000000  0.5400780000000 1.0
C      1  0.5622420000000  0.5269880000000  0.5948250000000 1.0
C      1  0.5979450000000  0.4925760000000  0.5307170000000 1.0
C      1  0.4231280000000  0.4074740000000  0.5106150000000 1.0
C      1  0.4183680000000  0.5775740000000  0.5345690000000 1.0
C      1  0.6271600000000  0.4500150000000  0.4645970000000 1.0
C      1  0.4576240000000  0.4438180000000  0.5126950000000 1.0
C      1  0.4051200000000  0.5540950000000  0.5473070000000 1.0
C      1  0.3948670000000  0.5309460000000  0.5323280000000 1.0
C      1  0.4777430000000  0.5948310000000  0.4707430000000 1.0
C      1  0.5266400000000  0.5614080000000  0.4018710000000 1.0
C      1  0.5522480000000  0.4637510000000  0.6325630000000 1.0
C      1  0.4293970000000  0.4765700000000  0.5358770000000 1.0
C      1  0.5170350000000  0.4866970000000  0.6132930000000 1.0
C      1  0.4588770000000  0.4466530000000  0.4593410000000 1.0
C      1  0.4493510000000  0.5181050000000  0.5528430000000 1.0
C      1  0.4699650000000  0.3758550000000  0.5406550000000 1.0
C      1  0.5615880000000  0.4836640000000  0.4986440000000 1.0
C      1  0.4612080000000  0.4735060000000  0.4475670000000 1.0
C      1  0.4894810000000  0.5884710000000  0.4219500000000 1.0
C      1  0.4341670000000  0.6035030000000  0.4945080000000 1.0
C      1  0.4905920000000  0.5034800000000  0.4218970000000 1.0
C      1  0.4781730000000  0.5006110000000  0.5917910000000 1.0
C      1  0.3898420000000  0.4909980000000  0.3952080000000 1.0
C      1  0.4987210000000  0.4748990000000  0.5168590000000 1.0
C      1  0.3842690000000  0.4783940000000  0.5255730000000 1.0
C      1  0.4791160000000  0.4274290000000  0.4543500000000 1.0
C      1  0.5912550000000  0.5651550000000  0.5966680000000 1.0
C      1  0.6052310000000  0.5192190000000  0.5377100000000 1.0
C      1  0.4286510000000  0.4904900000000  0.5863000000000 1.0
C      1  0.4902490000000  0.5945500000000  0.5614560000000 1.0
C      1  0.5969590000000  0.5119620000000  0.4492660000000 1.0
C      1  0.5451770000000  0.4114060000000  0.4264020000000 1.0
C      1  0.5077680000000  0.5261320000000  0.4670370000000 1.0
C      1  0.3867780000000  0.4746690000000  0.4161160000000 1.0
C      1  0.4051060000000  0.4809160000000  0.5973640000000 1.0
C      1  0.5575670000000  0.5878190000000  0.4827270000000 1.0
C      1  0.4873690000000  0.4431550000000  0.5662830000000 1.0
C      1  0.4048890000000  0.4575130000000  0.5314600000000 1.0
C      1  0.4469070000000  0.5775730000000  0.5409430000000 1.0
C      1  0.5155010000000  0.5090970000000  0.4888580000000 1.0
C      1  0.5671710000000  0.4744010000000  0.4723450000000 1.0
C      1  0.5197990000000  0.5770080000000  0.4563250000000 1.0
C      1  0.4829870000000  0.4087850000000  0.4752270000000 1.0
C      1  0.4915150000000  0.5600740000000  0.5949840000000 1.0
C      1  0.4815910000000  0.4217820000000  0.5487260000000 1.0
C      1  0.5587840000000  0.5050160000000  0.4049470000000 1.0
C      1  0.5519220000000  0.4866440000000  0.5714560000000 1.0
C      1  0.4319390000000  0.4774030000000  0.4862120000000 1.0
C      1  0.4743540000000  0.4668430000000  0.5565290000000 1.0
C      1  0.4105690000000  0.4293740000000  0.5232860000000 1.0
C      1  0.5627930000000  0.5750870000000  0.4357270000000 1.0
C      1  0.5279790000000  0.3952190000000  0.5398490000000 1.0
C      1  0.5695050000000  0.4179110000000  0.5386490000000 1.0
C      1  0.5462150000000  0.4884340000000  0.6189510000000 1.0
C      1  0.5526000000000  0.5983140000000  0.6037140000000 1.0
C      1  0.5326240000000  0.4449980000000  0.6268290000000 1.0
C      1  0.6169400000000  0.4476460000000  0.4895790000000 1.0
C      1  0.5768190000000  0.5868320000000  0.6032880000000 1.0
C      1  0.4985780000000  0.4364320000000  0.4354260000000 1.0
C      1  0.5230880000000  0.5491590000000  0.4634760000000 1.0
C      1  0.4237960000000  0.5553280000000  0.4067880000000 1.0
C      1  0.6201840000000  0.4495210000000  0.4381340000000 1.0
C      1  0.4521850000000  0.4956670000000  0.6012230000000 1.0
C      1  0.4765500000000  0.6278640000000  0.5052610000000 1.0
C      1  0.3963600000000  0.5050630000000  0.5188170000000 1.0
C      1  0.5132480000000  0.4564800000000  0.6079010000000 1.0
C      1  0.3895410000000  0.4746630000000  0.4441160000000 1.0
C      1  0.4802790000000  0.5506980000000  0.3951270000000 1.0
C      1  0.4735110000000  0.4803510000000  0.4222250000000 1.0
C      1  0.5459450000000  0.5883130000000  0.4554660000000 1.0
C      1  0.4089250000000  0.5387130000000  0.3922770000000 1.0
C      1  0.5742370000000  0.4807120000000  0.4058380000000 1.0
C      1  0.5740080000000  0.4523390000000  0.4108680000000 1.0
C      1  0.5379050000000  0.5418490000000  0.5895070000000 1.0
C      1  0.4247810000000  0.4954050000000  0.5103730000000 1.0
C      1  0.4769810000000  0.4604830000000  0.4014520000000 1.0
C      1  0.3898390000000  0.5004390000000  0.4559460000000 1.0
C      1  0.5360760000000  0.4373570000000  0.5680060000000 1.0
C      1  0.5948280000000  0.4467550000000  0.5079330000000 1.0
C      1  0.4920140000000  0.5172910000000  0.4461590000000 1.0
C      1  0.4775950000000  0.5682290000000  0.4800010000000 1.0
C      1  0.5044740000000  0.4473820000000  0.5128730000000 1.0
C      1  0.5009580000000  0.6224100000000  0.5183020000000 1.0
C      1  0.5114000000000  0.5525420000000  0.5275960000000 1.0
C      1  0.5042470000000  0.5856860000000  0.5855490000000 1.0
C      1  0.5054760000000  0.5074690000000  0.5522840000000 1.0
C      1  0.5816210000000  0.5693210000000  0.4809740000000 1.0
C      1  0.5544320000000  0.4589900000000  0.5685720000000 1.0
C      1  0.4544510000000  0.4623670000000  0.5351930000000 1.0
C      1  0.5321970000000  0.4995050000000  0.5557890000000 1.0
C      1  0.4318100000000  0.4963980000000  0.5586580000000 1.0
C      1  0.3959380000000  0.4509380000000  0.4581080000000 1.0
C      1  0.4693830000000  0.5687940000000  0.4145610000000 1.0
C      1  0.5627630000000  0.4470470000000  0.4680510000000 1.0
C      1  0.5802570000000  0.4326270000000  0.4518000000000 1.0
C      1  0.5492570000000  0.4034950000000  0.4761270000000 1.0
C      1  0.4418450000000  0.3915100000000  0.4938360000000 1.0
C      1  0.4850560000000  0.4915820000000  0.5653760000000 1.0
C      1  0.5855800000000  0.4896750000000  0.4581290000000 1.0
C      1  0.5645380000000  0.5502350000000  0.5221670000000 1.0
C      1  0.4535400000000  0.4899330000000  0.4696380000000 1.0
C      1  0.4571280000000  0.5508160000000  0.4749120000000 1.0
C      1  0.5012730000000  0.5095890000000  0.6057040000000 1.0
C      1  0.5579080000000  0.5631450000000  0.5460380000000 1.0
C      1  0.5508850000000  0.5266970000000  0.5161530000000 1.0
C      1  0.4888060000000  0.3691180000000  0.4481830000000 1.0
C      1  0.5591930000000  0.4992250000000  0.5962910000000 1.0
C      1  0.5379270000000  0.3950590000000  0.4500570000000 1.0
C      1  0.5490100000000  0.5403030000000  0.4673240000000 1.0
C      1  0.5728410000000  0.4005460000000  0.4934650000000 1.0
C      1  0.3975770000000  0.5151910000000  0.3871390000000 1.0
C      1  0.5251820000000  0.4471010000000  0.3968170000000 1.0
C      1  0.5521550000000  0.5571240000000  0.4143370000000 1.0
C      1  0.5093150000000  0.5133580000000  0.4023280000000 1.0
C      1  0.4696400000000  0.3975990000000  0.5568170000000 1.0
C      1  0.4682690000000  0.5349270000000  0.5404920000000 1.0
C      1  0.4139290000000  0.4368620000000  0.4727210000000 1.0
C      1  0.5872070000000  0.5389920000000  0.5867160000000 1.0
C      1  0.4711700000000  0.3939180000000  0.4964010000000 1.0
C      1  0.6015590000000  0.5283150000000  0.5645490000000 1.0
C      1  0.4635960000000  0.5832720000000  0.5630810000000 1.0
C      1  0.5125610000000  0.3824650000000  0.5218780000000 1.0
C      1  0.5844590000000  0.5609280000000  0.4516710000000 1.0
C      1  0.5102490000000  0.5372560000000  0.5993820000000 1.0
C      1  0.4440920000000  0.5608520000000  0.4256380000000 1.0
C      1  0.5262230000000  0.6211420000000  0.5038920000000 1.0
C      1  0.4389590000000  0.5526540000000  0.4524100000000 1.0
C      1  0.5143410000000  0.4576500000000  0.4458570000000 1.0
C      1  0.5939410000000  0.4427930000000  0.4294410000000 1.0
END
