TITL C-3866676-3738-823 -153.338618717172 125000 -915.222620001756 0 0 149 (C1) n - 1
REM
REM in /home/nfs/bkarasulu/CARBON/AIRSS/Generating-Clusters/LCBOP/Only-C1/SD-CG/FIRE-CG
REM
REM
REM
REM
REM
REM ./C.cell (11c1c37f851c82e70ff6c80c92926a4b)
REM AIRSS Version 0.9.1 bugfix July 2018 build 013d7b7c2542+ Fri, 06 Jul 2018 19:26:36 +0100
REM compiler GCC version 9.2.1 20190827 (Red Hat 9.2.1-1)
REM options -cpp -mtune=generic -march=x86-64 -g -O0 -fpre-include=/usr/include/finclude/math-vector-fortran.h
REM seed 1074261972 -1640360098 -913742746 1049865113 195244355 1609102632 1124813256 579164635 -24821462 -1743804742 369144979 1176731310 2079384494 -311112272 -1382550062 189295645 -840087082 1658793708 666324803 937576860 -1433213918 -764147137 -919211611 -1078159517 -612901849 737835134 -217853710 855322903 1291683237 702454937 -1790687273 -1721275689 -1882003706
REM
CELL 1.54180   50.00000   50.00000   50.00000   90.00000   90.00000   90.00000
LATT -1
SFAC C  
C      1  0.5496420000000  0.5677500000000  0.5854520000000 1.0
C      1  0.5555840000000  0.5408590000000  0.5810880000000 1.0
C      1  0.5175720000000  0.4331880000000  0.4658570000000 1.0
C      1  0.4530380000000  0.5435370000000  0.3943580000000 1.0
C      1  0.5852360000000  0.4688300000000  0.5096170000000 1.0
C      1  0.4441670000000  0.3957810000000  0.5159520000000 1.0
C      1  0.5350670000000  0.4752540000000  0.5531570000000 1.0
C      1  0.4766320000000  0.5589560000000  0.3961380000000 1.0
C      1  0.5518080000000  0.5858970000000  0.5390120000000 1.0
C      1  0.5043260000000  0.4292780000000  0.4174070000000 1.0
C      1  0.5071450000000  0.4050720000000  0.6014850000000 1.0
C      1  0.5842350000000  0.4758130000000  0.5560480000000 1.0
C      1  0.4172350000000  0.5732940000000  0.4169270000000 1.0
C      1  0.5104180000000  0.4815740000000  0.4758690000000 1.0
C      1  0.5388500000000  0.5957210000000  0.4309810000000 1.0
C      1  0.5661420000000  0.4493410000000  0.5176730000000 1.0
C      1  0.6098110000000  0.5269940000000  0.5037560000000 1.0
C      1  0.4751650000000  0.4894210000000  0.5037630000000 1.0
C      1  0.5182880000000  0.6067870000000  0.4755990000000 1.0
C      1  0.5421510000000  0.5495530000000  0.4117080000000 1.0
C      1  0.5584430000000  0.4792030000000  0.5693440000000 1.0
C      1  0.4687800000000  0.5658330000000  0.4887390000000 1.0
C      1  0.5776070000000  0.5245630000000  0.5383400000000 1.0
C      1  0.4572080000000  0.4536530000000  0.4279800000000 1.0
C      1  0.3941430000000  0.5642630000000  0.4302200000000 1.0
C      1  0.5354010000000  0.6050900000000  0.5226850000000 1.0
C      1  0.4492830000000  0.4297190000000  0.5557040000000 1.0
C      1  0.4700260000000  0.5169820000000  0.5368140000000 1.0
C      1  0.5080790000000  0.4521310000000  0.4861880000000 1.0
C      1  0.4886010000000  0.6025170000000  0.5139400000000 1.0
C      1  0.5486000000000  0.5767600000000  0.4146260000000 1.0
C      1  0.6005150000000  0.5113190000000  0.5261350000000 1.0
C      1  0.4531910000000  0.5185070000000  0.4083940000000 1.0
C      1  0.4392860000000  0.4205040000000  0.5300210000000 1.0
C      1  0.5985020000000  0.5207860000000  0.5832020000000 1.0
C      1  0.5006000000000  0.6076280000000  0.5611030000000 1.0
C      1  0.4791760000000  0.3879810000000  0.5519120000000 1.0
C      1  0.4948500000000  0.4338980000000  0.5508680000000 1.0
C      1  0.5345940000000  0.5349070000000  0.4355280000000 1.0
C      1  0.4132950000000  0.4764800000000  0.4427390000000 1.0
C      1  0.5671430000000  0.5603390000000  0.4712820000000 1.0
C      1  0.5400340000000  0.5373460000000  0.3867300000000 1.0
C      1  0.4943550000000  0.6143820000000  0.4887590000000 1.0
C      1  0.4001920000000  0.5471180000000  0.4771790000000 1.0
C      1  0.4605910000000  0.5307580000000  0.4570200000000 1.0
C      1  0.4899330000000  0.5715750000000  0.4156650000000 1.0
C      1  0.4841860000000  0.5614240000000  0.5397590000000 1.0
C      1  0.5668070000000  0.4711300000000  0.4630590000000 1.0
C      1  0.3882680000000  0.4599790000000  0.5306030000000 1.0
C      1  0.5338010000000  0.3936320000000  0.4858130000000 1.0
C      1  0.5212370000000  0.4466980000000  0.5139700000000 1.0
C      1  0.4900640000000  0.3948320000000  0.4580270000000 1.0
C      1  0.5717430000000  0.4826080000000  0.4885340000000 1.0
C      1  0.5186500000000  0.5932700000000  0.4505010000000 1.0
C      1  0.4917900000000  0.5160550000000  0.5555860000000 1.0
C      1  0.4152780000000  0.4872290000000  0.5721000000000 1.0
C      1  0.3878020000000  0.4791330000000  0.4846950000000 1.0
C      1  0.4750810000000  0.4152000000000  0.5644810000000 1.0
C      1  0.4826030000000  0.4131210000000  0.5930640000000 1.0
C      1  0.4582050000000  0.4371030000000  0.4751250000000 1.0
C      1  0.4288550000000  0.5584870000000  0.3957650000000 1.0
C      1  0.4820820000000  0.6429660000000  0.6208630000000 1.0
C      1  0.3872900000000  0.4552540000000  0.5011920000000 1.0
C      1  0.5243840000000  0.4730590000000  0.4034630000000 1.0
C      1  0.4355030000000  0.4829670000000  0.4849360000000 1.0
C      1  0.4449060000000  0.5221840000000  0.4353700000000 1.0
C      1  0.5129210000000  0.4096610000000  0.4003810000000 1.0
C      1  0.4516030000000  0.5441120000000  0.4808650000000 1.0
C      1  0.6165690000000  0.5537050000000  0.5107990000000 1.0
C      1  0.5084540000000  0.6085870000000  0.5337530000000 1.0
C      1  0.4646150000000  0.4947370000000  0.5949120000000 1.0
C      1  0.5398700000000  0.6012110000000  0.4937720000000 1.0
C      1  0.4841320000000  0.5140670000000  0.5125500000000 1.0
C      1  0.5085800000000  0.5412660000000  0.4476200000000 1.0
C      1  0.6032780000000  0.5745070000000  0.5214060000000 1.0
C      1  0.4900780000000  0.3748880000000  0.5309940000000 1.0
C      1  0.5315090000000  0.5354270000000  0.5220040000000 1.0
C      1  0.4881050000000  0.3782860000000  0.5031220000000 1.0
C      1  0.4746080000000  0.5787750000000  0.4629530000000 1.0
C      1  0.5254310000000  0.5005410000000  0.4911050000000 1.0
C      1  0.5975680000000  0.5239640000000  0.4779570000000 1.0
C      1  0.5253020000000  0.4901130000000  0.3813660000000 1.0
C      1  0.4224260000000  0.5130270000000  0.5596330000000 1.0
C      1  0.5744500000000  0.5336350000000  0.4641150000000 1.0
C      1  0.4681590000000  0.4367900000000  0.4483730000000 1.0
C      1  0.4783450000000  0.5753870000000  0.5145990000000 1.0
C      1  0.4779860000000  0.4647190000000  0.5168870000000 1.0
C      1  0.5456160000000  0.4221170000000  0.4738630000000 1.0
C      1  0.4630820000000  0.4885820000000  0.4779210000000 1.0
C      1  0.5499310000000  0.5886370000000  0.5684730000000 1.0
C      1  0.5141590000000  0.4252430000000  0.5320870000000 1.0
C      1  0.4411060000000  0.4804210000000  0.5353080000000 1.0
C      1  0.5568190000000  0.4899330000000  0.4418810000000 1.0
C      1  0.4659080000000  0.5241680000000  0.5985280000000 1.0
C      1  0.5967690000000  0.4831620000000  0.5310390000000 1.0
C      1  0.4334020000000  0.4413040000000  0.5121280000000 1.0
C      1  0.5322410000000  0.4031910000000  0.5363400000000 1.0
C      1  0.4430100000000  0.4777680000000  0.5824370000000 1.0
C      1  0.5024980000000  0.4851610000000  0.5615100000000 1.0
C      1  0.4791410000000  0.4460910000000  0.4944170000000 1.0
C      1  0.4535270000000  0.5924930000000  0.4496850000000 1.0
C      1  0.5556210000000  0.5202100000000  0.5207210000000 1.0
C      1  0.5323520000000  0.5149020000000  0.3746510000000 1.0
C      1  0.4983990000000  0.5712090000000  0.4451300000000 1.0
C      1  0.5623080000000  0.4421620000000  0.4547050000000 1.0
C      1  0.4302260000000  0.4613920000000  0.4285050000000 1.0
C      1  0.4883070000000  0.5218280000000  0.4545050000000 1.0
C      1  0.5066430000000  0.3856430000000  0.4808570000000 1.0
C      1  0.5529680000000  0.5013300000000  0.4986720000000 1.0
C      1  0.4664660000000  0.4941400000000  0.4023120000000 1.0
C      1  0.4535210000000  0.4614870000000  0.5576630000000 1.0
C      1  0.5792050000000  0.5333520000000  0.5655870000000 1.0
C      1  0.3972380000000  0.4706090000000  0.5548760000000 1.0
C      1  0.5604650000000  0.4944800000000  0.5934910000000 1.0
C      1  0.5014460000000  0.4570280000000  0.4091530000000 1.0
C      1  0.5469860000000  0.4717930000000  0.4205420000000 1.0
C      1  0.5358870000000  0.5603940000000  0.5327760000000 1.0
C      1  0.4802620000000  0.5758250000000  0.5950570000000 1.0
C      1  0.4913370000000  0.4830780000000  0.5906420000000 1.0
C      1  0.5294560000000  0.3980120000000  0.5881390000000 1.0
C      1  0.4627080000000  0.3879910000000  0.4664960000000 1.0
C      1  0.4008680000000  0.4341110000000  0.4839550000000 1.0
C      1  0.4961160000000  0.4227560000000  0.4458870000000 1.0
C      1  0.5589460000000  0.5826720000000  0.4836540000000 1.0
C      1  0.5803770000000  0.5847590000000  0.5306060000000 1.0
C      1  0.3881400000000  0.5545330000000  0.4544630000000 1.0
C      1  0.5414660000000  0.3895030000000  0.5132030000000 1.0
C      1  0.4114440000000  0.4843280000000  0.4696240000000 1.0
C      1  0.4752040000000  0.4684950000000  0.4112090000000 1.0
C      1  0.5880790000000  0.5011360000000  0.5996400000000 1.0
C      1  0.4791110000000  0.5484350000000  0.5881860000000 1.0
C      1  0.4603110000000  0.3845170000000  0.4952060000000 1.0
C      1  0.5567730000000  0.4451750000000  0.4266260000000 1.0
C      1  0.5443670000000  0.5182390000000  0.5943750000000 1.0
C      1  0.5557320000000  0.5185460000000  0.4469970000000 1.0
C      1  0.4244690000000  0.5433340000000  0.4877650000000 1.0
C      1  0.4918590000000  0.5439740000000  0.5628540000000 1.0
C      1  0.4887410000000  0.6017640000000  0.5864620000000 1.0
C      1  0.4437630000000  0.5086980000000  0.5410190000000 1.0
C      1  0.5110870000000  0.5208260000000  0.5072670000000 1.0
C      1  0.5386030000000  0.3965490000000  0.5629310000000 1.0
C      1  0.4852220000000  0.6230830000000  0.6043100000000 1.0
C      1  0.4874370000000  0.4939010000000  0.4620380000000 1.0
C      1  0.5413310000000  0.4607010000000  0.5286300000000 1.0
C      1  0.4302080000000  0.4327800000000  0.4847910000000 1.0
C      1  0.5625760000000  0.4283760000000  0.4992540000000 1.0
C      1  0.4334210000000  0.4696120000000  0.5113100000000 1.0
C      1  0.4339620000000  0.5908130000000  0.4315200000000 1.0
C      1  0.4839180000000  0.4623730000000  0.5470840000000 1.0
END
