TITL C-3866669-3764-364 0.0140977224777903 125000 -527.317190227193 0 0 89 (C1) n - 1
REM
REM in /home/nfs/bkarasulu/CARBON/AIRSS/Generating-Clusters/LCBOP/Only-C1/SD-CG/FIRE-CG
REM
REM
REM
REM
REM
REM ./C.cell (11c1c37f851c82e70ff6c80c92926a4b)
REM AIRSS Version 0.9.1 bugfix July 2018 build 013d7b7c2542+ Fri, 06 Jul 2018 19:26:36 +0100
REM compiler GCC version 9.2.1 20190827 (Red Hat 9.2.1-1)
REM options -cpp -mtune=generic -march=x86-64 -g -O0 -fpre-include=/usr/include/finclude/math-vector-fortran.h
REM seed 607289537 -1364858206 -1715726034 2084233749 -1805333919 1193944864 -143518497 790491613 1163905530 1858194959 -1304908982 1174252246 1894276245 836775891 316844146 1124360246 -1765611281 917679454 640346489 -1016576389 -1579474537 563704067 2006130984 -12871966 -1943968546 1965023851 -1377543536 -2043846116 -700195979 -1779793149 1741041253 1879710872 -1574997619
REM
CELL 1.54180   50.00000   50.00000   50.00000   90.00000   90.00000   90.00000
LATT -1
SFAC C  
C      1  0.5714340000000  0.5087610000000  0.4791980000000 1.0
C      1  0.4628820000000  0.5033500000000  0.3738450000000 1.0
C      1  0.4783380000000  0.5248290000000  0.4745850000000 1.0
C      1  0.5035990000000  0.4970620000000  0.5687120000000 1.0
C      1  0.4638300000000  0.5226400000000  0.3913420000000 1.0
C      1  0.4840240000000  0.4529760000000  0.5030030000000 1.0
C      1  0.5246870000000  0.4400010000000  0.4802470000000 1.0
C      1  0.4463540000000  0.5965090000000  0.4499340000000 1.0
C      1  0.5731790000000  0.5634930000000  0.4657300000000 1.0
C      1  0.5406140000000  0.5303040000000  0.5694190000000 1.0
C      1  0.4009460000000  0.4681150000000  0.4569010000000 1.0
C      1  0.5023740000000  0.5121620000000  0.5935010000000 1.0
C      1  0.4675860000000  0.5931460000000  0.4661550000000 1.0
C      1  0.5027220000000  0.5530890000000  0.5641570000000 1.0
C      1  0.4434860000000  0.4615880000000  0.5269730000000 1.0
C      1  0.4636070000000  0.5730750000000  0.5405220000000 1.0
C      1  0.5562730000000  0.5523960000000  0.4457250000000 1.0
C      1  0.4837610000000  0.5922390000000  0.5411650000000 1.0
C      1  0.4391050000000  0.3977660000000  0.4940680000000 1.0
C      1  0.5200040000000  0.5529760000000  0.5111040000000 1.0
C      1  0.5619200000000  0.5296420000000  0.4953410000000 1.0
C      1  0.4943120000000  0.5160700000000  0.5241380000000 1.0
C      1  0.4488210000000  0.4000990000000  0.5188810000000 1.0
C      1  0.4827600000000  0.4531220000000  0.5547450000000 1.0
C      1  0.5147270000000  0.5813440000000  0.4550970000000 1.0
C      1  0.3789380000000  0.5291180000000  0.4964500000000 1.0
C      1  0.5218130000000  0.5067660000000  0.5139930000000 1.0
C      1  0.5393440000000  0.4539290000000  0.4608160000000 1.0
C      1  0.5576720000000  0.5775840000000  0.5374570000000 1.0
C      1  0.5450320000000  0.4384800000000  0.5329150000000 1.0
C      1  0.4886220000000  0.5746360000000  0.4644960000000 1.0
C      1  0.4271740000000  0.5119460000000  0.5133510000000 1.0
C      1  0.4533900000000  0.5457270000000  0.5399780000000 1.0
C      1  0.5146990000000  0.5443300000000  0.4231430000000 1.0
C      1  0.4316150000000  0.4849830000000  0.5211380000000 1.0
C      1  0.5387430000000  0.4889370000000  0.5319510000000 1.0
C      1  0.5029790000000  0.5450320000000  0.5343350000000 1.0
C      1  0.5210290000000  0.5757840000000  0.5658350000000 1.0
C      1  0.4704570000000  0.4148460000000  0.5288570000000 1.0
C      1  0.4801190000000  0.5003070000000  0.4611770000000 1.0
C      1  0.5303510000000  0.5640470000000  0.4390010000000 1.0
C      1  0.4462580000000  0.5626230000000  0.4131740000000 1.0
C      1  0.4691280000000  0.4456260000000  0.5287160000000 1.0
C      1  0.5954040000000  0.4597470000000  0.5626490000000 1.0
C      1  0.5873820000000  0.4303610000000  0.5061550000000 1.0
C      1  0.4818410000000  0.5475030000000  0.4578600000000 1.0
C      1  0.4486530000000  0.5308550000000  0.5150340000000 1.0
C      1  0.4768270000000  0.4741010000000  0.4606640000000 1.0
C      1  0.4926470000000  0.5050390000000  0.6176230000000 1.0
C      1  0.5889980000000  0.4825460000000  0.5494010000000 1.0
C      1  0.4969440000000  0.4033590000000  0.5289610000000 1.0
C      1  0.5555100000000  0.5236960000000  0.4367760000000 1.0
C      1  0.5761330000000  0.5700230000000  0.5170880000000 1.0
C      1  0.5146350000000  0.5361780000000  0.5845320000000 1.0
C      1  0.4381830000000  0.5834730000000  0.4279100000000 1.0
C      1  0.5370300000000  0.4216890000000  0.5556600000000 1.0
C      1  0.4617120000000  0.5241250000000  0.5583360000000 1.0
C      1  0.5250520000000  0.5798180000000  0.5048790000000 1.0
C      1  0.4457830000000  0.3983580000000  0.4457140000000 1.0
C      1  0.5124100000000  0.5958600000000  0.5471670000000 1.0
C      1  0.5834050000000  0.4348600000000  0.5569100000000 1.0
C      1  0.5327720000000  0.5224930000000  0.4188450000000 1.0
C      1  0.4870930000000  0.5425180000000  0.4295600000000 1.0
C      1  0.5743140000000  0.5552760000000  0.4929390000000 1.0
C      1  0.4657080000000  0.5423820000000  0.4109010000000 1.0
C      1  0.5125630000000  0.4548840000000  0.5019390000000 1.0
C      1  0.5350310000000  0.5298440000000  0.5031940000000 1.0
C      1  0.5207490000000  0.4121180000000  0.4834360000000 1.0
C      1  0.5320030000000  0.5019650000000  0.5590980000000 1.0
C      1  0.5615210000000  0.4217740000000  0.5713730000000 1.0
C      1  0.5689180000000  0.4906350000000  0.5332540000000 1.0
C      1  0.4736250000000  0.5233760000000  0.5026680000000 1.0
C      1  0.5518370000000  0.4754310000000  0.4508460000000 1.0
C      1  0.4450990000000  0.4399470000000  0.4717050000000 1.0
C      1  0.5342990000000  0.5945090000000  0.5275710000000 1.0
C      1  0.4690270000000  0.4539110000000  0.4783790000000 1.0
C      1  0.4221160000000  0.4548610000000  0.4657280000000 1.0
C      1  0.4830410000000  0.5056180000000  0.5503000000000 1.0
C      1  0.5619860000000  0.5015840000000  0.4535920000000 1.0
C      1  0.5734100000000  0.4344440000000  0.5289570000000 1.0
C      1  0.5141030000000  0.4062660000000  0.5513600000000 1.0
C      1  0.4488410000000  0.3863560000000  0.4222950000000 1.0
C      1  0.4519170000000  0.3746050000000  0.3992280000000 1.0
C      1  0.4432170000000  0.4116260000000  0.4700510000000 1.0
C      1  0.5303870000000  0.4607960000000  0.5235700000000 1.0
C      1  0.5477010000000  0.5607850000000  0.5599130000000 1.0
C      1  0.4021270000000  0.5201060000000  0.5042080000000 1.0
C      1  0.5090390000000  0.3983610000000  0.5036170000000 1.0
C      1  0.3803020000000  0.4804860000000  0.4468840000000 1.0
END
