TITL C-3866676-3738-296 0.187654117308139 125000 -389.073522906655 0 0 65 (C1) n - 1
REM
REM in /home/nfs/bkarasulu/CARBON/AIRSS/Generating-Clusters/LCBOP/Only-C1/SD-CG/FIRE-CG
REM
REM
REM
REM
REM
REM ./C.cell (11c1c37f851c82e70ff6c80c92926a4b)
REM AIRSS Version 0.9.1 bugfix July 2018 build 013d7b7c2542+ Fri, 06 Jul 2018 19:26:36 +0100
REM compiler GCC version 9.2.1 20190827 (Red Hat 9.2.1-1)
REM options -cpp -mtune=generic -march=x86-64 -g -O0 -fpre-include=/usr/include/finclude/math-vector-fortran.h
REM seed -892963980 -586985583 1992545853 -660814991 860361572 1248135366 1401407338 543827801 1893688953 -877716192 -209735628 1516778715 28677791 578759454 376250121 1663562390 -669164784 -1453310876 1789726787 1280636703 574953099 368011856 230314450 928308957 127917219 -654897277 393807110 -1538162725 670541941 2029168432 -10725293 1007715642 971399897
REM
CELL 1.54180   50.00000   50.00000   50.00000   90.00000   90.00000   90.00000
LATT -1
SFAC C  
C      1  0.4302490000000  0.4899990000000  0.4343090000000 1.0
C      1  0.5025480000000  0.5715760000000  0.4571410000000 1.0
C      1  0.5422580000000  0.5035290000000  0.5660090000000 1.0
C      1  0.4761530000000  0.4220670000000  0.5006040000000 1.0
C      1  0.3980740000000  0.4640310000000  0.5259100000000 1.0
C      1  0.5016830000000  0.5746880000000  0.5268680000000 1.0
C      1  0.5537320000000  0.5268440000000  0.4232590000000 1.0
C      1  0.5440480000000  0.4598930000000  0.5249780000000 1.0
C      1  0.4199240000000  0.4672560000000  0.5088400000000 1.0
C      1  0.5724950000000  0.5067200000000  0.5058070000000 1.0
C      1  0.5782710000000  0.4864520000000  0.4849210000000 1.0
C      1  0.5316810000000  0.5392340000000  0.5137840000000 1.0
C      1  0.4190770000000  0.4796980000000  0.4561740000000 1.0
C      1  0.4728060000000  0.4871320000000  0.4734900000000 1.0
C      1  0.5156460000000  0.5729690000000  0.4802470000000 1.0
C      1  0.4863580000000  0.5286950000000  0.5285350000000 1.0
C      1  0.3385630000000  0.4558300000000  0.5773090000000 1.0
C      1  0.4929130000000  0.5051380000000  0.3989600000000 1.0
C      1  0.4575210000000  0.4877760000000  0.5336880000000 1.0
C      1  0.4464450000000  0.4655020000000  0.5193200000000 1.0
C      1  0.5693160000000  0.5076250000000  0.5571970000000 1.0
C      1  0.5266780000000  0.6090360000000  0.5546550000000 1.0
C      1  0.5303770000000  0.5008580000000  0.4649280000000 1.0
C      1  0.5149750000000  0.5254880000000  0.5331030000000 1.0
C      1  0.5184810000000  0.4827780000000  0.4843980000000 1.0
C      1  0.4688940000000  0.5090760000000  0.5183030000000 1.0
C      1  0.5237130000000  0.4690350000000  0.5953540000000 1.0
C      1  0.5600890000000  0.4648690000000  0.4781320000000 1.0
C      1  0.4842780000000  0.4005030000000  0.5154290000000 1.0
C      1  0.4949970000000  0.4703220000000  0.4743560000000 1.0
C      1  0.5243430000000  0.5244730000000  0.5602540000000 1.0
C      1  0.5015750000000  0.5685900000000  0.5727060000000 1.0
C      1  0.4654060000000  0.5066350000000  0.4904240000000 1.0
C      1  0.4791390000000  0.5559650000000  0.5341330000000 1.0
C      1  0.5195040000000  0.5647350000000  0.5066350000000 1.0
C      1  0.5117390000000  0.5866470000000  0.5515790000000 1.0
C      1  0.3780690000000  0.4612650000000  0.5430460000000 1.0
C      1  0.5451300000000  0.5244580000000  0.4706340000000 1.0
C      1  0.4712260000000  0.5167890000000  0.4125110000000 1.0
C      1  0.4722200000000  0.4053410000000  0.4550490000000 1.0
C      1  0.5522080000000  0.5265000000000  0.4983410000000 1.0
C      1  0.4752190000000  0.5423120000000  0.4234980000000 1.0
C      1  0.5377460000000  0.4656660000000  0.4980250000000 1.0
C      1  0.5394680000000  0.4860850000000  0.4411850000000 1.0
C      1  0.4873360000000  0.5608410000000  0.4381830000000 1.0
C      1  0.4159280000000  0.4721130000000  0.4814850000000 1.0
C      1  0.4748590000000  0.5618040000000  0.5624770000000 1.0
C      1  0.5306600000000  0.4776500000000  0.5704100000000 1.0
C      1  0.4619290000000  0.4429460000000  0.5129600000000 1.0
C      1  0.5756500000000  0.4956310000000  0.5322100000000 1.0
C      1  0.4571060000000  0.4884480000000  0.5610210000000 1.0
C      1  0.3581520000000  0.4585250000000  0.5603190000000 1.0
C      1  0.5176600000000  0.5457410000000  0.5778490000000 1.0
C      1  0.5256940000000  0.4411040000000  0.4515840000000 1.0
C      1  0.5701860000000  0.5624720000000  0.4521820000000 1.0
C      1  0.5566220000000  0.5390450000000  0.4488360000000 1.0
C      1  0.5404630000000  0.5022480000000  0.4181310000000 1.0
C      1  0.5708360000000  0.4673880000000  0.5319010000000 1.0
C      1  0.4481560000000  0.5022740000000  0.4189070000000 1.0
C      1  0.5192590000000  0.5006350000000  0.3999040000000 1.0
C      1  0.5473010000000  0.4603180000000  0.4517370000000 1.0
C      1  0.5874630000000  0.5217930000000  0.5718060000000 1.0
C      1  0.4998740000000  0.4441110000000  0.4640440000000 1.0
C      1  0.4827410000000  0.4233280000000  0.4727580000000 1.0
C      1  0.5268930000000  0.4615080000000  0.5472650000000 1.0
END
