TITL C-3866672-3872-85 161065.690319675 125000 -570.492675460175 0 0 94 (C1) n - 1
REM
REM in /home/nfs/bkarasulu/CARBON/AIRSS/Generating-Clusters/LCBOP/Only-C1/SD-CG/HFTN-CG/FIRE-CG
REM
REM
REM
REM
REM
REM ./C.cell (11c1c37f851c82e70ff6c80c92926a4b)
REM AIRSS Version 0.9.1 bugfix July 2018 build 013d7b7c2542+ Fri, 06 Jul 2018 19:26:36 +0100
REM compiler GCC version 9.2.1 20190827 (Red Hat 9.2.1-1)
REM options -cpp -mtune=generic -march=x86-64 -g -O0 -fpre-include=/usr/include/finclude/math-vector-fortran.h
REM seed 2119992299 -1691968048 -1523113483 -1936954105 1301544230 -1139724 747936948 966925274 -965253341 -1454800483 388711407 -2064466973 749136214 2038154326 -1362991472 -1306916938 1624932239 1154054625 -2057629058 -1594931936 -260398841 -493327924 1913375511 -377147447 -832845225 -1546012426 754518456 -154520103 1186525778 -1326018385 -756543940 1802037400 -861293244
REM
CELL 1.54180   50.00000   50.00000   50.00000   90.00000   90.00000   90.00000
LATT -1
SFAC C  
C      1  0.4945080000000  0.4129500000000  0.4872370000000 1.0
C      1  0.5564110000000  0.5509430000000  0.4602930000000 1.0
C      1  0.5140810000000  0.5895080000000  0.5535530000000 1.0
C      1  0.4894660000000  0.5064000000000  0.4776250000000 1.0
C      1  0.4420150000000  0.5187560000000  0.5603170000000 1.0
C      1  0.5095240000000  0.5478030000000  0.4464610000000 1.0
C      1  0.5049230000000  0.4368530000000  0.4453430000000 1.0
C      1  0.4394120000000  0.5236800000000  0.4364780000000 1.0
C      1  0.5283640000000  0.4598220000000  0.5567530000000 1.0
C      1  0.5153730000000  0.5068400000000  0.4145720000000 1.0
C      1  0.4358680000000  0.4949930000000  0.4404290000000 1.0
C      1  0.4868780000000  0.4588680000000  0.4511520000000 1.0
C      1  0.4521960000000  0.4750760000000  0.4281660000000 1.0
C      1  0.4200470000000  0.5015700000000  0.4888960000000 1.0
C      1  0.5209420000000  0.5801210000000  0.4795210000000 1.0
C      1  0.5974260000000  0.4722600000000  0.4450470000000 1.0
C      1  0.5549190000000  0.4391370000000  0.4923590000000 1.0
C      1  0.5370010000000  0.5409490000000  0.4413550000000 1.0
C      1  0.4601720000000  0.4929840000000  0.5986820000000 1.0
C      1  0.4689840000000  0.4484950000000  0.5541050000000 1.0
C      1  0.4868750000000  0.4948850000000  0.5588020000000 1.0
C      1  0.4767850000000  0.5764410000000  0.5263650000000 1.0
C      1  0.5766010000000  0.4895410000000  0.5269200000000 1.0
C      1  0.4283260000000  0.4933880000000  0.5155000000000 1.0
C      1  0.5302940000000  0.5030270000000  0.5317160000000 1.0
C      1  0.5010410000000  0.5300860000000  0.4039820000000 1.0
C      1  0.4339180000000  0.5407150000000  0.4589890000000 1.0
C      1  0.5540380000000  0.5007780000000  0.5151510000000 1.0
C      1  0.5319190000000  0.5353020000000  0.4970850000000 1.0
C      1  0.5931340000000  0.4650220000000  0.4905250000000 1.0
C      1  0.5117010000000  0.4585720000000  0.5076880000000 1.0
C      1  0.4538590000000  0.5355940000000  0.4153210000000 1.0
C      1  0.4435750000000  0.5671880000000  0.4953090000000 1.0
C      1  0.4289420000000  0.4706910000000  0.5739900000000 1.0
C      1  0.5157290000000  0.4583480000000  0.4033380000000 1.0
C      1  0.5831670000000  0.4638260000000  0.5180380000000 1.0
C      1  0.5348470000000  0.5070480000000  0.5790820000000 1.0
C      1  0.5387310000000  0.4393820000000  0.5393790000000 1.0
C      1  0.5815170000000  0.5376180000000  0.4639210000000 1.0
C      1  0.4519470000000  0.4522680000000  0.5793760000000 1.0
C      1  0.5252880000000  0.5071570000000  0.6066880000000 1.0
C      1  0.5056990000000  0.5447430000000  0.5863260000000 1.0
C      1  0.4635600000000  0.5281970000000  0.5173260000000 1.0
C      1  0.4621460000000  0.4642750000000  0.6038620000000 1.0
C      1  0.4368830000000  0.4981180000000  0.5800570000000 1.0
C      1  0.5035460000000  0.4088310000000  0.5141530000000 1.0
C      1  0.4895200000000  0.5755490000000  0.5514920000000 1.0
C      1  0.4596370000000  0.4531560000000  0.4457840000000 1.0
C      1  0.4881160000000  0.5640320000000  0.4355570000000 1.0
C      1  0.5419350000000  0.4980880000000  0.4631230000000 1.0
C      1  0.5607920000000  0.4437830000000  0.5207510000000 1.0
C      1  0.4950700000000  0.5278440000000  0.4607030000000 1.0
C      1  0.5263990000000  0.4749740000000  0.4678160000000 1.0
C      1  0.4730400000000  0.4815500000000  0.4093860000000 1.0
C      1  0.5133070000000  0.5223500000000  0.5165330000000 1.0
C      1  0.4448620000000  0.4450480000000  0.5335360000000 1.0
C      1  0.5165310000000  0.4370680000000  0.4199300000000 1.0
C      1  0.4491570000000  0.5637370000000  0.4675870000000 1.0
C      1  0.5133570000000  0.4271260000000  0.4705240000000 1.0
C      1  0.4976910000000  0.4810460000000  0.4655040000000 1.0
C      1  0.4963910000000  0.4337860000000  0.5559240000000 1.0
C      1  0.5018690000000  0.4825910000000  0.4071490000000 1.0
C      1  0.4867970000000  0.4688580000000  0.5147990000000 1.0
C      1  0.4834310000000  0.5549730000000  0.5709750000000 1.0
C      1  0.5393350000000  0.5588970000000  0.4829920000000 1.0
C      1  0.5142420000000  0.4218230000000  0.5371630000000 1.0
C      1  0.4227760000000  0.4865720000000  0.4647140000000 1.0
C      1  0.5483070000000  0.5115310000000  0.4888290000000 1.0
C      1  0.4593030000000  0.5566220000000  0.5162330000000 1.0
C      1  0.4829440000000  0.5016210000000  0.5844700000000 1.0
C      1  0.5995630000000  0.4867930000000  0.4704280000000 1.0
C      1  0.5843770000000  0.4480870000000  0.4481700000000 1.0
C      1  0.5284900000000  0.4492050000000  0.4844590000000 1.0
C      1  0.4666140000000  0.4672860000000  0.4965520000000 1.0
C      1  0.4744980000000  0.5756370000000  0.4585880000000 1.0
C      1  0.5955650000000  0.5149960000000  0.4697310000000 1.0
C      1  0.4795990000000  0.5471920000000  0.4132530000000 1.0
C      1  0.5358080000000  0.5119380000000  0.4367790000000 1.0
C      1  0.4872790000000  0.5164720000000  0.5053450000000 1.0
C      1  0.4295060000000  0.4655000000000  0.5231360000000 1.0
C      1  0.4930890000000  0.5867610000000  0.4794660000000 1.0
C      1  0.4802090000000  0.4740570000000  0.5418490000000 1.0
C      1  0.5394550000000  0.5804250000000  0.5540460000000 1.0
C      1  0.4581270000000  0.5413620000000  0.5691910000000 1.0
C      1  0.4431300000000  0.5130160000000  0.5315170000000 1.0
C      1  0.4674410000000  0.4141480000000  0.4772130000000 1.0
C      1  0.5315200000000  0.4889200000000  0.5570930000000 1.0
C      1  0.5084840000000  0.5292390000000  0.6110180000000 1.0
C      1  0.5469450000000  0.5552800000000  0.5602860000000 1.0
C      1  0.4522440000000  0.4295010000000  0.4600550000000 1.0
C      1  0.4182570000000  0.5287770000000  0.4801670000000 1.0
C      1  0.5776780000000  0.4435700000000  0.4756070000000 1.0
C      1  0.5305530000000  0.5357430000000  0.5718770000000 1.0
C      1  0.4841850000000  0.5944240000000  0.5054710000000 1.0
END
