TITL C-3866675-3766-569 -0.0609621853681281 125000 -668.888013308597 0 0 112 (C1) n - 1
REM
REM in /home/nfs/bkarasulu/CARBON/AIRSS/Generating-Clusters/LCBOP/Only-C1/SD-CG/FIRE-CG
REM
REM
REM
REM
REM
REM ./C.cell (11c1c37f851c82e70ff6c80c92926a4b)
REM AIRSS Version 0.9.1 bugfix July 2018 build 013d7b7c2542+ Fri, 06 Jul 2018 19:26:36 +0100
REM compiler GCC version 9.2.1 20190827 (Red Hat 9.2.1-1)
REM options -cpp -mtune=generic -march=x86-64 -g -O0 -fpre-include=/usr/include/finclude/math-vector-fortran.h
REM seed -848168996 572550405 381320344 -301245977 -1095784337 396928895 -647749819 191562569 -321199432 -48795315 -1903301459 1591512136 617378440 -9631481 -949628682 -1294697764 -1441754337 -1747844216 -13978858 345902147 -1415542908 -465038555 920965044 -628322889 -2055873017 -1592093914 564909888 134213190 1724737013 1329679930 -64912858 -1564163603 -1624922544
REM
CELL 1.54180   50.00000   50.00000   50.00000   90.00000   90.00000   90.00000
LATT -1
SFAC C  
C      1  0.4313540000000  0.3789260000000  0.4741310000000 1.0
C      1  0.5812690000000  0.4200770000000  0.5253090000000 1.0
C      1  0.6155860000000  0.4978510000000  0.4907820000000 1.0
C      1  0.4809410000000  0.5825310000000  0.5188870000000 1.0
C      1  0.4784180000000  0.5185520000000  0.4785050000000 1.0
C      1  0.5991700000000  0.4874670000000  0.4691680000000 1.0
C      1  0.4768320000000  0.4318090000000  0.4934570000000 1.0
C      1  0.4440860000000  0.3963450000000  0.4887470000000 1.0
C      1  0.5086150000000  0.4503400000000  0.4143730000000 1.0
C      1  0.6011380000000  0.5169900000000  0.5344600000000 1.0
C      1  0.5042660000000  0.4331600000000  0.4995750000000 1.0
C      1  0.4676460000000  0.4062130000000  0.5511900000000 1.0
C      1  0.6216440000000  0.5147580000000  0.3896510000000 1.0
C      1  0.3990600000000  0.5563000000000  0.4810110000000 1.0
C      1  0.4282090000000  0.4835480000000  0.4975160000000 1.0
C      1  0.5557620000000  0.4863580000000  0.5151350000000 1.0
C      1  0.5647960000000  0.4629210000000  0.4141160000000 1.0
C      1  0.5547880000000  0.4488190000000  0.4355260000000 1.0
C      1  0.4876410000000  0.4135500000000  0.4430590000000 1.0
C      1  0.5097340000000  0.6195740000000  0.5041000000000 1.0
C      1  0.4517280000000  0.5282960000000  0.5265620000000 1.0
C      1  0.5006080000000  0.5346830000000  0.4697360000000 1.0
C      1  0.4426440000000  0.5369360000000  0.5020900000000 1.0
C      1  0.5210170000000  0.4449800000000  0.5556770000000 1.0
C      1  0.5127080000000  0.4588270000000  0.5082670000000 1.0
C      1  0.5147450000000  0.4201330000000  0.4523640000000 1.0
C      1  0.5104660000000  0.5313250000000  0.5655620000000 1.0
C      1  0.4074820000000  0.4467050000000  0.5405800000000 1.0
C      1  0.5235030000000  0.5381520000000  0.4856410000000 1.0
C      1  0.5651860000000  0.5574030000000  0.5518300000000 1.0
C      1  0.4573000000000  0.4151790000000  0.5046870000000 1.0
C      1  0.4017890000000  0.5551210000000  0.5297440000000 1.0
C      1  0.4824180000000  0.4585450000000  0.4105330000000 1.0
C      1  0.4881040000000  0.6034180000000  0.5010130000000 1.0
C      1  0.5601110000000  0.5156030000000  0.4592070000000 1.0
C      1  0.6027840000000  0.5437610000000  0.5220590000000 1.0
C      1  0.4506960000000  0.4164480000000  0.5323340000000 1.0
C      1  0.4781830000000  0.4894110000000  0.4869920000000 1.0
C      1  0.4696460000000  0.6053670000000  0.4796600000000 1.0
C      1  0.5864390000000  0.5075860000000  0.4528540000000 1.0
C      1  0.4655720000000  0.5230960000000  0.4272330000000 1.0
C      1  0.5361360000000  0.5196430000000  0.5692870000000 1.0
C      1  0.4539510000000  0.5086570000000  0.5871870000000 1.0
C      1  0.6088540000000  0.4948950000000  0.5183030000000 1.0
C      1  0.4740020000000  0.4920570000000  0.5992430000000 1.0
C      1  0.5107620000000  0.4726120000000  0.5639070000000 1.0
C      1  0.5567480000000  0.5112000000000  0.5058510000000 1.0
C      1  0.4263160000000  0.4280260000000  0.5397300000000 1.0
C      1  0.4948550000000  0.5167350000000  0.5461540000000 1.0
C      1  0.4526970000000  0.5739180000000  0.5556900000000 1.0
C      1  0.4955520000000  0.5536400000000  0.5758210000000 1.0
C      1  0.5393070000000  0.4661210000000  0.5110720000000 1.0
C      1  0.5354540000000  0.4269290000000  0.5411300000000 1.0
C      1  0.3403470000000  0.5143990000000  0.5280910000000 1.0
C      1  0.6016280000000  0.5269060000000  0.4381580000000 1.0
C      1  0.4177420000000  0.4902520000000  0.5229190000000 1.0
C      1  0.4929730000000  0.4795130000000  0.5128510000000 1.0
C      1  0.4310270000000  0.5243960000000  0.4578150000000 1.0
C      1  0.6290310000000  0.5225850000000  0.4873170000000 1.0
C      1  0.4533760000000  0.5818830000000  0.5276840000000 1.0
C      1  0.5210760000000  0.4189480000000  0.4813540000000 1.0
C      1  0.4935270000000  0.5573720000000  0.5206880000000 1.0
C      1  0.6093240000000  0.5644610000000  0.4757520000000 1.0
C      1  0.4465200000000  0.4800080000000  0.4459090000000 1.0
C      1  0.4999160000000  0.4879340000000  0.4433820000000 1.0
C      1  0.4599300000000  0.4575040000000  0.4294160000000 1.0
C      1  0.4515320000000  0.5288600000000  0.4776050000000 1.0
C      1  0.4087520000000  0.5337810000000  0.5450650000000 1.0
C      1  0.4933700000000  0.4752600000000  0.5899360000000 1.0
C      1  0.5724010000000  0.4435610000000  0.4576790000000 1.0
C      1  0.4069280000000  0.5382180000000  0.4624330000000 1.0
C      1  0.4758450000000  0.4471590000000  0.4696480000000 1.0
C      1  0.5274720000000  0.4391950000000  0.4339110000000 1.0
C      1  0.5849190000000  0.5626510000000  0.5337060000000 1.0
C      1  0.3470730000000  0.4921440000000  0.5425580000000 1.0
C      1  0.4910390000000  0.4866940000000  0.5424420000000 1.0
C      1  0.6053160000000  0.5520400000000  0.4506200000000 1.0
C      1  0.4486190000000  0.5859390000000  0.4768380000000 1.0
C      1  0.4514150000000  0.5695850000000  0.4525370000000 1.0
C      1  0.6161350000000  0.5463800000000  0.4966790000000 1.0
C      1  0.5470730000000  0.4145690000000  0.4917840000000 1.0
C      1  0.6074130000000  0.4450730000000  0.4902970000000 1.0
C      1  0.5610890000000  0.5313230000000  0.5625600000000 1.0
C      1  0.5837990000000  0.5147160000000  0.5569130000000 1.0
C      1  0.5185560000000  0.5533280000000  0.5086980000000 1.0
C      1  0.4962090000000  0.5527300000000  0.4480710000000 1.0
C      1  0.5668880000000  0.4197390000000  0.4723520000000 1.0
C      1  0.6022690000000  0.4309760000000  0.5125670000000 1.0
C      1  0.4667160000000  0.5578490000000  0.5756400000000 1.0
C      1  0.4350040000000  0.5810430000000  0.5036550000000 1.0
C      1  0.4791780000000  0.5341320000000  0.5306190000000 1.0
C      1  0.4913690000000  0.4721950000000  0.4656450000000 1.0
C      1  0.3723670000000  0.4806550000000  0.5392660000000 1.0
C      1  0.4092570000000  0.5675800000000  0.5051640000000 1.0
C      1  0.4629950000000  0.4789900000000  0.5511790000000 1.0
C      1  0.5342260000000  0.4911530000000  0.5700720000000 1.0
C      1  0.4530460000000  0.5369060000000  0.5894870000000 1.0
C      1  0.4478980000000  0.4814950000000  0.4778370000000 1.0
C      1  0.6121170000000  0.5211460000000  0.4130510000000 1.0
C      1  0.5533830000000  0.4178910000000  0.5202950000000 1.0
C      1  0.5936180000000  0.4593430000000  0.4696250000000 1.0
C      1  0.4295510000000  0.5122660000000  0.5410230000000 1.0
C      1  0.4674560000000  0.4341900000000  0.4458030000000 1.0
C      1  0.3293410000000  0.4810250000000  0.5602080000000 1.0
C      1  0.5470200000000  0.5233750000000  0.4826770000000 1.0
C      1  0.5148860000000  0.5695410000000  0.4375960000000 1.0
C      1  0.4423560000000  0.5082700000000  0.4370350000000 1.0
C      1  0.6072000000000  0.5913730000000  0.4793850000000 1.0
C      1  0.4446470000000  0.4977680000000  0.5624630000000 1.0
C      1  0.3985540000000  0.4725370000000  0.5346030000000 1.0
C      1  0.4893970000000  0.5067620000000  0.4265540000000 1.0
C      1  0.4691750000000  0.5509380000000  0.4381860000000 1.0
END
