TITL C-3866669-3764-565 -0.0120684969631302 125000 -329.244134388793 0 0 56 (C1) n - 1
REM
REM in /home/nfs/bkarasulu/CARBON/AIRSS/Generating-Clusters/LCBOP/Only-C1/SD-CG/FIRE-CG
REM
REM
REM
REM
REM
REM ./C.cell (11c1c37f851c82e70ff6c80c92926a4b)
REM AIRSS Version 0.9.1 bugfix July 2018 build 013d7b7c2542+ Fri, 06 Jul 2018 19:26:36 +0100
REM compiler GCC version 9.2.1 20190827 (Red Hat 9.2.1-1)
REM options -cpp -mtune=generic -march=x86-64 -g -O0 -fpre-include=/usr/include/finclude/math-vector-fortran.h
REM seed -2087495485 1509774907 661759512 -7184874 1327731515 -94124888 1186257537 2042354116 1202519341 -1800636354 35355907 1007465955 1637217121 339573202 -2000639968 -1126090745 -1104774534 -1784208478 -1376647602 1374533317 384683689 1344384176 784025683 571272817 649259794 1690794326 2146333988 -341343121 -734174920 1140010609 -414386209 -367690827 -435264934
REM
CELL 1.54180   50.00000   50.00000   50.00000   90.00000   90.00000   90.00000
LATT -1
SFAC C  
C      1  0.4882860000000  0.4661630000000  0.5222270000000 1.0
C      1  0.4546130000000  0.4740970000000  0.5688340000000 1.0
C      1  0.4409370000000  0.4819540000000  0.5217420000000 1.0
C      1  0.4611330000000  0.5349510000000  0.5297160000000 1.0
C      1  0.4447840000000  0.5573220000000  0.5269800000000 1.0
C      1  0.5574690000000  0.5762320000000  0.4303330000000 1.0
C      1  0.5082440000000  0.5556980000000  0.5623290000000 1.0
C      1  0.4453970000000  0.4293620000000  0.4216030000000 1.0
C      1  0.4845490000000  0.5048280000000  0.4516740000000 1.0
C      1  0.5408910000000  0.5553420000000  0.5007010000000 1.0
C      1  0.4879260000000  0.4811830000000  0.4683070000000 1.0
C      1  0.4293610000000  0.5782660000000  0.5253610000000 1.0
C      1  0.4758010000000  0.5164360000000  0.5742760000000 1.0
C      1  0.4727250000000  0.4902470000000  0.5861130000000 1.0
C      1  0.4844710000000  0.4760100000000  0.6073850000000 1.0
C      1  0.4667770000000  0.4344040000000  0.5925280000000 1.0
C      1  0.5116880000000  0.4657930000000  0.5085880000000 1.0
C      1  0.5141290000000  0.4783690000000  0.4830300000000 1.0
C      1  0.5154610000000  0.5690130000000  0.5402490000000 1.0
C      1  0.4543020000000  0.4454270000000  0.5694450000000 1.0
C      1  0.5798830000000  0.4733890000000  0.4664230000000 1.0
C      1  0.6010910000000  0.4590340000000  0.4712600000000 1.0
C      1  0.4466490000000  0.4298680000000  0.5472680000000 1.0
C      1  0.5101130000000  0.5160240000000  0.4449650000000 1.0
C      1  0.4442770000000  0.4224620000000  0.5216040000000 1.0
C      1  0.4537060000000  0.4423470000000  0.4731750000000 1.0
C      1  0.4457150000000  0.4914200000000  0.5477440000000 1.0
C      1  0.5222500000000  0.5242620000000  0.4712870000000 1.0
C      1  0.6060660000000  0.4732380000000  0.3750080000000 1.0
C      1  0.4812690000000  0.4491440000000  0.6102190000000 1.0
C      1  0.4578850000000  0.5172500000000  0.5512840000000 1.0
C      1  0.5575420000000  0.4884590000000  0.4588410000000 1.0
C      1  0.5483030000000  0.5638170000000  0.4513300000000 1.0
C      1  0.5282980000000  0.5073280000000  0.4256220000000 1.0
C      1  0.5704790000000  0.4872380000000  0.4110690000000 1.0
C      1  0.5380460000000  0.4980700000000  0.4798840000000 1.0
C      1  0.4649400000000  0.5252770000000  0.4548770000000 1.0
C      1  0.5525490000000  0.4941150000000  0.4311870000000 1.0
C      1  0.4162980000000  0.4829060000000  0.5101450000000 1.0
C      1  0.4660270000000  0.5510920000000  0.4633210000000 1.0
C      1  0.4791860000000  0.5703290000000  0.4770480000000 1.0
C      1  0.5640790000000  0.4859340000000  0.5223300000000 1.0
C      1  0.4462590000000  0.4257100000000  0.4950100000000 1.0
C      1  0.4660460000000  0.4669430000000  0.4805960000000 1.0
C      1  0.4952920000000  0.5364320000000  0.5757310000000 1.0
C      1  0.5883340000000  0.4802440000000  0.3927880000000 1.0
C      1  0.5381260000000  0.5494960000000  0.4726690000000 1.0
C      1  0.4491460000000  0.4352320000000  0.4467150000000 1.0
C      1  0.5527090000000  0.5330810000000  0.5139240000000 1.0
C      1  0.5521900000000  0.5054490000000  0.5063020000000 1.0
C      1  0.5194120000000  0.5706470000000  0.5123620000000 1.0
C      1  0.4812780000000  0.5287040000000  0.5112680000000 1.0
C      1  0.5007910000000  0.5254730000000  0.4935310000000 1.0
C      1  0.5748690000000  0.4682480000000  0.5381400000000 1.0
C      1  0.4639630000000  0.4721250000000  0.5087770000000 1.0
C      1  0.4979900000000  0.5781170000000  0.4948750000000 1.0
END
