TITL C-3866676-3738-222 0.0242214821218097 125000 -1163.04576556307 0 0 187 (C1) n - 1
REM
REM in /home/nfs/bkarasulu/CARBON/AIRSS/Generating-Clusters/LCBOP/Only-C1/SD-CG/HFTN-CG/FIRE-CG
REM
REM
REM
REM
REM
REM ./C.cell (11c1c37f851c82e70ff6c80c92926a4b)
REM AIRSS Version 0.9.1 bugfix July 2018 build 013d7b7c2542+ Fri, 06 Jul 2018 19:26:36 +0100
REM compiler GCC version 9.2.1 20190827 (Red Hat 9.2.1-1)
REM options -cpp -mtune=generic -march=x86-64 -g -O0 -fpre-include=/usr/include/finclude/math-vector-fortran.h
REM seed 513098776 1050682824 157542579 -1303187675 -1205486874 -1412325610 -255927643 -633040102 87462412 -1853095794 1374731916 768652839 1871510312 1259613083 386496884 -64984447 1006633610 -144801370 -1094744884 -1549987644 -1202696286 -383873146 -2114178961 -1694286492 -1203186934 1303507977 832805830 1291978577 1955833201 587183840 972486336 -1418006132 -940615082
REM
CELL 1.54180   50.00000   50.00000   50.00000   90.00000   90.00000   90.00000
LATT -1
SFAC C  
C      1  0.4287910000000  0.5271160000000  0.5621860000000 1.0
C      1  0.5597720000000  0.6029150000000  0.5300590000000 1.0
C      1  0.4300690000000  0.4789220000000  0.5700460000000 1.0
C      1  0.4762880000000  0.4627560000000  0.4840530000000 1.0
C      1  0.4952990000000  0.4204730000000  0.3791070000000 1.0
C      1  0.5998180000000  0.4137550000000  0.5252010000000 1.0
C      1  0.5239290000000  0.5135870000000  0.4346850000000 1.0
C      1  0.6093420000000  0.4800580000000  0.5187220000000 1.0
C      1  0.5080450000000  0.5658820000000  0.5252740000000 1.0
C      1  0.5897350000000  0.4875470000000  0.4459100000000 1.0
C      1  0.5253550000000  0.4662980000000  0.4843590000000 1.0
C      1  0.4146400000000  0.5017340000000  0.5597490000000 1.0
C      1  0.4968460000000  0.5069690000000  0.4872000000000 1.0
C      1  0.5593160000000  0.4312850000000  0.5732350000000 1.0
C      1  0.5290080000000  0.3931080000000  0.4313870000000 1.0
C      1  0.5679330000000  0.4450640000000  0.5016120000000 1.0
C      1  0.4379990000000  0.4639400000000  0.5476510000000 1.0
C      1  0.4880490000000  0.5089450000000  0.6149780000000 1.0
C      1  0.6068710000000  0.4819260000000  0.4895460000000 1.0
C      1  0.4213070000000  0.5132870000000  0.4108020000000 1.0
C      1  0.6016380000000  0.5741910000000  0.4723160000000 1.0
C      1  0.4956960000000  0.5112960000000  0.4217110000000 1.0
C      1  0.5146050000000  0.6308210000000  0.4688810000000 1.0
C      1  0.5850060000000  0.5634660000000  0.4520680000000 1.0
C      1  0.5263470000000  0.6376830000000  0.5152190000000 1.0
C      1  0.5202030000000  0.4886600000000  0.3770260000000 1.0
C      1  0.4854900000000  0.6059610000000  0.5388660000000 1.0
C      1  0.3943640000000  0.5434430000000  0.5099190000000 1.0
C      1  0.4845100000000  0.3837700000000  0.4713570000000 1.0
C      1  0.5600550000000  0.4973620000000  0.5195630000000 1.0
C      1  0.5095780000000  0.5940540000000  0.5269020000000 1.0
C      1  0.4884450000000  0.5408240000000  0.4213020000000 1.0
C      1  0.5479890000000  0.4109190000000  0.4765440000000 1.0
C      1  0.5668810000000  0.5313970000000  0.4200580000000 1.0
C      1  0.5043150000000  0.3879990000000  0.5455130000000 1.0
C      1  0.4626720000000  0.6201140000000  0.4803530000000 1.0
C      1  0.5866750000000  0.5372180000000  0.4406310000000 1.0
C      1  0.5955670000000  0.5117720000000  0.5973480000000 1.0
C      1  0.3935440000000  0.4718250000000  0.4629190000000 1.0
C      1  0.4662440000000  0.4126230000000  0.5306390000000 1.0
C      1  0.5730660000000  0.5822340000000  0.5781950000000 1.0
C      1  0.5829180000000  0.4382620000000  0.5275200000000 1.0
C      1  0.4217490000000  0.4954150000000  0.4888900000000 1.0
C      1  0.4966600000000  0.5547440000000  0.5476480000000 1.0
C      1  0.5263150000000  0.4574700000000  0.4344470000000 1.0
C      1  0.4805900000000  0.4319390000000  0.5168690000000 1.0
C      1  0.4995260000000  0.4791460000000  0.4822250000000 1.0
C      1  0.5435070000000  0.6681400000000  0.4814240000000 1.0
C      1  0.5066730000000  0.5734240000000  0.6250720000000 1.0
C      1  0.4269860000000  0.4463930000000  0.5033090000000 1.0
C      1  0.4224140000000  0.5402480000000  0.4678420000000 1.0
C      1  0.4049030000000  0.5615720000000  0.5289170000000 1.0
C      1  0.5116950000000  0.3808380000000  0.4806450000000 1.0
C      1  0.5618470000000  0.5486120000000  0.5191830000000 1.0
C      1  0.4567580000000  0.5676020000000  0.5280660000000 1.0
C      1  0.5806830000000  0.5617200000000  0.5935380000000 1.0
C      1  0.5034900000000  0.3750560000000  0.5174500000000 1.0
C      1  0.5417780000000  0.5063230000000  0.5028260000000 1.0
C      1  0.4716880000000  0.4598380000000  0.5135030000000 1.0
C      1  0.5353870000000  0.4602640000000  0.4590570000000 1.0
C      1  0.5292400000000  0.4163250000000  0.4980790000000 1.0
C      1  0.5652510000000  0.5967810000000  0.5571820000000 1.0
C      1  0.3865200000000  0.4984820000000  0.4506390000000 1.0
C      1  0.4866540000000  0.5340710000000  0.5640240000000 1.0
C      1  0.5286960000000  0.6462810000000  0.4883600000000 1.0
C      1  0.4829930000000  0.4406190000000  0.5849660000000 1.0
C      1  0.4697960000000  0.4963440000000  0.4091730000000 1.0
C      1  0.4676930000000  0.4298200000000  0.4471980000000 1.0
C      1  0.4595430000000  0.5379830000000  0.3856630000000 1.0
C      1  0.4629400000000  0.5733940000000  0.5999660000000 1.0
C      1  0.5049530000000  0.4240770000000  0.5057040000000 1.0
C      1  0.6182570000000  0.5089680000000  0.5558580000000 1.0
C      1  0.5037920000000  0.4704040000000  0.3909190000000 1.0
C      1  0.4418780000000  0.4668450000000  0.5939190000000 1.0
C      1  0.5096910000000  0.4492400000000  0.5784070000000 1.0
C      1  0.4590890000000  0.4071210000000  0.4079370000000 1.0
C      1  0.5489340000000  0.5003080000000  0.5695420000000 1.0
C      1  0.5346220000000  0.5548130000000  0.3863980000000 1.0
C      1  0.5109520000000  0.5409480000000  0.3790290000000 1.0
C      1  0.5215860000000  0.5387710000000  0.4529510000000 1.0
C      1  0.5362460000000  0.4484800000000  0.5342330000000 1.0
C      1  0.4388670000000  0.4195320000000  0.5805330000000 1.0
C      1  0.4312090000000  0.4439930000000  0.4756790000000 1.0
C      1  0.4788730000000  0.4017430000000  0.5537500000000 1.0
C      1  0.5580020000000  0.5725910000000  0.4534680000000 1.0
C      1  0.3913890000000  0.4736510000000  0.5201880000000 1.0
C      1  0.5413320000000  0.5544410000000  0.4674900000000 1.0
C      1  0.3986190000000  0.4782040000000  0.4917600000000 1.0
C      1  0.5807570000000  0.5972840000000  0.5114930000000 1.0
C      1  0.4092100000000  0.5882570000000  0.5215350000000 1.0
C      1  0.4670780000000  0.3687860000000  0.4882250000000 1.0
C      1  0.4578630000000  0.5844710000000  0.5742930000000 1.0
C      1  0.5383760000000  0.4126830000000  0.4112470000000 1.0
C      1  0.6053820000000  0.5266280000000  0.5080400000000 1.0
C      1  0.4457770000000  0.5555610000000  0.4643930000000 1.0
C      1  0.3646530000000  0.5116960000000  0.4962990000000 1.0
C      1  0.5411320000000  0.4569070000000  0.5067450000000 1.0
C      1  0.5588870000000  0.4323980000000  0.4126900000000 1.0
C      1  0.5984200000000  0.4618060000000  0.5388190000000 1.0
C      1  0.4186250000000  0.4148850000000  0.5610040000000 1.0
C      1  0.5475760000000  0.5970910000000  0.4454830000000 1.0
C      1  0.4580990000000  0.5288970000000  0.5564600000000 1.0
C      1  0.4707160000000  0.4649480000000  0.5976690000000 1.0
C      1  0.4841840000000  0.5844700000000  0.6151850000000 1.0
C      1  0.4435120000000  0.4213140000000  0.4288820000000 1.0
C      1  0.5498850000000  0.5421840000000  0.5455650000000 1.0
C      1  0.5665940000000  0.4583660000000  0.4143800000000 1.0
C      1  0.4240250000000  0.4428580000000  0.4277830000000 1.0
C      1  0.3996220000000  0.4273180000000  0.5462860000000 1.0
C      1  0.5053110000000  0.3797730000000  0.4207640000000 1.0
C      1  0.4863040000000  0.6339990000000  0.5420040000000 1.0
C      1  0.5959790000000  0.5147060000000  0.4555990000000 1.0
C      1  0.4479460000000  0.5161230000000  0.4006070000000 1.0
C      1  0.5266180000000  0.3924190000000  0.5632100000000 1.0
C      1  0.4595270000000  0.4750560000000  0.4277330000000 1.0
C      1  0.3998240000000  0.6336940000000  0.5096220000000 1.0
C      1  0.5568430000000  0.5490820000000  0.4005280000000 1.0
C      1  0.4566890000000  0.5191380000000  0.5087310000000 1.0
C      1  0.4565260000000  0.4529180000000  0.3872830000000 1.0
C      1  0.4544600000000  0.5475850000000  0.6091350000000 1.0
C      1  0.5172120000000  0.5193920000000  0.5014710000000 1.0
C      1  0.5928380000000  0.4692080000000  0.5682090000000 1.0
C      1  0.4385760000000  0.4611310000000  0.4110090000000 1.0
C      1  0.5169610000000  0.5486580000000  0.6226800000000 1.0
C      1  0.5510550000000  0.5073090000000  0.4252180000000 1.0
C      1  0.4788160000000  0.4020600000000  0.4509400000000 1.0
C      1  0.5435250000000  0.5542570000000  0.4962810000000 1.0
C      1  0.5704910000000  0.4285360000000  0.4780460000000 1.0
C      1  0.3807580000000  0.5194670000000  0.5201240000000 1.0
C      1  0.6042980000000  0.4950190000000  0.5764410000000 1.0
C      1  0.5330410000000  0.6106050000000  0.5226670000000 1.0
C      1  0.4001220000000  0.5063560000000  0.4263890000000 1.0
C      1  0.4848720000000  0.4812890000000  0.5283710000000 1.0
C      1  0.4409080000000  0.4948990000000  0.5091430000000 1.0
C      1  0.5954080000000  0.5755990000000  0.4999860000000 1.0
C      1  0.4278470000000  0.5120860000000  0.4672630000000 1.0
C      1  0.4756770000000  0.4761910000000  0.3855230000000 1.0
C      1  0.5589650000000  0.4349900000000  0.5449930000000 1.0
C      1  0.5438490000000  0.4076240000000  0.5781950000000 1.0
C      1  0.4935790000000  0.5485240000000  0.4486780000000 1.0
C      1  0.4401050000000  0.6137060000000  0.4930280000000 1.0
C      1  0.5987710000000  0.4677730000000  0.4652040000000 1.0
C      1  0.3777540000000  0.5190920000000  0.4707810000000 1.0
C      1  0.4632050000000  0.5230000000000  0.6170150000000 1.0
C      1  0.5109200000000  0.5278130000000  0.5790700000000 1.0
C      1  0.5328490000000  0.3914430000000  0.4609870000000 1.0
C      1  0.5046270000000  0.4580470000000  0.4175200000000 1.0
C      1  0.4642540000000  0.5883090000000  0.5467060000000 1.0
C      1  0.3938770000000  0.4986450000000  0.5367310000000 1.0
C      1  0.3964290000000  0.5415710000000  0.4802850000000 1.0
C      1  0.5465120000000  0.4783910000000  0.5885370000000 1.0
C      1  0.5365920000000  0.5258320000000  0.5663700000000 1.0
C      1  0.5621130000000  0.4937170000000  0.5456580000000 1.0
C      1  0.4681910000000  0.4253800000000  0.3870660000000 1.0
C      1  0.4797980000000  0.4534670000000  0.4313600000000 1.0
C      1  0.5050420000000  0.4813800000000  0.5450850000000 1.0
C      1  0.6138270000000  0.5075780000000  0.5283580000000 1.0
C      1  0.5192780000000  0.4705240000000  0.5970010000000 1.0
C      1  0.4738120000000  0.5228980000000  0.4860880000000 1.0
C      1  0.5201460000000  0.4155910000000  0.3888230000000 1.0
C      1  0.4926990000000  0.4818730000000  0.6071200000000 1.0
C      1  0.4682000000000  0.4172780000000  0.5763350000000 1.0
C      1  0.4589800000000  0.4448400000000  0.4703800000000 1.0
C      1  0.5178960000000  0.5474960000000  0.5069320000000 1.0
C      1  0.5169500000000  0.4572640000000  0.5521690000000 1.0
C      1  0.4794140000000  0.3913440000000  0.4232560000000 1.0
C      1  0.6047560000000  0.5116940000000  0.4829650000000 1.0
C      1  0.4314290000000  0.4403910000000  0.5990750000000 1.0
C      1  0.5089520000000  0.5266640000000  0.6071880000000 1.0
C      1  0.4432410000000  0.4658310000000  0.5194860000000 1.0
C      1  0.5896640000000  0.5500440000000  0.5121840000000 1.0
C      1  0.4784570000000  0.3620030000000  0.5123360000000 1.0
C      1  0.5909970000000  0.4405460000000  0.4626860000000 1.0
C      1  0.5062690000000  0.6492170000000  0.5317130000000 1.0
C      1  0.4869130000000  0.6267210000000  0.4714220000000 1.0
C      1  0.4860270000000  0.5463940000000  0.3931230000000 1.0
C      1  0.3890270000000  0.4483180000000  0.5329760000000 1.0
C      1  0.4129230000000  0.4513660000000  0.4537640000000 1.0
C      1  0.5682860000000  0.4837850000000  0.4272720000000 1.0
C      1  0.4163540000000  0.6118950000000  0.5080530000000 1.0
C      1  0.5299720000000  0.6164140000000  0.4504360000000 1.0
C      1  0.4569120000000  0.5390710000000  0.5285710000000 1.0
C      1  0.5161320000000  0.5144310000000  0.3697190000000 1.0
C      1  0.5877750000000  0.5371450000000  0.6013370000000 1.0
C      1  0.4721130000000  0.5448840000000  0.4673900000000 1.0
C      1  0.5681870000000  0.4578990000000  0.5829810000000 1.0
C      1  0.4136820000000  0.5501020000000  0.5536040000000 1.0
END
