TITL C-3866670-4165-78 -0.0149598295146753 125000 -421.699830985852 0 0 69 (C1) n - 1
REM
REM in /home/nfs/bkarasulu/CARBON/AIRSS/Generating-Clusters/LCBOP/Only-C1/SD-CG/HFTN-CG/FIRE-CG
REM
REM
REM
REM
REM
REM ./C.cell (11c1c37f851c82e70ff6c80c92926a4b)
REM AIRSS Version 0.9.1 bugfix July 2018 build 013d7b7c2542+ Fri, 06 Jul 2018 19:26:36 +0100
REM compiler GCC version 9.2.1 20190827 (Red Hat 9.2.1-1)
REM options -cpp -mtune=generic -march=x86-64 -g -O0 -fpre-include=/usr/include/finclude/math-vector-fortran.h
REM seed 1870095281 1506041450 -1545507677 -1561885986 -343489881 1805202381 -1540738832 485524365 -1318135761 355370776 -2058570956 847894449 -1771893955 2060617463 53715672 1171831253 498897451 1580006931 1586253130 60781275 1335444806 718957409 1019666384 571444804 -539094636 1276249003 -974135712 -1997080054 -486878907 476696872 -1322587516 40492401 -570961582
REM
CELL 1.54180   50.00000   50.00000   50.00000   90.00000   90.00000   90.00000
LATT -1
SFAC C  
C      1  0.4304440000000  0.4583390000000  0.5386370000000 1.0
C      1  0.4408890000000  0.5287830000000  0.4116590000000 1.0
C      1  0.5583670000000  0.5309150000000  0.4414280000000 1.0
C      1  0.4824940000000  0.5012420000000  0.4868630000000 1.0
C      1  0.5386880000000  0.5126590000000  0.5136460000000 1.0
C      1  0.4836740000000  0.5045500000000  0.5673170000000 1.0
C      1  0.5592260000000  0.5294070000000  0.5226630000000 1.0
C      1  0.5773570000000  0.5124980000000  0.4443720000000 1.0
C      1  0.5101070000000  0.4619300000000  0.4824160000000 1.0
C      1  0.6081720000000  0.4611740000000  0.5161390000000 1.0
C      1  0.4450600000000  0.5053920000000  0.4552250000000 1.0
C      1  0.5373440000000  0.4684530000000  0.4822030000000 1.0
C      1  0.4267880000000  0.4772390000000  0.5580480000000 1.0
C      1  0.5142920000000  0.4728440000000  0.5830270000000 1.0
C      1  0.4911930000000  0.5155460000000  0.4407890000000 1.0
C      1  0.4964940000000  0.5736250000000  0.5925670000000 1.0
C      1  0.4709570000000  0.4777120000000  0.6084600000000 1.0
C      1  0.4929680000000  0.4239370000000  0.5386280000000 1.0
C      1  0.5540700000000  0.4294210000000  0.4571940000000 1.0
C      1  0.4344470000000  0.5076930000000  0.4293150000000 1.0
C      1  0.5288670000000  0.4935260000000  0.5685740000000 1.0
C      1  0.5081270000000  0.4275800000000  0.5602670000000 1.0
C      1  0.5156780000000  0.5617260000000  0.6066220000000 1.0
C      1  0.4880690000000  0.4843810000000  0.5877850000000 1.0
C      1  0.5441800000000  0.4919240000000  0.4959110000000 1.0
C      1  0.5759770000000  0.5065220000000  0.5628730000000 1.0
C      1  0.4816480000000  0.5779940000000  0.5709500000000 1.0
C      1  0.5871560000000  0.4894130000000  0.4533760000000 1.0
C      1  0.5492260000000  0.5233060000000  0.6002740000000 1.0
C      1  0.4202640000000  0.4872040000000  0.4159250000000 1.0
C      1  0.5762920000000  0.5268000000000  0.5432060000000 1.0
C      1  0.4290080000000  0.4980240000000  0.4769300000000 1.0
C      1  0.4757310000000  0.5641330000000  0.5213030000000 1.0
C      1  0.4888490000000  0.5488510000000  0.5019470000000 1.0
C      1  0.6015800000000  0.4606880000000  0.4903440000000 1.0
C      1  0.4674430000000  0.5331350000000  0.3717200000000 1.0
C      1  0.4540860000000  0.4713240000000  0.6272660000000 1.0
C      1  0.4729310000000  0.5084460000000  0.4607490000000 1.0
C      1  0.5171590000000  0.4456190000000  0.5778000000000 1.0
C      1  0.4740330000000  0.5745280000000  0.5457160000000 1.0
C      1  0.4249800000000  0.5067710000000  0.3716490000000 1.0
C      1  0.4271490000000  0.5104550000000  0.5246460000000 1.0
C      1  0.5234670000000  0.5578910000000  0.4633040000000 1.0
C      1  0.4412480000000  0.4660450000000  0.5132240000000 1.0
C      1  0.4153430000000  0.4851300000000  0.3880440000000 1.0
C      1  0.5095130000000  0.5335080000000  0.3995890000000 1.0
C      1  0.5350740000000  0.5437840000000  0.6097660000000 1.0
C      1  0.4674240000000  0.4571320000000  0.5063260000000 1.0
C      1  0.5581330000000  0.4541280000000  0.4693240000000 1.0
C      1  0.4931160000000  0.5356510000000  0.3786740000000 1.0
C      1  0.5084300000000  0.5074750000000  0.5520610000000 1.0
C      1  0.4307320000000  0.4912930000000  0.5038120000000 1.0
C      1  0.5934820000000  0.4849820000000  0.5594680000000 1.0
C      1  0.5499970000000  0.4062340000000  0.4460180000000 1.0
C      1  0.4920420000000  0.5206490000000  0.5057660000000 1.0
C      1  0.5838660000000  0.4666650000000  0.4694870000000 1.0
C      1  0.4778160000000  0.4344410000000  0.5193920000000 1.0
C      1  0.4857870000000  0.4730750000000  0.4914460000000 1.0
C      1  0.4165370000000  0.5100090000000  0.3458310000000 1.0
C      1  0.5322380000000  0.5407040000000  0.4429070000000 1.0
C      1  0.4023510000000  0.4635600000000  0.3774590000000 1.0
C      1  0.5116440000000  0.5290670000000  0.4270930000000 1.0
C      1  0.5523870000000  0.5057260000000  0.5786170000000 1.0
C      1  0.4339850000000  0.5042080000000  0.5516050000000 1.0
C      1  0.4580010000000  0.5140170000000  0.5621820000000 1.0
C      1  0.4433830000000  0.5251950000000  0.3835770000000 1.0
C      1  0.5051510000000  0.5608520000000  0.4824750000000 1.0
C      1  0.5123810000000  0.5137120000000  0.5247720000000 1.0
C      1  0.6050100000000  0.4691610000000  0.5413510000000 1.0
END
