TITL C-3866674-3872-217 634921.107117314 125000 -999.554040134161 0 0 168 (C1) n - 1
REM
REM in /home/nfs/bkarasulu/CARBON/AIRSS/Generating-Clusters/LCBOP/Only-C1/SD-CG/HFTN-CG/FIRE-CG
REM
REM
REM
REM
REM
REM ./C.cell (11c1c37f851c82e70ff6c80c92926a4b)
REM AIRSS Version 0.9.1 bugfix July 2018 build 013d7b7c2542+ Fri, 06 Jul 2018 19:26:36 +0100
REM compiler GCC version 9.2.1 20190827 (Red Hat 9.2.1-1)
REM options -cpp -mtune=generic -march=x86-64 -g -O0 -fpre-include=/usr/include/finclude/math-vector-fortran.h
REM seed 1731406319 899197615 -16136643 -990116240 1274580279 316967100 -874379130 1439921362 1610840563 244219200 1547855062 -1945337172 -521583724 1396528051 -794472551 -1470541811 -1857669001 -1710318908 1520355472 -1478927380 1977232644 287843760 498405563 -213619589 -838784828 1441393872 -1406676218 1171629728 -982264035 -1440490664 -548789789 -150155782 -926522837
REM
CELL 1.54180   50.00000   50.00000   50.00000   90.00000   90.00000   90.00000
LATT -1
SFAC C  
C      1  0.5793210000000  0.5727370000000  0.4854800000000 1.0
C      1  0.5225250000000  0.5970660000000  0.5419030000000 1.0
C      1  0.4428480000000  0.4604210000000  0.4560460000000 1.0
C      1  0.5267450000000  0.5693600000000  0.4886250000000 1.0
C      1  0.5544600000000  0.5743840000000  0.4108010000000 1.0
C      1  0.4930930000000  0.4419390000000  0.4030070000000 1.0
C      1  0.4317370000000  0.4425210000000  0.5197820000000 1.0
C      1  0.5329570000000  0.4760720000000  0.4234040000000 1.0
C      1  0.4991630000000  0.5441360000000  0.5281690000000 1.0
C      1  0.5642810000000  0.4832790000000  0.4902580000000 1.0
C      1  0.4146920000000  0.4373040000000  0.4966930000000 1.0
C      1  0.5676830000000  0.5670320000000  0.4348770000000 1.0
C      1  0.4347650000000  0.5309150000000  0.4610780000000 1.0
C      1  0.5126560000000  0.4255940000000  0.4167700000000 1.0
C      1  0.4933720000000  0.4417020000000  0.5294910000000 1.0
C      1  0.5744540000000  0.3868400000000  0.5017240000000 1.0
C      1  0.5770080000000  0.3866540000000  0.5284770000000 1.0
C      1  0.6089480000000  0.4949390000000  0.4387810000000 1.0
C      1  0.4500570000000  0.5612080000000  0.5165040000000 1.0
C      1  0.4873420000000  0.4663050000000  0.5721420000000 1.0
C      1  0.5013400000000  0.4911210000000  0.3776130000000 1.0
C      1  0.4744790000000  0.4660080000000  0.4961180000000 1.0
C      1  0.4559870000000  0.4335250000000  0.5319670000000 1.0
C      1  0.4469360000000  0.5430190000000  0.5954900000000 1.0
C      1  0.6217990000000  0.5433190000000  0.4678540000000 1.0
C      1  0.5358730000000  0.4310670000000  0.5072840000000 1.0
C      1  0.3886010000000  0.5272780000000  0.4604230000000 1.0
C      1  0.5064400000000  0.4810610000000  0.4320640000000 1.0
C      1  0.4308460000000  0.4952540000000  0.4936560000000 1.0
C      1  0.4880030000000  0.3955350000000  0.5341540000000 1.0
C      1  0.5072300000000  0.4346250000000  0.5034370000000 1.0
C      1  0.5851540000000  0.4745240000000  0.5680390000000 1.0
C      1  0.3859570000000  0.4978730000000  0.4637970000000 1.0
C      1  0.4517600000000  0.4196870000000  0.5557390000000 1.0
C      1  0.5630270000000  0.4346050000000  0.4317740000000 1.0
C      1  0.3885600000000  0.5118470000000  0.5614280000000 1.0
C      1  0.3932060000000  0.4577810000000  0.4930100000000 1.0
C      1  0.4461320000000  0.4101640000000  0.5798300000000 1.0
C      1  0.5354490000000  0.4906460000000  0.5759050000000 1.0
C      1  0.4875070000000  0.5272940000000  0.6232420000000 1.0
C      1  0.5809450000000  0.4829640000000  0.4336580000000 1.0
C      1  0.4262180000000  0.4364030000000  0.4471040000000 1.0
C      1  0.5994340000000  0.4974390000000  0.5251510000000 1.0
C      1  0.4878890000000  0.4982400000000  0.4442200000000 1.0
C      1  0.5531210000000  0.5599170000000  0.5289870000000 1.0
C      1  0.5655140000000  0.4561920000000  0.4820690000000 1.0
C      1  0.6105480000000  0.5212900000000  0.4502550000000 1.0
C      1  0.4508340000000  0.4674790000000  0.4008780000000 1.0
C      1  0.4973010000000  0.5638460000000  0.5024540000000 1.0
C      1  0.5352740000000  0.4669150000000  0.3959660000000 1.0
C      1  0.4538930000000  0.4939530000000  0.3897330000000 1.0
C      1  0.4175370000000  0.5739380000000  0.4605830000000 1.0
C      1  0.4465170000000  0.4003120000000  0.4779830000000 1.0
C      1  0.4888840000000  0.5415950000000  0.5553610000000 1.0
C      1  0.4906630000000  0.6245530000000  0.5148340000000 1.0
C      1  0.6180830000000  0.5353260000000  0.5571750000000 1.0
C      1  0.5068100000000  0.4633140000000  0.3876130000000 1.0
C      1  0.5013260000000  0.4232040000000  0.5506640000000 1.0
C      1  0.5240240000000  0.5348560000000  0.4515720000000 1.0
C      1  0.6000120000000  0.5512980000000  0.4882790000000 1.0
C      1  0.4267690000000  0.5583870000000  0.5819180000000 1.0
C      1  0.4551930000000  0.5334030000000  0.5137080000000 1.0
C      1  0.6089050000000  0.4387450000000  0.5085740000000 1.0
C      1  0.5379980000000  0.4596810000000  0.5755250000000 1.0
C      1  0.3971260000000  0.4681230000000  0.5438830000000 1.0
C      1  0.5474100000000  0.5305210000000  0.5295030000000 1.0
C      1  0.6167920000000  0.5471090000000  0.6080960000000 1.0
C      1  0.4485190000000  0.4239050000000  0.4291220000000 1.0
C      1  0.3795150000000  0.5028180000000  0.5145310000000 1.0
C      1  0.3939430000000  0.5372680000000  0.5479150000000 1.0
C      1  0.6116270000000  0.4390510000000  0.4816560000000 1.0
C      1  0.4771240000000  0.3828790000000  0.4401480000000 1.0
C      1  0.4747990000000  0.4959230000000  0.3706550000000 1.0
C      1  0.5385800000000  0.4952050000000  0.4893750000000 1.0
C      1  0.4298570000000  0.4845140000000  0.4498150000000 1.0
C      1  0.4934030000000  0.5930640000000  0.4536790000000 1.0
C      1  0.4507510000000  0.5187420000000  0.5810830000000 1.0
C      1  0.4396680000000  0.5898570000000  0.4622700000000 1.0
C      1  0.6082480000000  0.4496010000000  0.4555270000000 1.0
C      1  0.3823410000000  0.4761970000000  0.6273740000000 1.0
C      1  0.5987480000000  0.4463370000000  0.5339230000000 1.0
C      1  0.3823810000000  0.4581610000000  0.6462090000000 1.0
C      1  0.5320560000000  0.5412350000000  0.4783080000000 1.0
C      1  0.5754580000000  0.5814800000000  0.4581390000000 1.0
C      1  0.4668100000000  0.5370130000000  0.4144430000000 1.0
C      1  0.4917440000000  0.4993490000000  0.4724410000000 1.0
C      1  0.5548830000000  0.5724150000000  0.5025100000000 1.0
C      1  0.4735870000000  0.5159790000000  0.5638790000000 1.0
C      1  0.3817910000000  0.4914460000000  0.5416900000000 1.0
C      1  0.5450020000000  0.5790950000000  0.5487240000000 1.0
C      1  0.4011800000000  0.4803130000000  0.4455940000000 1.0
C      1  0.4659330000000  0.5971350000000  0.4629900000000 1.0
C      1  0.5333800000000  0.5300550000000  0.4009810000000 1.0
C      1  0.4004580000000  0.4514100000000  0.4391240000000 1.0
C      1  0.4735750000000  0.3987210000000  0.5017260000000 1.0
C      1  0.5675530000000  0.5386700000000  0.4386020000000 1.0
C      1  0.4747060000000  0.4875380000000  0.5555130000000 1.0
C      1  0.4141690000000  0.5565170000000  0.5556620000000 1.0
C      1  0.5271970000000  0.6152340000000  0.4898330000000 1.0
C      1  0.4962020000000  0.5409780000000  0.4517910000000 1.0
C      1  0.5247800000000  0.5510590000000  0.6068920000000 1.0
C      1  0.5395420000000  0.5575720000000  0.3951170000000 1.0
C      1  0.6188430000000  0.5438080000000  0.5823060000000 1.0
C      1  0.6123590000000  0.5197170000000  0.5364710000000 1.0
C      1  0.4410100000000  0.5168460000000  0.5305140000000 1.0
C      1  0.5845280000000  0.5260570000000  0.4868430000000 1.0
C      1  0.5670420000000  0.4049060000000  0.4831290000000 1.0
C      1  0.4753640000000  0.5644110000000  0.4122310000000 1.0
C      1  0.4710340000000  0.6055240000000  0.5222170000000 1.0
C      1  0.4814150000000  0.5239820000000  0.4344910000000 1.0
C      1  0.6245870000000  0.4723820000000  0.4477980000000 1.0
C      1  0.5457280000000  0.4463180000000  0.5283690000000 1.0
C      1  0.5537000000000  0.4941120000000  0.4312720000000 1.0
C      1  0.5844050000000  0.5011040000000  0.5007460000000 1.0
C      1  0.4294210000000  0.5008540000000  0.5839050000000 1.0
C      1  0.4110150000000  0.5461840000000  0.4599160000000 1.0
C      1  0.4013100000000  0.5024250000000  0.5849070000000 1.0
C      1  0.5031460000000  0.4612830000000  0.4912410000000 1.0
C      1  0.4634290000000  0.4069420000000  0.4510220000000 1.0
C      1  0.5832860000000  0.4532400000000  0.4393710000000 1.0
C      1  0.4223900000000  0.4664540000000  0.5322670000000 1.0
C      1  0.5383840000000  0.4248020000000  0.4257690000000 1.0
C      1  0.5180070000000  0.5940700000000  0.4717690000000 1.0
C      1  0.5549200000000  0.4300660000000  0.4864090000000 1.0
C      1  0.4737790000000  0.6035150000000  0.5504700000000 1.0
C      1  0.5330460000000  0.5220040000000  0.5014820000000 1.0
C      1  0.4658120000000  0.4791430000000  0.5224530000000 1.0
C      1  0.5431650000000  0.5235410000000  0.4300840000000 1.0
C      1  0.5259560000000  0.5088460000000  0.3818790000000 1.0
C      1  0.4813220000000  0.5196200000000  0.4933710000000 1.0
C      1  0.4643900000000  0.4531740000000  0.4721850000000 1.0
C      1  0.5822710000000  0.5248580000000  0.4577700000000 1.0
C      1  0.5777150000000  0.4038890000000  0.5490570000000 1.0
C      1  0.5666810000000  0.4513440000000  0.5711860000000 1.0
C      1  0.4862710000000  0.5455440000000  0.4783280000000 1.0
C      1  0.4945020000000  0.5657560000000  0.5708170000000 1.0
C      1  0.5033780000000  0.5666290000000  0.5971940000000 1.0
C      1  0.4645350000000  0.5415570000000  0.6180830000000 1.0
C      1  0.5042520000000  0.5176140000000  0.5142810000000 1.0
C      1  0.3831210000000  0.4859520000000  0.4908270000000 1.0
C      1  0.4356310000000  0.5044120000000  0.4681110000000 1.0
C      1  0.5525040000000  0.4712120000000  0.5325080000000 1.0
C      1  0.4909060000000  0.5819260000000  0.4267700000000 1.0
C      1  0.4979510000000  0.5906170000000  0.5574150000000 1.0
C      1  0.5985480000000  0.4744690000000  0.5420080000000 1.0
C      1  0.4638180000000  0.4426790000000  0.4098480000000 1.0
C      1  0.4372490000000  0.4895210000000  0.5214250000000 1.0
C      1  0.5810480000000  0.4314410000000  0.5532420000000 1.0
C      1  0.3875970000000  0.4921000000000  0.6068110000000 1.0
C      1  0.5352230000000  0.5053740000000  0.5499110000000 1.0
C      1  0.5469450000000  0.4878880000000  0.3796530000000 1.0
C      1  0.5147090000000  0.5251950000000  0.6137040000000 1.0
C      1  0.5545020000000  0.5745850000000  0.5749510000000 1.0
C      1  0.5065000000000  0.4689790000000  0.5332510000000 1.0
C      1  0.4798650000000  0.4287440000000  0.4648590000000 1.0
C      1  0.5262770000000  0.5034700000000  0.5997530000000 1.0
C      1  0.5495820000000  0.5600320000000  0.5971740000000 1.0
C      1  0.4713850000000  0.5795510000000  0.5099280000000 1.0
C      1  0.5182200000000  0.6154520000000  0.5176070000000 1.0
C      1  0.4916940000000  0.4158630000000  0.4880770000000 1.0
C      1  0.3849510000000  0.5313740000000  0.5200590000000 1.0
C      1  0.4288120000000  0.5679890000000  0.5340020000000 1.0
C      1  0.5123700000000  0.4964100000000  0.5339800000000 1.0
C      1  0.4486170000000  0.5195650000000  0.4012560000000 1.0
C      1  0.4433600000000  0.4011140000000  0.6041190000000 1.0
C      1  0.5147480000000  0.4836520000000  0.4806310000000 1.0
C      1  0.5101620000000  0.4449750000000  0.5716070000000 1.0
C      1  0.4243820000000  0.4205580000000  0.4750850000000 1.0
END
