TITL C-3866676-3738-168 6.32125872467566e-06 125000 -895.850060956003 0 0 146 (C1) n - 1
REM
REM in /home/nfs/bkarasulu/CARBON/AIRSS/Generating-Clusters/LCBOP/Only-C1/SD-CG/HFTN-CG/FIRE-CG
REM
REM
REM
REM
REM
REM ./C.cell (11c1c37f851c82e70ff6c80c92926a4b)
REM AIRSS Version 0.9.1 bugfix July 2018 build 013d7b7c2542+ Fri, 06 Jul 2018 19:26:36 +0100
REM compiler GCC version 9.2.1 20190827 (Red Hat 9.2.1-1)
REM options -cpp -mtune=generic -march=x86-64 -g -O0 -fpre-include=/usr/include/finclude/math-vector-fortran.h
REM seed -1607325182 1674148508 1890214700 -974248620 -145274542 -494690873 678178533 1830209267 1674257921 -1030344449 1069720946 1968344839 -1324303286 212582707 1602932345 518133187 2145353064 1682321205 -375595603 -1576893870 -1091444076 -894665062 1889096397 1216937536 780291259 -1208821494 1828118492 922555126 -1520391547 792200355 794243927 -1184057941 -174332540
REM
CELL 1.54180   50.00000   50.00000   50.00000   90.00000   90.00000   90.00000
LATT -1
SFAC C  
C      1  0.4498870000000  0.4025980000000  0.4730750000000 1.0
C      1  0.5045580000000  0.5251010000000  0.4909140000000 1.0
C      1  0.5159600000000  0.4847820000000  0.6311720000000 1.0
C      1  0.5458310000000  0.4795340000000  0.4029500000000 1.0
C      1  0.4632120000000  0.5745960000000  0.4400130000000 1.0
C      1  0.4996060000000  0.5709380000000  0.5840820000000 1.0
C      1  0.5091070000000  0.4609600000000  0.4933580000000 1.0
C      1  0.4555140000000  0.4194960000000  0.4177530000000 1.0
C      1  0.5121950000000  0.5255440000000  0.6006210000000 1.0
C      1  0.5651170000000  0.5182970000000  0.5016450000000 1.0
C      1  0.3996830000000  0.5372950000000  0.4352930000000 1.0
C      1  0.5015390000000  0.5039970000000  0.6166370000000 1.0
C      1  0.4646520000000  0.4047070000000  0.5168270000000 1.0
C      1  0.5228020000000  0.5194810000000  0.5733500000000 1.0
C      1  0.4710420000000  0.5668960000000  0.3906880000000 1.0
C      1  0.5218620000000  0.6024460000000  0.5545330000000 1.0
C      1  0.4460610000000  0.5309330000000  0.5714510000000 1.0
C      1  0.5545170000000  0.4181850000000  0.4667470000000 1.0
C      1  0.5533650000000  0.4998450000000  0.4805690000000 1.0
C      1  0.5536890000000  0.4605070000000  0.5864250000000 1.0
C      1  0.4116510000000  0.5192780000000  0.4188460000000 1.0
C      1  0.5054550000000  0.5731060000000  0.5088730000000 1.0
C      1  0.5150670000000  0.4157660000000  0.5751050000000 1.0
C      1  0.4100940000000  0.5450020000000  0.5346650000000 1.0
C      1  0.4522280000000  0.4870810000000  0.5969800000000 1.0
C      1  0.4524590000000  0.6051970000000  0.4758800000000 1.0
C      1  0.4214080000000  0.4968510000000  0.5247600000000 1.0
C      1  0.4940390000000  0.5990330000000  0.5036780000000 1.0
C      1  0.5094320000000  0.5104620000000  0.4650090000000 1.0
C      1  0.4753260000000  0.5308140000000  0.5733600000000 1.0
C      1  0.3928510000000  0.5530640000000  0.4857520000000 1.0
C      1  0.5977170000000  0.4697180000000  0.5523210000000 1.0
C      1  0.6187650000000  0.4876640000000  0.5436070000000 1.0
C      1  0.4739020000000  0.4834050000000  0.4434660000000 1.0
C      1  0.5999920000000  0.4425400000000  0.4963410000000 1.0
C      1  0.5340600000000  0.5414690000000  0.4158620000000 1.0
C      1  0.4244940000000  0.4570530000000  0.4956470000000 1.0
C      1  0.4515070000000  0.5669260000000  0.5393460000000 1.0
C      1  0.5443590000000  0.5236870000000  0.5535630000000 1.0
C      1  0.5453590000000  0.5214210000000  0.5237230000000 1.0
C      1  0.5223370000000  0.6218580000000  0.5358820000000 1.0
C      1  0.5578700000000  0.6490760000000  0.4669500000000 1.0
C      1  0.4747910000000  0.5256060000000  0.4934720000000 1.0
C      1  0.6073510000000  0.4908800000000  0.4957700000000 1.0
C      1  0.5906310000000  0.4681420000000  0.4856790000000 1.0
C      1  0.4245060000000  0.5998620000000  0.4818410000000 1.0
C      1  0.5399860000000  0.4224600000000  0.4259610000000 1.0
C      1  0.4816940000000  0.3871080000000  0.5006320000000 1.0
C      1  0.5292240000000  0.4348450000000  0.4038750000000 1.0
C      1  0.4467590000000  0.5870630000000  0.5201410000000 1.0
C      1  0.4645950000000  0.5242040000000  0.5199730000000 1.0
C      1  0.4954240000000  0.4326130000000  0.5878670000000 1.0
C      1  0.3925820000000  0.5489790000000  0.4588310000000 1.0
C      1  0.5604670000000  0.4113260000000  0.4928890000000 1.0
C      1  0.4975970000000  0.4070960000000  0.4569690000000 1.0
C      1  0.4956740000000  0.4687130000000  0.4005130000000 1.0
C      1  0.5643250000000  0.4783720000000  0.6049120000000 1.0
C      1  0.4889480000000  0.4340350000000  0.4514070000000 1.0
C      1  0.4421130000000  0.5121580000000  0.4640760000000 1.0
C      1  0.5629110000000  0.4744230000000  0.4906160000000 1.0
C      1  0.4728610000000  0.4463160000000  0.5751490000000 1.0
C      1  0.4619190000000  0.5329970000000  0.4689950000000 1.0
C      1  0.5996410000000  0.5305420000000  0.4691130000000 1.0
C      1  0.4103140000000  0.4798940000000  0.5047310000000 1.0
C      1  0.5141190000000  0.4527410000000  0.5197340000000 1.0
C      1  0.5233230000000  0.4621710000000  0.3994400000000 1.0
C      1  0.5590430000000  0.4717240000000  0.5189390000000 1.0
C      1  0.4710140000000  0.4669680000000  0.4182740000000 1.0
C      1  0.4454750000000  0.4794070000000  0.4065430000000 1.0
C      1  0.5721330000000  0.4765260000000  0.5421500000000 1.0
C      1  0.4267340000000  0.4989040000000  0.4092070000000 1.0
C      1  0.4240840000000  0.4319240000000  0.5087220000000 1.0
C      1  0.4526440000000  0.4855320000000  0.4611250000000 1.0
C      1  0.4732350000000  0.5494800000000  0.5335090000000 1.0
C      1  0.4742700000000  0.4963160000000  0.6122390000000 1.0
C      1  0.5018270000000  0.4397610000000  0.6144770000000 1.0
C      1  0.4421290000000  0.4633710000000  0.4746800000000 1.0
C      1  0.5382940000000  0.5719010000000  0.4544380000000 1.0
C      1  0.5816700000000  0.4229340000000  0.5076170000000 1.0
C      1  0.5506510000000  0.6244230000000  0.4625160000000 1.0
C      1  0.4853770000000  0.6162100000000  0.4380870000000 1.0
C      1  0.4992590000000  0.4529550000000  0.4697540000000 1.0
C      1  0.4913630000000  0.5457900000000  0.5933370000000 1.0
C      1  0.4698140000000  0.4477180000000  0.5463570000000 1.0
C      1  0.4566260000000  0.5721860000000  0.4128010000000 1.0
C      1  0.5008490000000  0.5045090000000  0.5343490000000 1.0
C      1  0.5424720000000  0.5996360000000  0.4579300000000 1.0
C      1  0.5827730000000  0.5346410000000  0.4467110000000 1.0
C      1  0.4125840000000  0.4305000000000  0.5345010000000 1.0
C      1  0.6248100000000  0.4799540000000  0.5162320000000 1.0
C      1  0.4967010000000  0.5148690000000  0.5597550000000 1.0
C      1  0.5256890000000  0.4071110000000  0.5294960000000 1.0
C      1  0.5113140000000  0.5620170000000  0.4617300000000 1.0
C      1  0.4505710000000  0.4596910000000  0.5882860000000 1.0
C      1  0.4921490000000  0.5245020000000  0.3929990000000 1.0
C      1  0.4418450000000  0.4118690000000  0.4997050000000 1.0
C      1  0.5128870000000  0.4580500000000  0.6305790000000 1.0
C      1  0.5331310000000  0.4673420000000  0.5681740000000 1.0
C      1  0.4128620000000  0.4373740000000  0.5603860000000 1.0
C      1  0.4768530000000  0.5542220000000  0.4540170000000 1.0
C      1  0.5222760000000  0.4654460000000  0.5436690000000 1.0
C      1  0.5186100000000  0.5620240000000  0.4026660000000 1.0
C      1  0.5184940000000  0.5896890000000  0.4086220000000 1.0
C      1  0.4932530000000  0.5033300000000  0.4427900000000 1.0
C      1  0.5609890000000  0.4340140000000  0.4435190000000 1.0
C      1  0.4780940000000  0.3928430000000  0.4723840000000 1.0
C      1  0.4361210000000  0.5077690000000  0.5849610000000 1.0
C      1  0.4950000000000  0.5521390000000  0.3893610000000 1.0
C      1  0.5941620000000  0.5168960000000  0.4936380000000 1.0
C      1  0.5631850000000  0.5568430000000  0.4503050000000 1.0
C      1  0.4503110000000  0.4987030000000  0.5277380000000 1.0
C      1  0.5358090000000  0.4095540000000  0.5558540000000 1.0
C      1  0.4045040000000  0.5174540000000  0.5337780000000 1.0
C      1  0.3706060000000  0.4915990000000  0.4781470000000 1.0
C      1  0.4626330000000  0.4734580000000  0.5351500000000 1.0
C      1  0.5412810000000  0.3976560000000  0.5083570000000 1.0
C      1  0.5631310000000  0.4192290000000  0.5584290000000 1.0
C      1  0.4961270000000  0.5133430000000  0.4169300000000 1.0
C      1  0.5056180000000  0.4261580000000  0.5244440000000 1.0
C      1  0.5727620000000  0.4590970000000  0.4366400000000 1.0
C      1  0.4209320000000  0.5852760000000  0.5066920000000 1.0
C      1  0.5661680000000  0.4355830000000  0.5815570000000 1.0
C      1  0.5831150000000  0.4234950000000  0.5374810000000 1.0
C      1  0.5776310000000  0.4954180000000  0.6194670000000 1.0
C      1  0.5182260000000  0.5144530000000  0.5146840000000 1.0
C      1  0.4781990000000  0.4248430000000  0.5311230000000 1.0
C      1  0.4710170000000  0.4387850000000  0.4294080000000 1.0
C      1  0.5092330000000  0.6211520000000  0.5122650000000 1.0
C      1  0.4983830000000  0.5634750000000  0.5347580000000 1.0
C      1  0.5430850000000  0.5202390000000  0.4330780000000 1.0
C      1  0.4653590000000  0.6010040000000  0.4511210000000 1.0
C      1  0.5050740000000  0.6097000000000  0.4207290000000 1.0
C      1  0.4149490000000  0.5115790000000  0.4707940000000 1.0
C      1  0.4323000000000  0.5505660000000  0.5530140000000 1.0
C      1  0.5247270000000  0.4033310000000  0.4512000000000 1.0
C      1  0.5677650000000  0.4835500000000  0.4219860000000 1.0
C      1  0.5110090000000  0.5543630000000  0.4885760000000 1.0
C      1  0.3969450000000  0.4945250000000  0.4841690000000 1.0
C      1  0.5075750000000  0.5783680000000  0.5580630000000 1.0
C      1  0.6052200000000  0.4427000000000  0.5427330000000 1.0
C      1  0.4054460000000  0.5614540000000  0.5102120000000 1.0
C      1  0.5366400000000  0.5090170000000  0.4592540000000 1.0
C      1  0.6200300000000  0.4500100000000  0.5169640000000 1.0
C      1  0.5712270000000  0.5122550000000  0.4306150000000 1.0
C      1  0.4658860000000  0.5996670000000  0.5013950000000 1.0
C      1  0.4254360000000  0.4484690000000  0.5813550000000 1.0
END
