TITL C-3866671-3735-725 0.611159723603395 125000 -652.492687219313 0 0 106 (C1) n - 1
REM
REM in /home/nfs/bkarasulu/CARBON/AIRSS/Generating-Clusters/LCBOP/Only-C1/SD-CG/FIRE-CG
REM
REM
REM
REM
REM
REM ./C.cell (11c1c37f851c82e70ff6c80c92926a4b)
REM AIRSS Version 0.9.1 bugfix July 2018 build 013d7b7c2542+ Fri, 06 Jul 2018 19:26:36 +0100
REM compiler GCC version 9.2.1 20190827 (Red Hat 9.2.1-1)
REM options -cpp -mtune=generic -march=x86-64 -g -O0 -fpre-include=/usr/include/finclude/math-vector-fortran.h
REM seed 1661510696 -739236348 -1412515523 671174404 2020766709 -1253660010 1796350247 1316181884 -683086746 1225034719 1863091009 -953874843 13038123 935182410 -1410203294 -1165352635 -2093669188 -1800807711 558288952 870635532 1553700850 7487340 -1610533358 -1944809095 1494849563 1221566485 -742256892 423805263 -1312094423 -326220791 -1701845889 -1993904622 328590024
REM
CELL 1.54180   50.00000   50.00000   50.00000   90.00000   90.00000   90.00000
LATT -1
SFAC C  
C      1  0.5377760000000  0.4138020000000  0.5066470000000 1.0
C      1  0.5303580000000  0.4672640000000  0.4313150000000 1.0
C      1  0.4446280000000  0.4403080000000  0.4406430000000 1.0
C      1  0.5099040000000  0.5443790000000  0.4780790000000 1.0
C      1  0.5958980000000  0.5477710000000  0.5940530000000 1.0
C      1  0.3854640000000  0.4906270000000  0.5120440000000 1.0
C      1  0.5784270000000  0.4074600000000  0.5393070000000 1.0
C      1  0.4634280000000  0.4458360000000  0.5539610000000 1.0
C      1  0.5611990000000  0.4728770000000  0.5123900000000 1.0
C      1  0.4080420000000  0.4690110000000  0.4451450000000 1.0
C      1  0.5386720000000  0.5054400000000  0.5804690000000 1.0
C      1  0.5470450000000  0.4570310000000  0.5767830000000 1.0
C      1  0.4395590000000  0.4942490000000  0.4711700000000 1.0
C      1  0.4555200000000  0.4718410000000  0.4796490000000 1.0
C      1  0.3809350000000  0.4791530000000  0.4866730000000 1.0
C      1  0.4040470000000  0.5294700000000  0.5340840000000 1.0
C      1  0.4945030000000  0.6786610000000  0.5389260000000 1.0
C      1  0.5278590000000  0.5876230000000  0.4972580000000 1.0
C      1  0.5021170000000  0.4179290000000  0.4775990000000 1.0
C      1  0.4589940000000  0.4474730000000  0.4640160000000 1.0
C      1  0.4707080000000  0.4701860000000  0.5709340000000 1.0
C      1  0.5134530000000  0.5073210000000  0.5667310000000 1.0
C      1  0.5098480000000  0.4449740000000  0.5458040000000 1.0
C      1  0.4144240000000  0.5367850000000  0.4753040000000 1.0
C      1  0.3378860000000  0.5607070000000  0.4121360000000 1.0
C      1  0.5651930000000  0.5234190000000  0.4971770000000 1.0
C      1  0.5253650000000  0.4286040000000  0.4638920000000 1.0
C      1  0.4427250000000  0.4991760000000  0.4238710000000 1.0
C      1  0.5040420000000  0.4717630000000  0.5399460000000 1.0
C      1  0.4155380000000  0.5634790000000  0.4326200000000 1.0
C      1  0.5603850000000  0.4562140000000  0.4887370000000 1.0
C      1  0.5030760000000  0.6562880000000  0.5286510000000 1.0
C      1  0.5091290000000  0.4083860000000  0.5041320000000 1.0
C      1  0.5342950000000  0.5610630000000  0.4866440000000 1.0
C      1  0.4750730000000  0.5318610000000  0.5093750000000 1.0
C      1  0.4825980000000  0.5482820000000  0.4028090000000 1.0
C      1  0.5557510000000  0.5369830000000  0.4474970000000 1.0
C      1  0.5224820000000  0.4952980000000  0.4701230000000 1.0
C      1  0.3897020000000  0.5334130000000  0.4887530000000 1.0
C      1  0.4926460000000  0.5152650000000  0.5237500000000 1.0
C      1  0.6078030000000  0.4467430000000  0.5553200000000 1.0
C      1  0.5471510000000  0.5426810000000  0.5072740000000 1.0
C      1  0.4849600000000  0.5499520000000  0.4898440000000 1.0
C      1  0.4897080000000  0.4088230000000  0.5249320000000 1.0
C      1  0.5159380000000  0.5215680000000  0.4619670000000 1.0
C      1  0.4350670000000  0.5187020000000  0.4848300000000 1.0
C      1  0.5409720000000  0.4807910000000  0.4538030000000 1.0
C      1  0.5338320000000  0.5387810000000  0.5320380000000 1.0
C      1  0.3968750000000  0.4750590000000  0.5328130000000 1.0
C      1  0.4895250000000  0.5217560000000  0.4091520000000 1.0
C      1  0.5867590000000  0.4927250000000  0.4673350000000 1.0
C      1  0.5203530000000  0.6107550000000  0.5077310000000 1.0
C      1  0.6442700000000  0.5061720000000  0.5513730000000 1.0
C      1  0.3888970000000  0.5634510000000  0.4245090000000 1.0
C      1  0.4485450000000  0.4820600000000  0.5839220000000 1.0
C      1  0.4137800000000  0.4247480000000  0.5002150000000 1.0
C      1  0.5312690000000  0.4403520000000  0.5630710000000 1.0
C      1  0.4283470000000  0.4277770000000  0.5224170000000 1.0
C      1  0.5702050000000  0.5427900000000  0.5988650000000 1.0
C      1  0.4172650000000  0.4660450000000  0.5500980000000 1.0
C      1  0.4439900000000  0.5742450000000  0.4702300000000 1.0
C      1  0.6190940000000  0.5418560000000  0.5824850000000 1.0
C      1  0.4364380000000  0.4453630000000  0.5428240000000 1.0
C      1  0.5741030000000  0.4986490000000  0.5102830000000 1.0
C      1  0.6022940000000  0.5394780000000  0.4639510000000 1.0
C      1  0.4670870000000  0.5049950000000  0.4141710000000 1.0
C      1  0.4610690000000  0.5640530000000  0.4048110000000 1.0
C      1  0.3632090000000  0.5621440000000  0.4181600000000 1.0
C      1  0.5974030000000  0.4229080000000  0.5497410000000 1.0
C      1  0.5509100000000  0.5624110000000  0.4612510000000 1.0
C      1  0.5837070000000  0.4864530000000  0.5678830000000 1.0
C      1  0.5655260000000  0.4729640000000  0.4652770000000 1.0
C      1  0.4474980000000  0.5264320000000  0.5095140000000 1.0
C      1  0.5563210000000  0.4041080000000  0.5248920000000 1.0
C      1  0.4200860000000  0.4471210000000  0.4316240000000 1.0
C      1  0.6709240000000  0.5013850000000  0.5476170000000 1.0
C      1  0.4769620000000  0.4279890000000  0.4725040000000 1.0
C      1  0.4226520000000  0.5591090000000  0.4597740000000 1.0
C      1  0.5124550000000  0.5238570000000  0.5428360000000 1.0
C      1  0.4697260000000  0.4750940000000  0.5037640000000 1.0
C      1  0.3875550000000  0.5191380000000  0.5134190000000 1.0
C      1  0.5765520000000  0.5227660000000  0.4662400000000 1.0
C      1  0.5117900000000  0.6335390000000  0.5182030000000 1.0
C      1  0.6247090000000  0.4895620000000  0.5391790000000 1.0
C      1  0.4234890000000  0.4800160000000  0.5739250000000 1.0
C      1  0.5488560000000  0.5274580000000  0.5945680000000 1.0
C      1  0.5305000000000  0.5262680000000  0.4369500000000 1.0
C      1  0.4364120000000  0.5677920000000  0.4142540000000 1.0
C      1  0.4309150000000  0.5313240000000  0.5317850000000 1.0
C      1  0.6062370000000  0.4747950000000  0.5553260000000 1.0
C      1  0.6355880000000  0.5273560000000  0.5675460000000 1.0
C      1  0.3999410000000  0.4362690000000  0.4804270000000 1.0
C      1  0.5142100000000  0.4843750000000  0.4938310000000 1.0
C      1  0.6213760000000  0.4890900000000  0.5109920000000 1.0
C      1  0.5251980000000  0.4402870000000  0.4380680000000 1.0
C      1  0.5457180000000  0.4320950000000  0.4852150000000 1.0
C      1  0.5568020000000  0.4833980000000  0.5761410000000 1.0
C      1  0.4948910000000  0.4859820000000  0.5155410000000 1.0
C      1  0.3934270000000  0.4614090000000  0.4688700000000 1.0
C      1  0.4683110000000  0.5703660000000  0.4804680000000 1.0
C      1  0.4951140000000  0.4848820000000  0.5645110000000 1.0
C      1  0.4858610000000  0.4296490000000  0.5437230000000 1.0
C      1  0.5164740000000  0.5133050000000  0.4150660000000 1.0
C      1  0.5989780000000  0.4923470000000  0.4946570000000 1.0
C      1  0.4267750000000  0.4910390000000  0.4457980000000 1.0
C      1  0.5226560000000  0.4854730000000  0.4110970000000 1.0
END
