TITL C-3866676-3738-742 9631.98909186398 125000 -894.674092098964 0 0 146 (C1) n - 1
REM
REM in /home/nfs/bkarasulu/CARBON/AIRSS/Generating-Clusters/LCBOP/Only-C1/SD-CG/FIRE-CG
REM
REM
REM
REM
REM
REM ./C.cell (11c1c37f851c82e70ff6c80c92926a4b)
REM AIRSS Version 0.9.1 bugfix July 2018 build 013d7b7c2542+ Fri, 06 Jul 2018 19:26:36 +0100
REM compiler GCC version 9.2.1 20190827 (Red Hat 9.2.1-1)
REM options -cpp -mtune=generic -march=x86-64 -g -O0 -fpre-include=/usr/include/finclude/math-vector-fortran.h
REM seed -616845608 1383205337 1880571490 1032172675 -1414499137 200893005 651121624 -1101309939 -1317985361 -1698097151 -1169041381 -46948298 1443299742 -418187417 -1395935165 -579583795 2079242852 1849727058 -307986852 940963252 1545732364 -168889627 -784917222 820570818 -1704289240 -1255614565 -1305697512 -1676619678 1890328830 -1381233889 -1282270295 -1784236667 -1505615596
REM
CELL 1.54180   50.00000   50.00000   50.00000   90.00000   90.00000   90.00000
LATT -1
SFAC C  
C      1  0.4775250000000  0.5622200000000  0.4926610000000 1.0
C      1  0.3746550000000  0.4667110000000  0.5354110000000 1.0
C      1  0.4557960000000  0.5671490000000  0.4453640000000 1.0
C      1  0.6235560000000  0.4738460000000  0.5268120000000 1.0
C      1  0.4573740000000  0.5551140000000  0.5142930000000 1.0
C      1  0.5874940000000  0.5585840000000  0.5206040000000 1.0
C      1  0.4078140000000  0.5617000000000  0.5250800000000 1.0
C      1  0.4893150000000  0.6029660000000  0.5197360000000 1.0
C      1  0.5832060000000  0.6083670000000  0.4337550000000 1.0
C      1  0.5233180000000  0.4057120000000  0.5190140000000 1.0
C      1  0.4209370000000  0.5124390000000  0.5892210000000 1.0
C      1  0.4527350000000  0.3029430000000  0.4439050000000 1.0
C      1  0.4441460000000  0.5235920000000  0.4257850000000 1.0
C      1  0.4301030000000  0.5509080000000  0.5104090000000 1.0
C      1  0.5251040000000  0.5718240000000  0.5187530000000 1.0
C      1  0.5673790000000  0.6090700000000  0.3836840000000 1.0
C      1  0.6431410000000  0.4798320000000  0.4832020000000 1.0
C      1  0.5202470000000  0.4993840000000  0.3849360000000 1.0
C      1  0.4659050000000  0.5541850000000  0.3525680000000 1.0
C      1  0.5593290000000  0.4795820000000  0.4575100000000 1.0
C      1  0.5564110000000  0.6158180000000  0.5201200000000 1.0
C      1  0.5720260000000  0.5539550000000  0.4783620000000 1.0
C      1  0.4752810000000  0.5037990000000  0.5578840000000 1.0
C      1  0.4321960000000  0.4900970000000  0.5772750000000 1.0
C      1  0.4897270000000  0.6240400000000  0.5012030000000 1.0
C      1  0.4963810000000  0.5505660000000  0.6013060000000 1.0
C      1  0.4888800000000  0.6031720000000  0.5479110000000 1.0
C      1  0.5124220000000  0.4739420000000  0.4406040000000 1.0
C      1  0.5005030000000  0.4541430000000  0.4242060000000 1.0
C      1  0.5614040000000  0.5337120000000  0.4290930000000 1.0
C      1  0.4730560000000  0.4599360000000  0.4174430000000 1.0
C      1  0.4192370000000  0.4358250000000  0.4735730000000 1.0
C      1  0.5216550000000  0.4402880000000  0.4108100000000 1.0
C      1  0.5314310000000  0.5252390000000  0.4898200000000 1.0
C      1  0.4939700000000  0.4956010000000  0.3884110000000 1.0
C      1  0.5494100000000  0.4752660000000  0.5067500000000 1.0
C      1  0.4904380000000  0.4563380000000  0.5427460000000 1.0
C      1  0.4940080000000  0.4110010000000  0.5585380000000 1.0
C      1  0.6034810000000  0.6215720000000  0.4752180000000 1.0
C      1  0.5267290000000  0.5127670000000  0.5997150000000 1.0
C      1  0.4923690000000  0.4304520000000  0.6344660000000 1.0
C      1  0.4577150000000  0.5482080000000  0.4245670000000 1.0
C      1  0.5456070000000  0.4937070000000  0.3917830000000 1.0
C      1  0.4204070000000  0.4557740000000  0.5261730000000 1.0
C      1  0.5349340000000  0.4862440000000  0.6068610000000 1.0
C      1  0.4775360000000  0.4447010000000  0.5903330000000 1.0
C      1  0.4497370000000  0.4486840000000  0.5938100000000 1.0
C      1  0.4269850000000  0.4629840000000  0.5852470000000 1.0
C      1  0.5160870000000  0.4663550000000  0.6124190000000 1.0
C      1  0.5326330000000  0.4908840000000  0.5269730000000 1.0
C      1  0.4541690000000  0.4980440000000  0.4809760000000 1.0
C      1  0.4718680000000  0.4857240000000  0.4025050000000 1.0
C      1  0.5673630000000  0.5170170000000  0.5727770000000 1.0
C      1  0.3720820000000  0.4933250000000  0.4709160000000 1.0
C      1  0.5040140000000  0.5566670000000  0.4145700000000 1.0
C      1  0.4052380000000  0.4511170000000  0.5714140000000 1.0
C      1  0.6462100000000  0.4793380000000  0.5103710000000 1.0
C      1  0.5000130000000  0.6260880000000  0.4764550000000 1.0
C      1  0.4650540000000  0.5750780000000  0.4692530000000 1.0
C      1  0.4832900000000  0.5634610000000  0.6214250000000 1.0
C      1  0.3983930000000  0.4547450000000  0.5440880000000 1.0
C      1  0.4537940000000  0.4704390000000  0.4803710000000 1.0
C      1  0.5081690000000  0.5639410000000  0.5787500000000 1.0
C      1  0.5936450000000  0.5347220000000  0.4817500000000 1.0
C      1  0.5785070000000  0.5806120000000  0.4728440000000 1.0
C      1  0.4959230000000  0.4366880000000  0.4767790000000 1.0
C      1  0.5693010000000  0.4764430000000  0.4846220000000 1.0
C      1  0.4316620000000  0.4390370000000  0.4490250000000 1.0
C      1  0.4999350000000  0.5221140000000  0.6006720000000 1.0
C      1  0.5207230000000  0.5910780000000  0.4438450000000 1.0
C      1  0.4122540000000  0.5362170000000  0.5970330000000 1.0
C      1  0.5474790000000  0.4494420000000  0.4087000000000 1.0
C      1  0.4655900000000  0.3984730000000  0.4853070000000 1.0
C      1  0.5411790000000  0.4260310000000  0.5118750000000 1.0
C      1  0.4604300000000  0.3730920000000  0.4797650000000 1.0
C      1  0.5321280000000  0.4865550000000  0.4556890000000 1.0
C      1  0.5223570000000  0.5647120000000  0.4341140000000 1.0
C      1  0.4514930000000  0.2607960000000  0.4125030000000 1.0
C      1  0.3907640000000  0.5252320000000  0.5026130000000 1.0
C      1  0.4326230000000  0.5153000000000  0.4744530000000 1.0
C      1  0.4893840000000  0.5205370000000  0.5388070000000 1.0
C      1  0.5776290000000  0.5260060000000  0.5486550000000 1.0
C      1  0.6123850000000  0.4929140000000  0.5442470000000 1.0
C      1  0.4481090000000  0.4994220000000  0.4099730000000 1.0
C      1  0.3749440000000  0.5024040000000  0.4972890000000 1.0
C      1  0.5791620000000  0.4934270000000  0.5836770000000 1.0
C      1  0.4565780000000  0.4466810000000  0.4986900000000 1.0
C      1  0.6028170000000  0.4855910000000  0.5702170000000 1.0
C      1  0.4987020000000  0.5777010000000  0.5087750000000 1.0
C      1  0.4878350000000  0.4377130000000  0.5646670000000 1.0
C      1  0.4045790000000  0.5603700000000  0.6031410000000 1.0
C      1  0.4442000000000  0.4706350000000  0.5355410000000 1.0
C      1  0.4857830000000  0.5346200000000  0.4842180000000 1.0
C      1  0.5120710000000  0.6128260000000  0.4566160000000 1.0
C      1  0.5288830000000  0.5487000000000  0.5658670000000 1.0
C      1  0.5229790000000  0.5215340000000  0.5232420000000 1.0
C      1  0.4823130000000  0.5073240000000  0.5849470000000 1.0
C      1  0.4954090000000  0.4473990000000  0.6124270000000 1.0
C      1  0.4891510000000  0.4145160000000  0.6548330000000 1.0
C      1  0.4797530000000  0.5072510000000  0.4864450000000 1.0
C      1  0.5884950000000  0.6037960000000  0.4608320000000 1.0
C      1  0.5592310000000  0.4757810000000  0.4092020000000 1.0
C      1  0.4263040000000  0.4408400000000  0.5015330000000 1.0
C      1  0.5433770000000  0.5934600000000  0.5169240000000 1.0
C      1  0.6001540000000  0.5161150000000  0.5327920000000 1.0
C      1  0.5680090000000  0.4225740000000  0.5192280000000 1.0
C      1  0.6020290000000  0.5346290000000  0.5094300000000 1.0
C      1  0.5961990000000  0.4682030000000  0.4881930000000 1.0
C      1  0.5081600000000  0.4586060000000  0.4894130000000 1.0
C      1  0.5814710000000  0.5141340000000  0.4352980000000 1.0
C      1  0.4185490000000  0.5291940000000  0.4943820000000 1.0
C      1  0.3835340000000  0.5467300000000  0.5208830000000 1.0
C      1  0.3668600000000  0.4856690000000  0.5183030000000 1.0
C      1  0.5228790000000  0.5022380000000  0.4766540000000 1.0
C      1  0.3592010000000  0.5518130000000  0.5316800000000 1.0
C      1  0.4493810000000  0.4911810000000  0.5543470000000 1.0
C      1  0.4448910000000  0.4549120000000  0.4288410000000 1.0
C      1  0.5410290000000  0.5462690000000  0.4447230000000 1.0
C      1  0.4519840000000  0.2815310000000  0.4282980000000 1.0
C      1  0.4255020000000  0.5158950000000  0.4469840000000 1.0
C      1  0.5458020000000  0.5437880000000  0.4734040000000 1.0
C      1  0.4104500000000  0.4924230000000  0.4377700000000 1.0
C      1  0.5622510000000  0.4800980000000  0.6017830000000 1.0
C      1  0.4566480000000  0.3485630000000  0.4704730000000 1.0
C      1  0.4294430000000  0.4789310000000  0.4210160000000 1.0
C      1  0.4541660000000  0.3251850000000  0.4582420000000 1.0
C      1  0.5916190000000  0.4343250000000  0.5227230000000 1.0
C      1  0.5327550000000  0.4515730000000  0.5024380000000 1.0
C      1  0.4728750000000  0.5426750000000  0.5342920000000 1.0
C      1  0.5760110000000  0.6094450000000  0.4082790000000 1.0
C      1  0.4723850000000  0.4252710000000  0.4864070000000 1.0
C      1  0.3854550000000  0.4874410000000  0.4485890000000 1.0
C      1  0.5349070000000  0.5484330000000  0.5355780000000 1.0
C      1  0.5425770000000  0.5277530000000  0.5812030000000 1.0
C      1  0.4718730000000  0.5543040000000  0.3779350000000 1.0
C      1  0.5132110000000  0.4737990000000  0.5409300000000 1.0
C      1  0.4779680000000  0.5527680000000  0.4050660000000 1.0
C      1  0.5723050000000  0.4867740000000  0.4329580000000 1.0
C      1  0.4676930000000  0.4573440000000  0.5251520000000 1.0
C      1  0.5068880000000  0.3984720000000  0.5387560000000 1.0
C      1  0.6187850000000  0.4745490000000  0.4719760000000 1.0
C      1  0.6041050000000  0.4573910000000  0.5136940000000 1.0
C      1  0.5007730000000  0.4874460000000  0.4875590000000 1.0
C      1  0.4976240000000  0.5877650000000  0.5681400000000 1.0
C      1  0.5654520000000  0.5488220000000  0.5361580000000 1.0
C      1  0.5986900000000  0.5207910000000  0.4574830000000 1.0
END
