TITL C-3866670-4165-92 0.51461990437652 125000 -805.962486273752 0 0 133 (C1) n - 1
REM
REM in /home/nfs/bkarasulu/CARBON/AIRSS/Generating-Clusters/LCBOP/Only-C1/SD-CG/HFTN-CG/FIRE-CG
REM
REM
REM
REM
REM
REM ./C.cell (11c1c37f851c82e70ff6c80c92926a4b)
REM AIRSS Version 0.9.1 bugfix July 2018 build 013d7b7c2542+ Fri, 06 Jul 2018 19:26:36 +0100
REM compiler GCC version 9.2.1 20190827 (Red Hat 9.2.1-1)
REM options -cpp -mtune=generic -march=x86-64 -g -O0 -fpre-include=/usr/include/finclude/math-vector-fortran.h
REM seed 246954300 150502564 1977313457 1933259319 984463986 -1996104339 -2033514268 -57546746 -1044452162 519060498 1151780770 421928416 -373352384 651270758 1248134276 196092171 77252747 -1464699422 -138845317 -1701137593 389821148 -1609983470 1436803504 -1325436086 -582766114 915493478 -1799142185 1663499117 -1630643136 302354507 -1927979386 1977516060 -1496823700
REM
CELL 1.54180   50.00000   50.00000   50.00000   90.00000   90.00000   90.00000
LATT -1
SFAC C  
C      1  0.5347130000000  0.5089810000000  0.5908870000000 1.0
C      1  0.4511810000000  0.5863080000000  0.4999010000000 1.0
C      1  0.4767950000000  0.4371670000000  0.4431190000000 1.0
C      1  0.5463920000000  0.5707380000000  0.5228130000000 1.0
C      1  0.4154930000000  0.4527020000000  0.6090840000000 1.0
C      1  0.3706910000000  0.4251220000000  0.5720480000000 1.0
C      1  0.5323280000000  0.5987730000000  0.4305730000000 1.0
C      1  0.6086860000000  0.5019770000000  0.5386670000000 1.0
C      1  0.3897480000000  0.3606680000000  0.5439240000000 1.0
C      1  0.4475730000000  0.4573960000000  0.5166080000000 1.0
C      1  0.5572590000000  0.3877070000000  0.5250050000000 1.0
C      1  0.5679320000000  0.4878520000000  0.4740820000000 1.0
C      1  0.6650910000000  0.5575450000000  0.4375820000000 1.0
C      1  0.5287380000000  0.4475660000000  0.4987930000000 1.0
C      1  0.4790310000000  0.5518240000000  0.5188130000000 1.0
C      1  0.5037920000000  0.4296260000000  0.4375530000000 1.0
C      1  0.5631810000000  0.5247850000000  0.5101900000000 1.0
C      1  0.4417630000000  0.5596750000000  0.4917930000000 1.0
C      1  0.5070040000000  0.5833060000000  0.4398700000000 1.0
C      1  0.4421250000000  0.4480520000000  0.5665140000000 1.0
C      1  0.6060390000000  0.4671050000000  0.4551810000000 1.0
C      1  0.3984870000000  0.4604960000000  0.6281930000000 1.0
C      1  0.5230250000000  0.5828900000000  0.5103690000000 1.0
C      1  0.3530200000000  0.4519230000000  0.6132670000000 1.0
C      1  0.4985690000000  0.4097890000000  0.5657120000000 1.0
C      1  0.4546330000000  0.5281070000000  0.4215750000000 1.0
C      1  0.4989540000000  0.4545760000000  0.4983210000000 1.0
C      1  0.5815410000000  0.5059490000000  0.5789700000000 1.0
C      1  0.4075850000000  0.4348240000000  0.5388570000000 1.0
C      1  0.5195510000000  0.5548960000000  0.3969650000000 1.0
C      1  0.4182480000000  0.4444140000000  0.5826570000000 1.0
C      1  0.5576990000000  0.4985750000000  0.4181330000000 1.0
C      1  0.5372060000000  0.4939170000000  0.4370370000000 1.0
C      1  0.5512530000000  0.5703680000000  0.5759550000000 1.0
C      1  0.5605870000000  0.5113570000000  0.5352630000000 1.0
C      1  0.6436220000000  0.5427920000000  0.4385950000000 1.0
C      1  0.5976480000000  0.5141790000000  0.4419680000000 1.0
C      1  0.5214140000000  0.4791050000000  0.5321380000000 1.0
C      1  0.4767520000000  0.5263880000000  0.6033900000000 1.0
C      1  0.5717240000000  0.5625770000000  0.4781700000000 1.0
C      1  0.5102490000000  0.5005070000000  0.4372010000000 1.0
C      1  0.4628670000000  0.3791990000000  0.5454420000000 1.0
C      1  0.5353390000000  0.5487820000000  0.4201910000000 1.0
C      1  0.4918760000000  0.4984980000000  0.3914730000000 1.0
C      1  0.3717130000000  0.4609600000000  0.6303140000000 1.0
C      1  0.5872970000000  0.4472320000000  0.4583960000000 1.0
C      1  0.4935950000000  0.4742510000000  0.5220170000000 1.0
C      1  0.4451750000000  0.6010590000000  0.4526310000000 1.0
C      1  0.4990690000000  0.6207560000000  0.4742780000000 1.0
C      1  0.4576060000000  0.4580530000000  0.4400810000000 1.0
C      1  0.4158310000000  0.3567860000000  0.5407120000000 1.0
C      1  0.5049460000000  0.5937670000000  0.4677280000000 1.0
C      1  0.6216430000000  0.5280490000000  0.4397550000000 1.0
C      1  0.4756330000000  0.4792160000000  0.5849980000000 1.0
C      1  0.4609850000000  0.4744780000000  0.4160420000000 1.0
C      1  0.4691090000000  0.5469910000000  0.4388380000000 1.0
C      1  0.5154340000000  0.4005220000000  0.4743670000000 1.0
C      1  0.4649010000000  0.4794650000000  0.5252000000000 1.0
C      1  0.4254130000000  0.5078320000000  0.5216930000000 1.0
C      1  0.4584340000000  0.5928890000000  0.4304370000000 1.0
C      1  0.4730760000000  0.5358690000000  0.4659290000000 1.0
C      1  0.5542190000000  0.5095260000000  0.4871150000000 1.0
C      1  0.5395430000000  0.4423850000000  0.4731230000000 1.0
C      1  0.5609720000000  0.5066890000000  0.5962080000000 1.0
C      1  0.4860640000000  0.4277430000000  0.4997960000000 1.0
C      1  0.4966100000000  0.4700270000000  0.4734120000000 1.0
C      1  0.4942230000000  0.5442110000000  0.6135880000000 1.0
C      1  0.5170670000000  0.5583110000000  0.6125090000000 1.0
C      1  0.4436880000000  0.4686530000000  0.4638690000000 1.0
C      1  0.4866170000000  0.3933370000000  0.5446450000000 1.0
C      1  0.5348560000000  0.5010020000000  0.5436440000000 1.0
C      1  0.5269910000000  0.4065290000000  0.5612250000000 1.0
C      1  0.5063340000000  0.3912360000000  0.5231240000000 1.0
C      1  0.4440590000000  0.4973330000000  0.4664340000000 1.0
C      1  0.5229680000000  0.4232350000000  0.4582860000000 1.0
C      1  0.5326660000000  0.3943670000000  0.5355880000000 1.0
C      1  0.3699850000000  0.3766890000000  0.5516430000000 1.0
C      1  0.4412400000000  0.4551410000000  0.4888930000000 1.0
C      1  0.5173880000000  0.4065580000000  0.3968950000000 1.0
C      1  0.5941380000000  0.4928650000000  0.4602070000000 1.0
C      1  0.5373270000000  0.6586300000000  0.4739350000000 1.0
C      1  0.3629730000000  0.4002490000000  0.5617590000000 1.0
C      1  0.4859630000000  0.4314480000000  0.5777040000000 1.0
C      1  0.4217530000000  0.5426330000000  0.4809830000000 1.0
C      1  0.4499310000000  0.5106700000000  0.5616690000000 1.0
C      1  0.5328220000000  0.4663810000000  0.3882130000000 1.0
C      1  0.5799970000000  0.3834310000000  0.5130130000000 1.0
C      1  0.4237720000000  0.5168840000000  0.4716540000000 1.0
C      1  0.5627530000000  0.5460520000000  0.4291920000000 1.0
C      1  0.5169600000000  0.5740100000000  0.4847050000000 1.0
C      1  0.5002200000000  0.4029420000000  0.4981990000000 1.0
C      1  0.5048370000000  0.6411230000000  0.5515510000000 1.0
C      1  0.4706660000000  0.5078490000000  0.4646170000000 1.0
C      1  0.4482260000000  0.5009470000000  0.5352740000000 1.0
C      1  0.5100980000000  0.4294540000000  0.4098550000000 1.0
C      1  0.5575080000000  0.5925350000000  0.4401920000000 1.0
C      1  0.5623270000000  0.4582500000000  0.4680590000000 1.0
C      1  0.3540330000000  0.4387380000000  0.5900100000000 1.0
C      1  0.4749790000000  0.5819300000000  0.5182090000000 1.0
C      1  0.5749240000000  0.5204320000000  0.4259470000000 1.0
C      1  0.5123100000000  0.5602880000000  0.5523960000000 1.0
C      1  0.4736140000000  0.5089160000000  0.5793560000000 1.0
C      1  0.4937650000000  0.5653310000000  0.3987320000000 1.0
C      1  0.5686710000000  0.5672620000000  0.4493020000000 1.0
C      1  0.4518480000000  0.6066940000000  0.4797250000000 1.0
C      1  0.5313950000000  0.5236370000000  0.4777740000000 1.0
C      1  0.5391530000000  0.5672340000000  0.5999940000000 1.0
C      1  0.5389000000000  0.4587310000000  0.5223740000000 1.0
C      1  0.4412500000000  0.3642970000000  0.5418920000000 1.0
C      1  0.6303560000000  0.4977100000000  0.5248310000000 1.0
C      1  0.4676430000000  0.5450000000000  0.4924940000000 1.0
C      1  0.4843660000000  0.4713960000000  0.3975360000000 1.0
C      1  0.5079000000000  0.4543240000000  0.3962950000000 1.0
C      1  0.5635960000000  0.5540140000000  0.5054450000000 1.0
C      1  0.4724930000000  0.6258370000000  0.4821750000000 1.0
C      1  0.5019510000000  0.6190870000000  0.5379490000000 1.0
C      1  0.4931910000000  0.4927610000000  0.4581930000000 1.0
C      1  0.3964490000000  0.4347490000000  0.5655950000000 1.0
C      1  0.4925350000000  0.5422880000000  0.5426370000000 1.0
C      1  0.5840780000000  0.5065480000000  0.5509560000000 1.0
C      1  0.5222410000000  0.5491280000000  0.4710400000000 1.0
C      1  0.4950450000000  0.5196280000000  0.5606790000000 1.0
C      1  0.5014000000000  0.5119580000000  0.4129000000000 1.0
C      1  0.5214340000000  0.5108740000000  0.5662820000000 1.0
C      1  0.5534070000000  0.4828600000000  0.3949250000000 1.0
C      1  0.4501090000000  0.5016570000000  0.4159090000000 1.0
C      1  0.4679870000000  0.4530420000000  0.5772000000000 1.0
C      1  0.4999850000000  0.5958250000000  0.5228620000000 1.0
C      1  0.4810370000000  0.5736650000000  0.4257370000000 1.0
C      1  0.5182790000000  0.6408520000000  0.4735210000000 1.0
C      1  0.5398740000000  0.5668290000000  0.5505000000000 1.0
C      1  0.4347470000000  0.4443670000000  0.5380820000000 1.0
C      1  0.5200330000000  0.5556280000000  0.4435070000000 1.0
END
