TITL C-3866671-3735-507 0.0767676156370264 125000 -442.606061262866 0 0 75 (C1) n - 1
REM
REM in /home/nfs/bkarasulu/CARBON/AIRSS/Generating-Clusters/LCBOP/Only-C1/SD-CG/FIRE-CG
REM
REM
REM
REM
REM
REM ./C.cell (11c1c37f851c82e70ff6c80c92926a4b)
REM AIRSS Version 0.9.1 bugfix July 2018 build 013d7b7c2542+ Fri, 06 Jul 2018 19:26:36 +0100
REM compiler GCC version 9.2.1 20190827 (Red Hat 9.2.1-1)
REM options -cpp -mtune=generic -march=x86-64 -g -O0 -fpre-include=/usr/include/finclude/math-vector-fortran.h
REM seed 7781578 -1620566309 -435465829 985547747 -1490177566 -2123311419 -773578538 -1433725006 185782733 -1592829273 1511377394 -1935651693 1900773475 -420725606 -857908774 -1271543382 1394383149 1206202169 273874261 -109383960 -254244259 -1880321093 287696885 -2093289148 338435735 -314835432 -844252680 -339484739 1968949689 1442215363 -770812204 -1761474020 1457049451
REM
CELL 1.54180   50.00000   50.00000   50.00000   90.00000   90.00000   90.00000
LATT -1
SFAC C  
C      1  0.4872810000000  0.5584530000000  0.3642950000000 1.0
C      1  0.4576080000000  0.5513890000000  0.5786160000000 1.0
C      1  0.4753970000000  0.5309000000000  0.6183140000000 1.0
C      1  0.4178020000000  0.4600160000000  0.5572340000000 1.0
C      1  0.5761550000000  0.4530800000000  0.4681850000000 1.0
C      1  0.4413650000000  0.5556860000000  0.5581390000000 1.0
C      1  0.5064560000000  0.5785680000000  0.4043010000000 1.0
C      1  0.6590890000000  0.5569560000000  0.4303850000000 1.0
C      1  0.3954300000000  0.4897290000000  0.5238330000000 1.0
C      1  0.4703720000000  0.4976820000000  0.4942290000000 1.0
C      1  0.5130350000000  0.4606730000000  0.5555310000000 1.0
C      1  0.5985460000000  0.5477880000000  0.4803990000000 1.0
C      1  0.5323350000000  0.5476980000000  0.3794130000000 1.0
C      1  0.4532580000000  0.4345740000000  0.5881840000000 1.0
C      1  0.4483170000000  0.4124310000000  0.6376300000000 1.0
C      1  0.5561710000000  0.5248290000000  0.4909810000000 1.0
C      1  0.5012520000000  0.5647060000000  0.5952260000000 1.0
C      1  0.4362430000000  0.4667500000000  0.5124680000000 1.0
C      1  0.4154590000000  0.4713250000000  0.5319110000000 1.0
C      1  0.4647790000000  0.5423080000000  0.3608190000000 1.0
C      1  0.4713260000000  0.4493330000000  0.4370480000000 1.0
C      1  0.4776670000000  0.4332530000000  0.5745640000000 1.0
C      1  0.5189700000000  0.5597780000000  0.5742230000000 1.0
C      1  0.5189590000000  0.5296860000000  0.5355480000000 1.0
C      1  0.3985610000000  0.5059340000000  0.5022110000000 1.0
C      1  0.5448580000000  0.4717010000000  0.4041670000000 1.0
C      1  0.4139250000000  0.5707880000000  0.5159610000000 1.0
C      1  0.5545230000000  0.5616290000000  0.5403520000000 1.0
C      1  0.4925130000000  0.4044100000000  0.5204690000000 1.0
C      1  0.5335180000000  0.5328810000000  0.4753580000000 1.0
C      1  0.5579200000000  0.4122650000000  0.5281160000000 1.0
C      1  0.5514760000000  0.5050100000000  0.5108820000000 1.0
C      1  0.5083810000000  0.4144430000000  0.5412730000000 1.0
C      1  0.4843350000000  0.4022070000000  0.4952540000000 1.0
C      1  0.4217580000000  0.5054660000000  0.4879920000000 1.0
C      1  0.4436030000000  0.4889760000000  0.4958090000000 1.0
C      1  0.5092650000000  0.4675110000000  0.4887800000000 1.0
C      1  0.6391650000000  0.5539440000000  0.4469260000000 1.0
C      1  0.4731880000000  0.4263440000000  0.4502810000000 1.0
C      1  0.5763740000000  0.5442060000000  0.4967420000000 1.0
C      1  0.5133990000000  0.5477210000000  0.3597460000000 1.0
C      1  0.4602780000000  0.4902150000000  0.4131100000000 1.0
C      1  0.4270620000000  0.5624010000000  0.5368580000000 1.0
C      1  0.5664640000000  0.4265680000000  0.5073160000000 1.0
C      1  0.5306800000000  0.5507500000000  0.5506980000000 1.0
C      1  0.4746840000000  0.4769260000000  0.4329390000000 1.0
C      1  0.4524170000000  0.5217040000000  0.3723740000000 1.0
C      1  0.5287220000000  0.5264600000000  0.4482830000000 1.0
C      1  0.5355240000000  0.4072710000000  0.5417400000000 1.0
C      1  0.5719370000000  0.5593330000000  0.5201310000000 1.0
C      1  0.4781220000000  0.4098370000000  0.4705400000000 1.0
C      1  0.5322620000000  0.4542080000000  0.4881900000000 1.0
C      1  0.4469240000000  0.4419010000000  0.5091010000000 1.0
C      1  0.5129070000000  0.5450900000000  0.4904710000000 1.0
C      1  0.5008910000000  0.5351700000000  0.5140910000000 1.0
C      1  0.4517560000000  0.5035940000000  0.3918330000000 1.0
C      1  0.4459990000000  0.4018050000000  0.6613230000000 1.0
C      1  0.4314770000000  0.4473660000000  0.5761480000000 1.0
C      1  0.4930260000000  0.4904660000000  0.4501950000000 1.0
C      1  0.5261510000000  0.4822300000000  0.5471970000000 1.0
C      1  0.5586890000000  0.4447700000000  0.4874560000000 1.0
C      1  0.4903060000000  0.4852610000000  0.4781540000000 1.0
C      1  0.4506740000000  0.4232300000000  0.6135510000000 1.0
C      1  0.5062220000000  0.5852460000000  0.6134630000000 1.0
C      1  0.5321110000000  0.4860370000000  0.4218020000000 1.0
C      1  0.5339080000000  0.5457210000000  0.4285880000000 1.0
C      1  0.5273450000000  0.5590930000000  0.4051310000000 1.0
C      1  0.6189060000000  0.5508820000000  0.4637420000000 1.0
C      1  0.5333090000000  0.5049160000000  0.5326870000000 1.0
C      1  0.5105750000000  0.6043140000000  0.6306850000000 1.0
C      1  0.4995750000000  0.4361110000000  0.5574940000000 1.0
C      1  0.4778460000000  0.5487440000000  0.5977260000000 1.0
C      1  0.4875180000000  0.5785480000000  0.3846360000000 1.0
C      1  0.5175600000000  0.5013770000000  0.4402500000000 1.0
C      1  0.4781390000000  0.5194230000000  0.5103030000000 1.0
END
