TITL C-3866670-4165-38 6806.00971833142 125000 -1130.29192066638 0 0 187 (C1) n - 1
REM
REM in /home/nfs/bkarasulu/CARBON/AIRSS/Generating-Clusters/LCBOP/Only-C1/SD-CG/HFTN-CG/FIRE-CG
REM
REM
REM
REM
REM
REM ./C.cell (11c1c37f851c82e70ff6c80c92926a4b)
REM AIRSS Version 0.9.1 bugfix July 2018 build 013d7b7c2542+ Fri, 06 Jul 2018 19:26:36 +0100
REM compiler GCC version 9.2.1 20190827 (Red Hat 9.2.1-1)
REM options -cpp -mtune=generic -march=x86-64 -g -O0 -fpre-include=/usr/include/finclude/math-vector-fortran.h
REM seed -2015830806 -1289774394 911756069 -383865316 -1854488716 2074477915 -308602256 530058845 -392411913 1404730482 456192742 1131887626 -1389626296 1256125802 751121875 2089314425 931699059 -442543492 453568635 561162858 -812327491 -1009139525 -495041111 -980644739 767920926 905204382 -296200992 -1373951075 2089411935 67120005 -2062345584 -1812847280 -752588906
REM
CELL 1.54180   50.00000   50.00000   50.00000   90.00000   90.00000   90.00000
LATT -1
SFAC C  
C      1  0.4615970000000  0.5280220000000  0.4305880000000 1.0
C      1  0.5082920000000  0.5472650000000  0.4455930000000 1.0
C      1  0.5325680000000  0.3991530000000  0.5553120000000 1.0
C      1  0.4087950000000  0.3714910000000  0.4707820000000 1.0
C      1  0.4677330000000  0.4425930000000  0.5300470000000 1.0
C      1  0.4909250000000  0.4765830000000  0.3835480000000 1.0
C      1  0.4338700000000  0.4131280000000  0.4651350000000 1.0
C      1  0.4921980000000  0.4558790000000  0.5413120000000 1.0
C      1  0.5538170000000  0.4686440000000  0.4392890000000 1.0
C      1  0.5303980000000  0.4677560000000  0.6076940000000 1.0
C      1  0.4497080000000  0.4151150000000  0.6034550000000 1.0
C      1  0.3912350000000  0.4708930000000  0.4916080000000 1.0
C      1  0.5464820000000  0.4555400000000  0.4152830000000 1.0
C      1  0.6380460000000  0.4617130000000  0.4679990000000 1.0
C      1  0.3993080000000  0.5324780000000  0.4802960000000 1.0
C      1  0.4468510000000  0.5465260000000  0.4132700000000 1.0
C      1  0.5766410000000  0.5053550000000  0.5046010000000 1.0
C      1  0.4962150000000  0.4093760000000  0.5842710000000 1.0
C      1  0.4388510000000  0.4406330000000  0.5972970000000 1.0
C      1  0.6049590000000  0.5768680000000  0.4492030000000 1.0
C      1  0.4563630000000  0.4988230000000  0.4266950000000 1.0
C      1  0.4925860000000  0.4869010000000  0.5374090000000 1.0
C      1  0.5639980000000  0.4955120000000  0.3847540000000 1.0
C      1  0.3899930000000  0.4584250000000  0.5403710000000 1.0
C      1  0.5094130000000  0.5299450000000  0.4950290000000 1.0
C      1  0.4530330000000  0.5296020000000  0.4607250000000 1.0
C      1  0.5064800000000  0.4583360000000  0.6163020000000 1.0
C      1  0.3859010000000  0.4775800000000  0.5188920000000 1.0
C      1  0.5126320000000  0.5841500000000  0.5170230000000 1.0
C      1  0.4287960000000  0.3883490000000  0.4784790000000 1.0
C      1  0.4873490000000  0.5311220000000  0.6110020000000 1.0
C      1  0.5417600000000  0.4273530000000  0.4141890000000 1.0
C      1  0.4884180000000  0.4858360000000  0.5070030000000 1.0
C      1  0.4860870000000  0.5721680000000  0.5130740000000 1.0
C      1  0.5491210000000  0.3831360000000  0.5418870000000 1.0
C      1  0.4360640000000  0.5169540000000  0.6025210000000 1.0
C      1  0.5202890000000  0.5221200000000  0.3803940000000 1.0
C      1  0.4855840000000  0.5012000000000  0.4652330000000 1.0
C      1  0.4586400000000  0.5804910000000  0.5199510000000 1.0
C      1  0.6246240000000  0.4457210000000  0.4847070000000 1.0
C      1  0.4365210000000  0.4925430000000  0.5280370000000 1.0
C      1  0.5363540000000  0.5263190000000  0.5026770000000 1.0
C      1  0.4551150000000  0.5699450000000  0.5975840000000 1.0
C      1  0.5330250000000  0.4311430000000  0.5089360000000 1.0
C      1  0.5790730000000  0.5269990000000  0.4858840000000 1.0
C      1  0.5586330000000  0.5445510000000  0.3972280000000 1.0
C      1  0.5147060000000  0.4185920000000  0.5653150000000 1.0
C      1  0.4553170000000  0.3960440000000  0.5228010000000 1.0
C      1  0.4922880000000  0.5311930000000  0.4278680000000 1.0
C      1  0.3977290000000  0.5258460000000  0.5085940000000 1.0
C      1  0.5087820000000  0.5977890000000  0.4244540000000 1.0
C      1  0.5039580000000  0.4664000000000  0.4909750000000 1.0
C      1  0.5032180000000  0.4999350000000  0.3784840000000 1.0
C      1  0.4873160000000  0.5483980000000  0.4970090000000 1.0
C      1  0.4857990000000  0.5030710000000  0.6079690000000 1.0
C      1  0.5433320000000  0.5768580000000  0.4499200000000 1.0
C      1  0.4276540000000  0.5727870000000  0.5889760000000 1.0
C      1  0.5466010000000  0.4895520000000  0.5985070000000 1.0
C      1  0.5686160000000  0.3767370000000  0.5248200000000 1.0
C      1  0.5284880000000  0.5937790000000  0.4947400000000 1.0
C      1  0.4431160000000  0.5978720000000  0.5022420000000 1.0
C      1  0.5638510000000  0.4336920000000  0.5270370000000 1.0
C      1  0.5136350000000  0.4453270000000  0.5548060000000 1.0
C      1  0.4987470000000  0.5976880000000  0.5785790000000 1.0
C      1  0.5475090000000  0.5940070000000  0.4728980000000 1.0
C      1  0.3779080000000  0.4644180000000  0.4470320000000 1.0
C      1  0.5151770000000  0.5362480000000  0.6029670000000 1.0
C      1  0.5921040000000  0.5027220000000  0.4335120000000 1.0
C      1  0.4512850000000  0.5117020000000  0.5133990000000 1.0
C      1  0.4381280000000  0.4676920000000  0.4850420000000 1.0
C      1  0.3939160000000  0.4296500000000  0.5372100000000 1.0
C      1  0.6081000000000  0.4867850000000  0.4125590000000 1.0
C      1  0.4943240000000  0.6634030000000  0.5396890000000 1.0
C      1  0.4556620000000  0.4543260000000  0.5035140000000 1.0
C      1  0.3818320000000  0.4845920000000  0.4677800000000 1.0
C      1  0.6497950000000  0.5314740000000  0.5343090000000 1.0
C      1  0.5260690000000  0.5765920000000  0.5411810000000 1.0
C      1  0.6146540000000  0.5834930000000  0.4946040000000 1.0
C      1  0.4484350000000  0.6240220000000  0.5159560000000 1.0
C      1  0.5824930000000  0.4152730000000  0.3923460000000 1.0
C      1  0.4453130000000  0.4602130000000  0.3881500000000 1.0
C      1  0.5885170000000  0.3831990000000  0.5082010000000 1.0
C      1  0.6181030000000  0.5553420000000  0.4980380000000 1.0
C      1  0.4118120000000  0.5137580000000  0.5854800000000 1.0
C      1  0.4460480000000  0.3825710000000  0.4999630000000 1.0
C      1  0.5282940000000  0.4131920000000  0.4342820000000 1.0
C      1  0.4927030000000  0.4208410000000  0.4726280000000 1.0
C      1  0.5266890000000  0.5327420000000  0.5556020000000 1.0
C      1  0.5506060000000  0.4714340000000  0.3920670000000 1.0
C      1  0.4036140000000  0.4634410000000  0.5663890000000 1.0
C      1  0.5521910000000  0.5371460000000  0.4794330000000 1.0
C      1  0.4606860000000  0.5436940000000  0.5438950000000 1.0
C      1  0.4728550000000  0.4579050000000  0.3949520000000 1.0
C      1  0.4607950000000  0.4158140000000  0.4559110000000 1.0
C      1  0.4162390000000  0.5410300000000  0.5249210000000 1.0
C      1  0.5546680000000  0.4122050000000  0.3936800000000 1.0
C      1  0.5801960000000  0.4644900000000  0.5638560000000 1.0
C      1  0.4105740000000  0.5600120000000  0.4768300000000 1.0
C      1  0.4228990000000  0.5712480000000  0.5609790000000 1.0
C      1  0.5848280000000  0.5399060000000  0.5668090000000 1.0
C      1  0.4884020000000  0.5910260000000  0.4413980000000 1.0
C      1  0.4519660000000  0.4629320000000  0.6113650000000 1.0
C      1  0.4439270000000  0.5832510000000  0.5456700000000 1.0
C      1  0.5117940000000  0.4072730000000  0.4544050000000 1.0
C      1  0.4424730000000  0.4902860000000  0.6138010000000 1.0
C      1  0.4135690000000  0.4547110000000  0.4834710000000 1.0
C      1  0.4564830000000  0.6038890000000  0.5606150000000 1.0
C      1  0.5712000000000  0.5552610000000  0.5468720000000 1.0
C      1  0.5009030000000  0.4165970000000  0.5027780000000 1.0
C      1  0.5831390000000  0.5442850000000  0.4099720000000 1.0
C      1  0.4203180000000  0.5849370000000  0.3891840000000 1.0
C      1  0.4474230000000  0.4809470000000  0.5504560000000 1.0
C      1  0.5367120000000  0.5635720000000  0.4015560000000 1.0
C      1  0.4769490000000  0.4865850000000  0.4425620000000 1.0
C      1  0.4734070000000  0.4044000000000  0.5970290000000 1.0
C      1  0.6030230000000  0.5526010000000  0.5830260000000 1.0
C      1  0.3920940000000  0.4406790000000  0.4452100000000 1.0
C      1  0.4780580000000  0.4447210000000  0.4199640000000 1.0
C      1  0.5495290000000  0.5020720000000  0.5142830000000 1.0
C      1  0.4256600000000  0.4744820000000  0.4001020000000 1.0
C      1  0.5136430000000  0.5090180000000  0.5460350000000 1.0
C      1  0.4354100000000  0.4002150000000  0.5429200000000 1.0
C      1  0.4160380000000  0.4184720000000  0.5526480000000 1.0
C      1  0.5356140000000  0.5155700000000  0.6065100000000 1.0
C      1  0.3773790000000  0.5147850000000  0.5508300000000 1.0
C      1  0.6349650000000  0.5439590000000  0.5168930000000 1.0
C      1  0.4704130000000  0.5502540000000  0.4731590000000 1.0
C      1  0.6029150000000  0.5399670000000  0.4791470000000 1.0
C      1  0.5180140000000  0.5497420000000  0.5784950000000 1.0
C      1  0.5838710000000  0.5772210000000  0.5364180000000 1.0
C      1  0.6359380000000  0.4890220000000  0.4241070000000 1.0
C      1  0.4606850000000  0.5424720000000  0.6065090000000 1.0
C      1  0.6056910000000  0.4566010000000  0.4108190000000 1.0
C      1  0.4435240000000  0.4944690000000  0.4743080000000 1.0
C      1  0.6009470000000  0.4325900000000  0.4006140000000 1.0
C      1  0.4951060000000  0.4509650000000  0.4681090000000 1.0
C      1  0.4621670000000  0.6262400000000  0.5426690000000 1.0
C      1  0.6046200000000  0.5483940000000  0.4519230000000 1.0
C      1  0.4866880000000  0.6392360000000  0.5496360000000 1.0
C      1  0.4864970000000  0.4605280000000  0.4422200000000 1.0
C      1  0.5151860000000  0.5769860000000  0.5688220000000 1.0
C      1  0.5998980000000  0.5931980000000  0.4722230000000 1.0
C      1  0.4093070000000  0.5073780000000  0.4359950000000 1.0
C      1  0.4335280000000  0.5655480000000  0.4005450000000 1.0
C      1  0.5800530000000  0.5126570000000  0.5711600000000 1.0
C      1  0.6009050000000  0.4598020000000  0.5434940000000 1.0
C      1  0.4676870000000  0.5004030000000  0.4906420000000 1.0
C      1  0.4709270000000  0.5916770000000  0.5837880000000 1.0
C      1  0.4127110000000  0.4334110000000  0.4639820000000 1.0
C      1  0.3947560000000  0.5101720000000  0.4606990000000 1.0
C      1  0.5025220000000  0.6242150000000  0.5682220000000 1.0
C      1  0.5087890000000  0.5131320000000  0.4717810000000 1.0
C      1  0.4779610000000  0.5414950000000  0.5626340000000 1.0
C      1  0.4442470000000  0.5363890000000  0.5229810000000 1.0
C      1  0.5596180000000  0.4474910000000  0.5532780000000 1.0
C      1  0.4654030000000  0.4210110000000  0.4285840000000 1.0
C      1  0.5712080000000  0.4881260000000  0.4457460000000 1.0
C      1  0.5739450000000  0.6037350000000  0.4756070000000 1.0
C      1  0.4810480000000  0.4918320000000  0.5843260000000 1.0
C      1  0.4242430000000  0.5827590000000  0.4855510000000 1.0
C      1  0.5927530000000  0.4952550000000  0.3873400000000 1.0
C      1  0.5384830000000  0.4771430000000  0.5231930000000 1.0
C      1  0.5950170000000  0.5313320000000  0.4317870000000 1.0
C      1  0.4717350000000  0.4921680000000  0.5583620000000 1.0
C      1  0.5361130000000  0.5497520000000  0.4575070000000 1.0
C      1  0.4267010000000  0.4421170000000  0.5696690000000 1.0
C      1  0.4873680000000  0.5663590000000  0.4550910000000 1.0
C      1  0.5435110000000  0.5523480000000  0.5416270000000 1.0
C      1  0.5146720000000  0.5500770000000  0.3871880000000 1.0
C      1  0.6075000000000  0.4304980000000  0.5009640000000 1.0
C      1  0.4289780000000  0.4932200000000  0.4208470000000 1.0
C      1  0.5407620000000  0.3963130000000  0.3764280000000 1.0
C      1  0.5491110000000  0.5197970000000  0.3848870000000 1.0
C      1  0.4473940000000  0.4525680000000  0.5505840000000 1.0
C      1  0.4084450000000  0.5499050000000  0.5508300000000 1.0
C      1  0.3967630000000  0.5294560000000  0.5664900000000 1.0
C      1  0.3832420000000  0.5058560000000  0.5242020000000 1.0
C      1  0.5699560000000  0.4874750000000  0.5796560000000 1.0
C      1  0.5360340000000  0.4616430000000  0.5486190000000 1.0
C      1  0.4036180000000  0.4861040000000  0.5828830000000 1.0
C      1  0.4771440000000  0.4150420000000  0.5205140000000 1.0
C      1  0.4794940000000  0.4575580000000  0.6191350000000 1.0
C      1  0.5283220000000  0.4589020000000  0.5030150000000 1.0
C      1  0.5333490000000  0.5830140000000  0.4230010000000 1.0
C      1  0.6038100000000  0.4026870000000  0.4979850000000 1.0
C      1  0.6442200000000  0.4773970000000  0.4471480000000 1.0
C      1  0.5918950000000  0.4419950000000  0.5215720000000 1.0
END
