TITL C-3866675-3766-651 0.059407959604366 125000 -774.756184198828 0 0 128 (C1) n - 1
REM
REM in /home/nfs/bkarasulu/CARBON/AIRSS/Generating-Clusters/LCBOP/Only-C1/SD-CG/FIRE-CG
REM
REM
REM
REM
REM
REM ./C.cell (11c1c37f851c82e70ff6c80c92926a4b)
REM AIRSS Version 0.9.1 bugfix July 2018 build 013d7b7c2542+ Fri, 06 Jul 2018 19:26:36 +0100
REM compiler GCC version 9.2.1 20190827 (Red Hat 9.2.1-1)
REM options -cpp -mtune=generic -march=x86-64 -g -O0 -fpre-include=/usr/include/finclude/math-vector-fortran.h
REM seed 662394242 -1439390836 -1349999787 877835161 -302731381 -132092449 670545844 -2060018401 825844000 -1488765016 -162103874 -976628715 -110465378 901072418 1952737959 1439777314 1688240361 1571907373 -1070363116 67737228 -69178785 -2045823060 -293203569 -1672309894 -495260074 820298174 66575063 1903779263 1877574596 1004475748 -638153144 -93767622 725697132
REM
CELL 1.54180   50.00000   50.00000   50.00000   90.00000   90.00000   90.00000
LATT -1
SFAC C  
C      1  0.4840390000000  0.3742360000000  0.5424620000000 1.0
C      1  0.5735640000000  0.4532840000000  0.5103900000000 1.0
C      1  0.3906950000000  0.4705450000000  0.5568200000000 1.0
C      1  0.5468800000000  0.4243150000000  0.5660330000000 1.0
C      1  0.4619410000000  0.4693260000000  0.5111530000000 1.0
C      1  0.5218520000000  0.5326400000000  0.4217530000000 1.0
C      1  0.4729300000000  0.4435900000000  0.5079620000000 1.0
C      1  0.4488090000000  0.4780690000000  0.5346030000000 1.0
C      1  0.4399330000000  0.4616470000000  0.5806220000000 1.0
C      1  0.4901470000000  0.4474770000000  0.4313840000000 1.0
C      1  0.4912860000000  0.5715340000000  0.5773310000000 1.0
C      1  0.5439320000000  0.4677160000000  0.4578920000000 1.0
C      1  0.5604140000000  0.5379330000000  0.4505000000000 1.0
C      1  0.4035650000000  0.5192130000000  0.5636490000000 1.0
C      1  0.5382190000000  0.5567630000000  0.4917760000000 1.0
C      1  0.4611290000000  0.5712760000000  0.5385160000000 1.0
C      1  0.5584550000000  0.6073190000000  0.4697140000000 1.0
C      1  0.4925810000000  0.5210690000000  0.4928220000000 1.0
C      1  0.5110510000000  0.4065040000000  0.4801120000000 1.0
C      1  0.4736550000000  0.5092540000000  0.4746400000000 1.0
C      1  0.4002600000000  0.5443030000000  0.5497370000000 1.0
C      1  0.4810920000000  0.4683420000000  0.4452760000000 1.0
C      1  0.5171910000000  0.4325290000000  0.4913800000000 1.0
C      1  0.3684890000000  0.5041560000000  0.5323530000000 1.0
C      1  0.5081000000000  0.5217600000000  0.3987370000000 1.0
C      1  0.5007060000000  0.4379700000000  0.5150770000000 1.0
C      1  0.5141840000000  0.5307660000000  0.5417970000000 1.0
C      1  0.4330010000000  0.5153890000000  0.5634170000000 1.0
C      1  0.3857790000000  0.4984100000000  0.5545660000000 1.0
C      1  0.5141660000000  0.5664250000000  0.4785030000000 1.0
C      1  0.5039980000000  0.5677440000000  0.3787890000000 1.0
C      1  0.4989490000000  0.4225100000000  0.4347230000000 1.0
C      1  0.4954050000000  0.4046590000000  0.4559130000000 1.0
C      1  0.4696120000000  0.3930240000000  0.4586790000000 1.0
C      1  0.6185750000000  0.5306600000000  0.5254620000000 1.0
C      1  0.5453620000000  0.5577110000000  0.5789920000000 1.0
C      1  0.6109080000000  0.5431320000000  0.5477890000000 1.0
C      1  0.5663890000000  0.4938860000000  0.5606560000000 1.0
C      1  0.5932340000000  0.5562100000000  0.5631970000000 1.0
C      1  0.5671620000000  0.5124520000000  0.5822450000000 1.0
C      1  0.5663230000000  0.4322430000000  0.4327720000000 1.0
C      1  0.5037650000000  0.4323220000000  0.5436060000000 1.0
C      1  0.4286180000000  0.5209700000000  0.4895030000000 1.0
C      1  0.3873500000000  0.4756030000000  0.4664420000000 1.0
C      1  0.5674980000000  0.4556740000000  0.4477860000000 1.0
C      1  0.4674480000000  0.5993670000000  0.5453980000000 1.0
C      1  0.5207030000000  0.5759330000000  0.4522300000000 1.0
C      1  0.4464990000000  0.4567000000000  0.5544660000000 1.0
C      1  0.4513370000000  0.5349620000000  0.5733520000000 1.0
C      1  0.5190140000000  0.5683830000000  0.5859030000000 1.0
C      1  0.4590660000000  0.3966960000000  0.5065730000000 1.0
C      1  0.4523840000000  0.3920930000000  0.4794760000000 1.0
C      1  0.4924510000000  0.4985650000000  0.3979330000000 1.0
C      1  0.5041550000000  0.5218600000000  0.5667440000000 1.0
C      1  0.4676400000000  0.5567400000000  0.5648960000000 1.0
C      1  0.5059090000000  0.5396620000000  0.3767140000000 1.0
C      1  0.5251790000000  0.4567380000000  0.4776340000000 1.0
C      1  0.4926740000000  0.5944580000000  0.5592770000000 1.0
C      1  0.5628250000000  0.5757030000000  0.5328010000000 1.0
C      1  0.5714700000000  0.6070630000000  0.4932170000000 1.0
C      1  0.6084700000000  0.4388850000000  0.5387750000000 1.0
C      1  0.4926960000000  0.6248460000000  0.5138150000000 1.0
C      1  0.3909130000000  0.4516060000000  0.5374050000000 1.0
C      1  0.5121420000000  0.5879530000000  0.5390350000000 1.0
C      1  0.4010140000000  0.5079050000000  0.4108040000000 1.0
C      1  0.6005230000000  0.4449870000000  0.5125130000000 1.0
C      1  0.5426930000000  0.5617160000000  0.5187690000000 1.0
C      1  0.5195550000000  0.5186100000000  0.5901460000000 1.0
C      1  0.3951620000000  0.4550670000000  0.4489110000000 1.0
C      1  0.4316700000000  0.5246350000000  0.5169580000000 1.0
C      1  0.6170960000000  0.4999530000000  0.4824520000000 1.0
C      1  0.4824830000000  0.3815570000000  0.5152820000000 1.0
C      1  0.4158520000000  0.5465730000000  0.5273880000000 1.0
C      1  0.4114670000000  0.4489220000000  0.4286020000000 1.0
C      1  0.5405320000000  0.5107670000000  0.4803180000000 1.0
C      1  0.5495690000000  0.4931770000000  0.5367390000000 1.0
C      1  0.5922640000000  0.4679070000000  0.4537050000000 1.0
C      1  0.5193860000000  0.4613490000000  0.5780550000000 1.0
C      1  0.5668790000000  0.5664180000000  0.5601370000000 1.0
C      1  0.5240480000000  0.4399070000000  0.5616600000000 1.0
C      1  0.3778140000000  0.4720490000000  0.4932850000000 1.0
C      1  0.5597230000000  0.3857790000000  0.4091500000000 1.0
C      1  0.5524580000000  0.5368820000000  0.4782040000000 1.0
C      1  0.3652870000000  0.4933850000000  0.5076660000000 1.0
C      1  0.5271200000000  0.5091310000000  0.5271330000000 1.0
C      1  0.5921410000000  0.4451620000000  0.5609860000000 1.0
C      1  0.4940160000000  0.6004750000000  0.3373110000000 1.0
C      1  0.3867580000000  0.4513810000000  0.5106410000000 1.0
C      1  0.4477230000000  0.5176360000000  0.4687270000000 1.0
C      1  0.5175550000000  0.5044950000000  0.4986790000000 1.0
C      1  0.6113420000000  0.4739640000000  0.4734460000000 1.0
C      1  0.4401380000000  0.5050910000000  0.5370610000000 1.0
C      1  0.4114270000000  0.5087730000000  0.4360360000000 1.0
C      1  0.5845320000000  0.4721460000000  0.5640140000000 1.0
C      1  0.4988680000000  0.5846150000000  0.3574140000000 1.0
C      1  0.3960240000000  0.5019020000000  0.4591480000000 1.0
C      1  0.4508700000000  0.5347540000000  0.4231700000000 1.0
C      1  0.4805970000000  0.4200140000000  0.5567210000000 1.0
C      1  0.4711580000000  0.4830010000000  0.3937650000000 1.0
C      1  0.5456930000000  0.5297900000000  0.5866850000000 1.0
C      1  0.4688560000000  0.6205610000000  0.5266210000000 1.0
C      1  0.5192610000000  0.5590550000000  0.5348410000000 1.0
C      1  0.5397990000000  0.5971180000000  0.4531800000000 1.0
C      1  0.4375240000000  0.5197960000000  0.4418200000000 1.0
C      1  0.4827190000000  0.3924200000000  0.5625100000000 1.0
C      1  0.5076750000000  0.4783370000000  0.4851490000000 1.0
C      1  0.5161810000000  0.5612400000000  0.4279570000000 1.0
C      1  0.4018580000000  0.5190140000000  0.4806440000000 1.0
C      1  0.5104620000000  0.5079140000000  0.6134220000000 1.0
C      1  0.5733470000000  0.4260500000000  0.5694010000000 1.0
C      1  0.5141780000000  0.6088080000000  0.5194440000000 1.0
C      1  0.5433440000000  0.5193530000000  0.4352770000000 1.0
C      1  0.4554710000000  0.4226060000000  0.5182460000000 1.0
C      1  0.6171840000000  0.4529150000000  0.4914970000000 1.0
C      1  0.4887060000000  0.5673120000000  0.4918260000000 1.0
C      1  0.5056390000000  0.3856700000000  0.4991080000000 1.0
C      1  0.4496230000000  0.4677310000000  0.3977660000000 1.0
C      1  0.4552150000000  0.4300640000000  0.5468630000000 1.0
C      1  0.5880300000000  0.5120870000000  0.6000620000000 1.0
C      1  0.4848520000000  0.4838910000000  0.4678780000000 1.0
C      1  0.6194200000000  0.5180020000000  0.5019940000000 1.0
C      1  0.4301320000000  0.4545170000000  0.4103430000000 1.0
C      1  0.5747180000000  0.5963830000000  0.5177600000000 1.0
C      1  0.5414500000000  0.4963960000000  0.4544740000000 1.0
C      1  0.4703340000000  0.5647140000000  0.5119390000000 1.0
C      1  0.5636520000000  0.4089010000000  0.4205300000000 1.0
C      1  0.5079330000000  0.5764990000000  0.4053100000000 1.0
C      1  0.5568290000000  0.4720000000000  0.5192800000000 1.0
END
