TITL C-3866671-3735-98 0.50099520594212 125000 -644.275260000621 0 0 106 (C1) n - 1
REM
REM in /home/nfs/bkarasulu/CARBON/AIRSS/Generating-Clusters/LCBOP/Only-C1/SD-CG/HFTN-CG/FIRE-CG
REM
REM
REM
REM
REM
REM ./C.cell (11c1c37f851c82e70ff6c80c92926a4b)
REM AIRSS Version 0.9.1 bugfix July 2018 build 013d7b7c2542+ Fri, 06 Jul 2018 19:26:36 +0100
REM compiler GCC version 9.2.1 20190827 (Red Hat 9.2.1-1)
REM options -cpp -mtune=generic -march=x86-64 -g -O0 -fpre-include=/usr/include/finclude/math-vector-fortran.h
REM seed -919390849 -2118868729 1344212672 2024751484 133479925 -107479425 -718788089 282573120 2079546686 505686988 -1170092065 2046801660 -236172819 -406817080 -536424744 -415972083 -1674047981 365113177 682603526 -389290133 -1104841233 -374773076 1925552798 2065716382 -2080823562 -223251366 -1229860712 -2036837544 147478023 -1900329528 182125563 -1585279530 -1282389308
REM
CELL 1.54180   50.00000   50.00000   50.00000   90.00000   90.00000   90.00000
LATT -1
SFAC C  
C      1  0.4302650000000  0.5574140000000  0.4524810000000 1.0
C      1  0.4752360000000  0.4217530000000  0.5280960000000 1.0
C      1  0.5418480000000  0.5667600000000  0.5585970000000 1.0
C      1  0.4711380000000  0.4868640000000  0.4691350000000 1.0
C      1  0.6148330000000  0.4774110000000  0.4754920000000 1.0
C      1  0.4615490000000  0.4083780000000  0.5477670000000 1.0
C      1  0.4995920000000  0.4366340000000  0.5341980000000 1.0
C      1  0.4696370000000  0.5138170000000  0.4640430000000 1.0
C      1  0.4779410000000  0.5994570000000  0.4649100000000 1.0
C      1  0.4254400000000  0.5587140000000  0.4800900000000 1.0
C      1  0.4810150000000  0.5665300000000  0.5500590000000 1.0
C      1  0.4419530000000  0.5145070000000  0.5783560000000 1.0
C      1  0.5289800000000  0.5065610000000  0.5969770000000 1.0
C      1  0.5170920000000  0.4430330000000  0.5121740000000 1.0
C      1  0.5502030000000  0.4815870000000  0.3748550000000 1.0
C      1  0.5027980000000  0.4280890000000  0.4716530000000 1.0
C      1  0.4968610000000  0.5824140000000  0.4526700000000 1.0
C      1  0.3987950000000  0.6031320000000  0.5600340000000 1.0
C      1  0.4371670000000  0.4589740000000  0.5388870000000 1.0
C      1  0.4573080000000  0.5979050000000  0.4821590000000 1.0
C      1  0.5407200000000  0.4272050000000  0.5062550000000 1.0
C      1  0.4959650000000  0.5848440000000  0.6087040000000 1.0
C      1  0.5115970000000  0.3889540000000  0.4973300000000 1.0
C      1  0.5253450000000  0.4683370000000  0.4209940000000 1.0
C      1  0.5384530000000  0.5315100000000  0.5957470000000 1.0
C      1  0.5391530000000  0.5114320000000  0.5331070000000 1.0
C      1  0.5023300000000  0.4267060000000  0.4439110000000 1.0
C      1  0.4796720000000  0.5217990000000  0.5133320000000 1.0
C      1  0.5264480000000  0.5697130000000  0.5368630000000 1.0
C      1  0.4963380000000  0.4679380000000  0.4208820000000 1.0
C      1  0.5244990000000  0.5885950000000  0.4490570000000 1.0
C      1  0.4293360000000  0.4518700000000  0.4904130000000 1.0
C      1  0.4542500000000  0.5268520000000  0.5231220000000 1.0
C      1  0.6271070000000  0.4652130000000  0.4539480000000 1.0
C      1  0.4199390000000  0.5050190000000  0.5635530000000 1.0
C      1  0.5558450000000  0.5545310000000  0.4703800000000 1.0
C      1  0.4075920000000  0.5811250000000  0.5491800000000 1.0
C      1  0.4944040000000  0.4974200000000  0.5094360000000 1.0
C      1  0.5380690000000  0.4430410000000  0.5641770000000 1.0
C      1  0.5407650000000  0.4618260000000  0.4437170000000 1.0
C      1  0.4520600000000  0.4707050000000  0.4560580000000 1.0
C      1  0.4896400000000  0.4778360000000  0.4887890000000 1.0
C      1  0.5386120000000  0.4749500000000  0.3972320000000 1.0
C      1  0.4251460000000  0.5345920000000  0.5242310000000 1.0
C      1  0.5093890000000  0.4449150000000  0.5593870000000 1.0
C      1  0.4106840000000  0.4935160000000  0.4649190000000 1.0
C      1  0.5491390000000  0.4679210000000  0.5735710000000 1.0
C      1  0.5486230000000  0.5780320000000  0.4560410000000 1.0
C      1  0.4731220000000  0.4761290000000  0.5757370000000 1.0
C      1  0.4610540000000  0.4451000000000  0.4512050000000 1.0
C      1  0.4917750000000  0.4059780000000  0.4863530000000 1.0
C      1  0.5250810000000  0.4817410000000  0.5846930000000 1.0
C      1  0.4768530000000  0.5117400000000  0.6109630000000 1.0
C      1  0.4503810000000  0.4316560000000  0.4834240000000 1.0
C      1  0.4835020000000  0.4909870000000  0.4095560000000 1.0
C      1  0.6011750000000  0.5098390000000  0.5072860000000 1.0
C      1  0.5005670000000  0.4683500000000  0.5751440000000 1.0
C      1  0.4679910000000  0.4875920000000  0.3865260000000 1.0
C      1  0.5330210000000  0.5398050000000  0.4781320000000 1.0
C      1  0.6095410000000  0.5054000000000  0.4784770000000 1.0
C      1  0.6047870000000  0.4640770000000  0.4992290000000 1.0
C      1  0.5605180000000  0.4387760000000  0.4892580000000 1.0
C      1  0.6566640000000  0.4289490000000  0.3902160000000 1.0
C      1  0.4102010000000  0.4911920000000  0.5139720000000 1.0
C      1  0.4735790000000  0.5342380000000  0.4423450000000 1.0
C      1  0.4849100000000  0.5371830000000  0.6149230000000 1.0
C      1  0.4175730000000  0.5590790000000  0.5383890000000 1.0
C      1  0.5861840000000  0.5345970000000  0.5060170000000 1.0
C      1  0.5805940000000  0.5438510000000  0.4785780000000 1.0
C      1  0.4375730000000  0.5818560000000  0.4912410000000 1.0
C      1  0.5076690000000  0.6069670000000  0.6159630000000 1.0
C      1  0.6372300000000  0.4530870000000  0.4326880000000 1.0
C      1  0.4232830000000  0.4651430000000  0.5151680000000 1.0
C      1  0.4353790000000  0.4808370000000  0.3458680000000 1.0
C      1  0.4260970000000  0.4701690000000  0.4676840000000 1.0
C      1  0.4687290000000  0.4168060000000  0.5001330000000 1.0
C      1  0.4946700000000  0.5454670000000  0.5071580000000 1.0
C      1  0.4517540000000  0.4841310000000  0.3658830000000 1.0
C      1  0.5447240000000  0.5531700000000  0.5814320000000 1.0
C      1  0.4916730000000  0.5544630000000  0.4570040000000 1.0
C      1  0.4445560000000  0.5406590000000  0.4351560000000 1.0
C      1  0.4277810000000  0.5200950000000  0.4248020000000 1.0
C      1  0.4081830000000  0.5076600000000  0.4893090000000 1.0
C      1  0.5038440000000  0.4526600000000  0.4882220000000 1.0
C      1  0.5529640000000  0.4499110000000  0.4642940000000 1.0
C      1  0.4836370000000  0.4446770000000  0.4330880000000 1.0
C      1  0.4630450000000  0.4987300000000  0.5899970000000 1.0
C      1  0.4166120000000  0.5353930000000  0.4946240000000 1.0
C      1  0.6010680000000  0.4838570000000  0.5203340000000 1.0
C      1  0.4104190000000  0.5050980000000  0.4391890000000 1.0
C      1  0.5056990000000  0.5454940000000  0.4809590000000 1.0
C      1  0.5687910000000  0.4837260000000  0.5602330000000 1.0
C      1  0.4702800000000  0.5591830000000  0.5750250000000 1.0
C      1  0.4844850000000  0.5611650000000  0.5998170000000 1.0
C      1  0.5920260000000  0.4766570000000  0.5460000000000 1.0
C      1  0.5585180000000  0.5083730000000  0.5510650000000 1.0
C      1  0.4132140000000  0.5090700000000  0.5365450000000 1.0
C      1  0.5983200000000  0.5267890000000  0.4629720000000 1.0
C      1  0.5197240000000  0.4982950000000  0.5209450000000 1.0
C      1  0.5001630000000  0.5628250000000  0.5293840000000 1.0
C      1  0.5870290000000  0.4425980000000  0.4974970000000 1.0
C      1  0.4479570000000  0.5420570000000  0.5762360000000 1.0
C      1  0.6470310000000  0.4409180000000  0.4112770000000 1.0
C      1  0.4546190000000  0.4630920000000  0.5587110000000 1.0
C      1  0.5354080000000  0.3991280000000  0.5060930000000 1.0
C      1  0.4860060000000  0.5172080000000  0.4206130000000 1.0
END
