TITL C-3866670-4165-747 0.271509192419401 125000 -915.128276782312 0 0 150 (C1) n - 1
REM
REM in /home/nfs/bkarasulu/CARBON/AIRSS/Generating-Clusters/LCBOP/Only-C1/SD-CG/FIRE-CG
REM
REM
REM
REM
REM
REM ./C.cell (11c1c37f851c82e70ff6c80c92926a4b)
REM AIRSS Version 0.9.1 bugfix July 2018 build 013d7b7c2542+ Fri, 06 Jul 2018 19:26:36 +0100
REM compiler GCC version 9.2.1 20190827 (Red Hat 9.2.1-1)
REM options -cpp -mtune=generic -march=x86-64 -g -O0 -fpre-include=/usr/include/finclude/math-vector-fortran.h
REM seed -285560196 1061493451 -493863272 1889712725 59897496 -407398901 -1478519899 -805216062 -277321231 2052437000 630066211 734251880 26100721 -155145887 1219183431 1637922080 -1095151980 794632831 -1619238907 -1405215759 1459292408 285795634 -128389487 -614127342 -1296481783 -1998915882 -1830515291 481998071 -436788948 -247544552 1045657458 -1707139188 -1633042016
REM
CELL 1.54180   50.00000   50.00000   50.00000   90.00000   90.00000   90.00000
LATT -1
SFAC C  
C      1  0.4568720000000  0.4314530000000  0.4182780000000 1.0
C      1  0.5670980000000  0.3993840000000  0.4697860000000 1.0
C      1  0.5298620000000  0.5940560000000  0.5210760000000 1.0
C      1  0.5049970000000  0.5984810000000  0.4703060000000 1.0
C      1  0.3984510000000  0.5756560000000  0.4807950000000 1.0
C      1  0.4733460000000  0.3947430000000  0.5842220000000 1.0
C      1  0.5018300000000  0.5918990000000  0.5176990000000 1.0
C      1  0.4780440000000  0.5421370000000  0.4924870000000 1.0
C      1  0.5023870000000  0.3904820000000  0.5074390000000 1.0
C      1  0.6121610000000  0.5491460000000  0.4845520000000 1.0
C      1  0.5124420000000  0.5288290000000  0.4605220000000 1.0
C      1  0.5307300000000  0.3965030000000  0.5449840000000 1.0
C      1  0.4292460000000  0.4856890000000  0.5553920000000 1.0
C      1  0.5225050000000  0.5500010000000  0.6076380000000 1.0
C      1  0.4344830000000  0.5012580000000  0.4087170000000 1.0
C      1  0.4690810000000  0.4555300000000  0.5559640000000 1.0
C      1  0.4592280000000  0.4844610000000  0.5574750000000 1.0
C      1  0.6270580000000  0.5234380000000  0.4865440000000 1.0
C      1  0.3697760000000  0.5215600000000  0.3853030000000 1.0
C      1  0.4766690000000  0.4906590000000  0.3865040000000 1.0
C      1  0.5596310000000  0.4472960000000  0.5486770000000 1.0
C      1  0.4545060000000  0.3975710000000  0.5126310000000 1.0
C      1  0.4429990000000  0.4894900000000  0.6527680000000 1.0
C      1  0.5472200000000  0.5340410000000  0.4219260000000 1.0
C      1  0.5285110000000  0.4874480000000  0.5410030000000 1.0
C      1  0.4011180000000  0.5501620000000  0.4931990000000 1.0
C      1  0.4880010000000  0.5784330000000  0.4299550000000 1.0
C      1  0.5905190000000  0.5173280000000  0.4612860000000 1.0
C      1  0.5756160000000  0.4929180000000  0.5621210000000 1.0
C      1  0.5769160000000  0.5636510000000  0.4503220000000 1.0
C      1  0.4467690000000  0.4173950000000  0.5317220000000 1.0
C      1  0.4564030000000  0.4149200000000  0.5785690000000 1.0
C      1  0.4543010000000  0.4821350000000  0.4027770000000 1.0
C      1  0.4963040000000  0.4518440000000  0.5587520000000 1.0
C      1  0.4721430000000  0.5011640000000  0.5351270000000 1.0
C      1  0.5953780000000  0.5602420000000  0.5051030000000 1.0
C      1  0.5495510000000  0.3736370000000  0.6119600000000 1.0
C      1  0.5195500000000  0.5148630000000  0.5432970000000 1.0
C      1  0.4475440000000  0.6416960000000  0.4564890000000 1.0
C      1  0.5810370000000  0.4052130000000  0.4923350000000 1.0
C      1  0.4472650000000  0.4007430000000  0.4851590000000 1.0
C      1  0.5611790000000  0.5105570000000  0.4122550000000 1.0
C      1  0.4514590000000  0.6292090000000  0.4798850000000 1.0
C      1  0.4972760000000  0.5457300000000  0.6146780000000 1.0
C      1  0.5708330000000  0.5846160000000  0.4688590000000 1.0
C      1  0.4513330000000  0.6372350000000  0.4303620000000 1.0
C      1  0.5783870000000  0.5211080000000  0.5679470000000 1.0
C      1  0.4864420000000  0.4644920000000  0.4330750000000 1.0
C      1  0.5667880000000  0.4601280000000  0.4822150000000 1.0
C      1  0.5899600000000  0.4686240000000  0.5236850000000 1.0
C      1  0.5816750000000  0.4412300000000  0.5298000000000 1.0
C      1  0.4519620000000  0.5771340000000  0.5741410000000 1.0
C      1  0.5496440000000  0.4956880000000  0.4542860000000 1.0
C      1  0.4978170000000  0.5508700000000  0.4707810000000 1.0
C      1  0.5604210000000  0.5779520000000  0.4070470000000 1.0
C      1  0.4937800000000  0.4899800000000  0.4426970000000 1.0
C      1  0.3833890000000  0.5076880000000  0.5435680000000 1.0
C      1  0.4778640000000  0.3825340000000  0.5190460000000 1.0
C      1  0.5614310000000  0.4878730000000  0.4294280000000 1.0
C      1  0.5941550000000  0.4230620000000  0.5104980000000 1.0
C      1  0.4536730000000  0.4312950000000  0.5554960000000 1.0
C      1  0.5649320000000  0.5109320000000  0.4720930000000 1.0
C      1  0.5058700000000  0.5061420000000  0.4210940000000 1.0
C      1  0.5972430000000  0.5352900000000  0.5510170000000 1.0
C      1  0.4130990000000  0.4575610000000  0.7186430000000 1.0
C      1  0.5476930000000  0.4007140000000  0.4509540000000 1.0
C      1  0.5784460000000  0.4654880000000  0.4331850000000 1.0
C      1  0.6192200000000  0.4332650000000  0.5004630000000 1.0
C      1  0.4911940000000  0.3801410000000  0.5680010000000 1.0
C      1  0.4801740000000  0.3696340000000  0.5440600000000 1.0
C      1  0.4764240000000  0.4117860000000  0.4258610000000 1.0
C      1  0.5193750000000  0.3851660000000  0.5682840000000 1.0
C      1  0.4711990000000  0.5786760000000  0.5538570000000 1.0
C      1  0.4279040000000  0.5375870000000  0.4876210000000 1.0
C      1  0.4678440000000  0.4423050000000  0.4744390000000 1.0
C      1  0.4977950000000  0.5750430000000  0.4559780000000 1.0
C      1  0.5539000000000  0.5357020000000  0.5679770000000 1.0
C      1  0.5861890000000  0.4485780000000  0.4133340000000 1.0
C      1  0.5543530000000  0.6061300000000  0.4617000000000 1.0
C      1  0.5077970000000  0.4486070000000  0.4199180000000 1.0
C      1  0.4873030000000  0.5456890000000  0.5214930000000 1.0
C      1  0.3930550000000  0.5227480000000  0.3969600000000 1.0
C      1  0.4228690000000  0.5699920000000  0.4389450000000 1.0
C      1  0.5554800000000  0.5893090000000  0.5146700000000 1.0
C      1  0.4634900000000  0.5114170000000  0.6074260000000 1.0
C      1  0.5729120000000  0.4793270000000  0.5038120000000 1.0
C      1  0.4530180000000  0.5002000000000  0.6307120000000 1.0
C      1  0.5962440000000  0.5453760000000  0.4596760000000 1.0
C      1  0.4894070000000  0.6018470000000  0.4938580000000 1.0
C      1  0.5639200000000  0.3683530000000  0.6330610000000 1.0
C      1  0.4753740000000  0.5958370000000  0.4140870000000 1.0
C      1  0.5428710000000  0.4440040000000  0.4851050000000 1.0
C      1  0.5756960000000  0.5800770000000  0.4970320000000 1.0
C      1  0.5219840000000  0.4009010000000  0.4392840000000 1.0
C      1  0.4455520000000  0.4278910000000  0.4776620000000 1.0
C      1  0.5976160000000  0.4831610000000  0.5463730000000 1.0
C      1  0.3935120000000  0.5070370000000  0.4806550000000 1.0
C      1  0.4771060000000  0.5114060000000  0.4880890000000 1.0
C      1  0.4217330000000  0.5817760000000  0.4647900000000 1.0
C      1  0.5195260000000  0.4802740000000  0.5152530000000 1.0
C      1  0.4243060000000  0.5481740000000  0.4233360000000 1.0
C      1  0.5053100000000  0.4207190000000  0.4249280000000 1.0
C      1  0.4229560000000  0.4680880000000  0.6969250000000 1.0
C      1  0.4944190000000  0.4415540000000  0.4737480000000 1.0
C      1  0.4303040000000  0.5937630000000  0.5743460000000 1.0
C      1  0.4998390000000  0.5014650000000  0.4702760000000 1.0
C      1  0.4461310000000  0.5810720000000  0.4806340000000 1.0
C      1  0.5253950000000  0.4029930000000  0.5180330000000 1.0
C      1  0.6267870000000  0.4543400000000  0.4851060000000 1.0
C      1  0.4329790000000  0.4787900000000  0.6748430000000 1.0
C      1  0.5421200000000  0.5475390000000  0.5899630000000 1.0
C      1  0.5143450000000  0.4814060000000  0.4876600000000 1.0
C      1  0.6136390000000  0.5020090000000  0.4716180000000 1.0
C      1  0.5869540000000  0.5422300000000  0.5253280000000 1.0
C      1  0.5863330000000  0.4623980000000  0.4606480000000 1.0
C      1  0.6119940000000  0.4733190000000  0.4700480000000 1.0
C      1  0.5516180000000  0.4757580000000  0.5549710000000 1.0
C      1  0.3560110000000  0.6088400000000  0.4865830000000 1.0
C      1  0.5617850000000  0.5279610000000  0.5200110000000 1.0
C      1  0.4611000000000  0.4597580000000  0.4198750000000 1.0
C      1  0.4639790000000  0.4957070000000  0.5080990000000 1.0
C      1  0.3821810000000  0.5280920000000  0.4973610000000 1.0
C      1  0.3767490000000  0.5926070000000  0.4837120000000 1.0
C      1  0.4925830000000  0.5217180000000  0.5369000000000 1.0
C      1  0.3730850000000  0.5211300000000  0.5228430000000 1.0
C      1  0.4556430000000  0.5578590000000  0.5940920000000 1.0
C      1  0.5167410000000  0.4654270000000  0.3982350000000 1.0
C      1  0.4510800000000  0.5539310000000  0.4883900000000 1.0
C      1  0.5283710000000  0.6120960000000  0.4636580000000 1.0
C      1  0.4559070000000  0.3842120000000  0.4637430000000 1.0
C      1  0.4042690000000  0.4946380000000  0.5537560000000 1.0
C      1  0.5613210000000  0.5586230000000  0.4265650000000 1.0
C      1  0.5419600000000  0.5319100000000  0.5419210000000 1.0
C      1  0.5037050000000  0.4915200000000  0.3963060000000 1.0
C      1  0.3356020000000  0.6248120000000  0.4894160000000 1.0
C      1  0.4662480000000  0.4961190000000  0.5841800000000 1.0
C      1  0.4713850000000  0.5386500000000  0.6068850000000 1.0
C      1  0.5389460000000  0.4227000000000  0.5034290000000 1.0
C      1  0.5349380000000  0.3790490000000  0.5905340000000 1.0
C      1  0.4875030000000  0.5720840000000  0.5322530000000 1.0
C      1  0.4178920000000  0.5240970000000  0.4099270000000 1.0
C      1  0.5212870000000  0.5276080000000  0.4324830000000 1.0
C      1  0.4612390000000  0.6041420000000  0.4883360000000 1.0
C      1  0.4203320000000  0.5121650000000  0.4761060000000 1.0
C      1  0.5640350000000  0.5066920000000  0.5003640000000 1.0
C      1  0.5026490000000  0.3803320000000  0.4467830000000 1.0
C      1  0.4749800000000  0.3882560000000  0.4433540000000 1.0
C      1  0.4446380000000  0.4773300000000  0.5026570000000 1.0
C      1  0.5182580000000  0.4555020000000  0.4768390000000 1.0
C      1  0.4618320000000  0.6188870000000  0.4139620000000 1.0
END
