TITL C-3866669-3764-409 20.0362294572752 125000 -624.321504585227 0 0 103 (C1) n - 1
REM
REM in /home/nfs/bkarasulu/CARBON/AIRSS/Generating-Clusters/LCBOP/Only-C1/SD-CG/FIRE-CG
REM
REM
REM
REM
REM
REM ./C.cell (11c1c37f851c82e70ff6c80c92926a4b)
REM AIRSS Version 0.9.1 bugfix July 2018 build 013d7b7c2542+ Fri, 06 Jul 2018 19:26:36 +0100
REM compiler GCC version 9.2.1 20190827 (Red Hat 9.2.1-1)
REM options -cpp -mtune=generic -march=x86-64 -g -O0 -fpre-include=/usr/include/finclude/math-vector-fortran.h
REM seed 1359275206 -2872059 571182214 2095853846 1796849596 -1954276160 446112189 65356698 -103829709 737159139 1263777009 -1693519701 1887357371 587186800 -847662118 -651543242 -932874208 -1936408712 -1460680806 641011964 900738856 1482557011 -1550993811 -64092677 167810009 428847079 1562360127 1109989046 -895952347 632390443 -687085336 -780180221 316118890
REM
CELL 1.54180   50.00000   50.00000   50.00000   90.00000   90.00000   90.00000
LATT -1
SFAC C  
C      1  0.4623630000000  0.4658610000000  0.5890650000000 1.0
C      1  0.4453350000000  0.4249300000000  0.4456900000000 1.0
C      1  0.4915860000000  0.4298880000000  0.4238630000000 1.0
C      1  0.5128030000000  0.6029590000000  0.4425300000000 1.0
C      1  0.5999160000000  0.5197780000000  0.5764420000000 1.0
C      1  0.4969100000000  0.4534940000000  0.4857670000000 1.0
C      1  0.5296150000000  0.5985440000000  0.5426590000000 1.0
C      1  0.3671880000000  0.5384620000000  0.4649950000000 1.0
C      1  0.4451320000000  0.4905430000000  0.4093300000000 1.0
C      1  0.5553250000000  0.4359820000000  0.4942470000000 1.0
C      1  0.5328350000000  0.5521480000000  0.4438490000000 1.0
C      1  0.4575810000000  0.5812930000000  0.4989380000000 1.0
C      1  0.5735750000000  0.4155120000000  0.4957590000000 1.0
C      1  0.5243090000000  0.5245470000000  0.4445280000000 1.0
C      1  0.4335370000000  0.3558390000000  0.4673740000000 1.0
C      1  0.5040780000000  0.4762390000000  0.5055880000000 1.0
C      1  0.4694610000000  0.4854260000000  0.4207310000000 1.0
C      1  0.5876940000000  0.4831840000000  0.4190380000000 1.0
C      1  0.4091810000000  0.5624730000000  0.5439600000000 1.0
C      1  0.4879410000000  0.5235070000000  0.4967510000000 1.0
C      1  0.4269950000000  0.4463340000000  0.4483090000000 1.0
C      1  0.4479030000000  0.4310810000000  0.5108780000000 1.0
C      1  0.5204110000000  0.4091810000000  0.5343230000000 1.0
C      1  0.4644450000000  0.5483150000000  0.5656470000000 1.0
C      1  0.5418390000000  0.5363280000000  0.5152400000000 1.0
C      1  0.5625830000000  0.4886430000000  0.5729040000000 1.0
C      1  0.5115660000000  0.6063850000000  0.4690320000000 1.0
C      1  0.4550520000000  0.4884740000000  0.5737960000000 1.0
C      1  0.4410610000000  0.5109760000000  0.5845160000000 1.0
C      1  0.4366320000000  0.5625390000000  0.4987810000000 1.0
C      1  0.4263790000000  0.5123040000000  0.5263760000000 1.0
C      1  0.5434720000000  0.4457510000000  0.5183120000000 1.0
C      1  0.5582040000000  0.4905440000000  0.5179830000000 1.0
C      1  0.5237130000000  0.5392680000000  0.4014120000000 1.0
C      1  0.4258460000000  0.3309320000000  0.4670460000000 1.0
C      1  0.5298640000000  0.5538960000000  0.5739710000000 1.0
C      1  0.5605320000000  0.4601200000000  0.5767970000000 1.0
C      1  0.3918430000000  0.5304270000000  0.4675650000000 1.0
C      1  0.5782600000000  0.4737260000000  0.4428390000000 1.0
C      1  0.5123130000000  0.6033580000000  0.3940860000000 1.0
C      1  0.5544170000000  0.5906340000000  0.5015230000000 1.0
C      1  0.4639710000000  0.5232660000000  0.4816120000000 1.0
C      1  0.4528770000000  0.5146210000000  0.5346700000000 1.0
C      1  0.5528780000000  0.5634120000000  0.4594250000000 1.0
C      1  0.4627090000000  0.4188930000000  0.4903860000000 1.0
C      1  0.4881900000000  0.4565010000000  0.5837080000000 1.0
C      1  0.5402390000000  0.4282170000000  0.5407940000000 1.0
C      1  0.4165620000000  0.5516410000000  0.5674550000000 1.0
C      1  0.5192400000000  0.4875360000000  0.4128320000000 1.0
C      1  0.4905210000000  0.4259230000000  0.4932270000000 1.0
C      1  0.4179730000000  0.5222130000000  0.4717430000000 1.0
C      1  0.4392110000000  0.5386750000000  0.4835820000000 1.0
C      1  0.5076700000000  0.4636560000000  0.5670910000000 1.0
C      1  0.5491480000000  0.4465460000000  0.4689950000000 1.0
C      1  0.4019240000000  0.5032900000000  0.5248070000000 1.0
C      1  0.4653670000000  0.4236950000000  0.4257690000000 1.0
C      1  0.5317100000000  0.4734440000000  0.5222330000000 1.0
C      1  0.5063220000000  0.5028370000000  0.4888200000000 1.0
C      1  0.5523580000000  0.4618900000000  0.4453030000000 1.0
C      1  0.5556790000000  0.5148490000000  0.5043960000000 1.0
C      1  0.5880310000000  0.4982470000000  0.5645830000000 1.0
C      1  0.4639160000000  0.4913200000000  0.5463250000000 1.0
C      1  0.5074990000000  0.5998380000000  0.4963570000000 1.0
C      1  0.5938350000000  0.4750130000000  0.4666040000000 1.0
C      1  0.4196930000000  0.4709740000000  0.4563600000000 1.0
C      1  0.5081420000000  0.5583740000000  0.5912470000000 1.0
C      1  0.5380680000000  0.5019090000000  0.5641300000000 1.0
C      1  0.4496780000000  0.4077120000000  0.4680850000000 1.0
C      1  0.4457170000000  0.4539960000000  0.6070550000000 1.0
C      1  0.5288820000000  0.4653590000000  0.4290540000000 1.0
C      1  0.5523290000000  0.5106870000000  0.4773490000000 1.0
C      1  0.4734070000000  0.4826200000000  0.4494210000000 1.0
C      1  0.5228790000000  0.4807670000000  0.5509590000000 1.0
C      1  0.5199710000000  0.5346940000000  0.5326690000000 1.0
C      1  0.5257970000000  0.5098090000000  0.4681500000000 1.0
C      1  0.5300390000000  0.5969440000000  0.5141120000000 1.0
C      1  0.5966880000000  0.4756520000000  0.4933120000000 1.0
C      1  0.5526000000000  0.4371540000000  0.5646610000000 1.0
C      1  0.5049480000000  0.4104340000000  0.5120920000000 1.0
C      1  0.4923720000000  0.4836810000000  0.4042620000000 1.0
C      1  0.4587560000000  0.4512540000000  0.5245810000000 1.0
C      1  0.5063840000000  0.4493530000000  0.4378230000000 1.0
C      1  0.5291500000000  0.5290510000000  0.5595600000000 1.0
C      1  0.5166830000000  0.5901070000000  0.4175580000000 1.0
C      1  0.5210030000000  0.6217120000000  0.5545600000000 1.0
C      1  0.5379750000000  0.5769330000000  0.5591300000000 1.0
C      1  0.4395920000000  0.5382830000000  0.5766570000000 1.0
C      1  0.5625190000000  0.5775120000000  0.4797740000000 1.0
C      1  0.4825120000000  0.5595610000000  0.5836170000000 1.0
C      1  0.5246050000000  0.5147090000000  0.4172520000000 1.0
C      1  0.5852990000000  0.4811390000000  0.5186980000000 1.0
C      1  0.4700640000000  0.5370770000000  0.5397460000000 1.0
C      1  0.4813690000000  0.5924040000000  0.5032680000000 1.0
C      1  0.4754320000000  0.4733060000000  0.5280190000000 1.0
C      1  0.4578350000000  0.4993100000000  0.4659840000000 1.0
C      1  0.6253600000000  0.4737190000000  0.5452340000000 1.0
C      1  0.5252720000000  0.5632470000000  0.4179740000000 1.0
C      1  0.4930900000000  0.5356630000000  0.5228320000000 1.0
C      1  0.4288270000000  0.4964000000000  0.4640440000000 1.0
C      1  0.4413490000000  0.3811510000000  0.4677110000000 1.0
C      1  0.4914500000000  0.4621500000000  0.4588450000000 1.0
C      1  0.4164940000000  0.5655750000000  0.5183560000000 1.0
C      1  0.6002440000000  0.4842740000000  0.5427000000000 1.0
END
