TITL C-3866670-4165-138 16.414544382679 125000 -528.223071451194 0 0 88 (C1) n - 1
REM
REM in /home/nfs/bkarasulu/CARBON/AIRSS/Generating-Clusters/LCBOP/Only-C1/SD-CG/HFTN-CG/FIRE-CG
REM
REM
REM
REM
REM
REM ./C.cell (11c1c37f851c82e70ff6c80c92926a4b)
REM AIRSS Version 0.9.1 bugfix July 2018 build 013d7b7c2542+ Fri, 06 Jul 2018 19:26:36 +0100
REM compiler GCC version 9.2.1 20190827 (Red Hat 9.2.1-1)
REM options -cpp -mtune=generic -march=x86-64 -g -O0 -fpre-include=/usr/include/finclude/math-vector-fortran.h
REM seed 283268014 233060133 2106246133 -1478472994 1148719542 -245708988 -123932863 1467118413 -2126939056 -1737604280 142433466 -1161336078 91926834 1906890218 -101478414 1479018078 218231973 37383077 917385272 1244751621 -1905767793 -1718508862 -1841829110 -511363747 -693700237 1990436412 -1934084380 -1030424941 -1154566453 -383970869 2017767656 1274550376 784587279
REM
CELL 1.54180   50.00000   50.00000   50.00000   90.00000   90.00000   90.00000
LATT -1
SFAC C  
C      1  0.5606540000000  0.4892440000000  0.4133040000000 1.0
C      1  0.6092900000000  0.4428230000000  0.6519150000000 1.0
C      1  0.4815100000000  0.4465060000000  0.4260140000000 1.0
C      1  0.3663010000000  0.4432650000000  0.5304680000000 1.0
C      1  0.5348960000000  0.6288230000000  0.4653110000000 1.0
C      1  0.5499410000000  0.5112820000000  0.4538360000000 1.0
C      1  0.5175350000000  0.4758830000000  0.4115560000000 1.0
C      1  0.5802460000000  0.4952600000000  0.5072720000000 1.0
C      1  0.5780340000000  0.4550650000000  0.5605890000000 1.0
C      1  0.4795940000000  0.5059850000000  0.5953410000000 1.0
C      1  0.5590570000000  0.5614730000000  0.4778900000000 1.0
C      1  0.5131380000000  0.4665030000000  0.5973750000000 1.0
C      1  0.4628060000000  0.5094940000000  0.5712690000000 1.0
C      1  0.5016540000000  0.4143090000000  0.4853660000000 1.0
C      1  0.4970900000000  0.5485420000000  0.4297280000000 1.0
C      1  0.4818470000000  0.5189240000000  0.5520250000000 1.0
C      1  0.4988460000000  0.5281050000000  0.5930230000000 1.0
C      1  0.5062520000000  0.4687490000000  0.4607220000000 1.0
C      1  0.5744180000000  0.4975530000000  0.4622430000000 1.0
C      1  0.4327310000000  0.4515370000000  0.5018880000000 1.0
C      1  0.5326140000000  0.5143350000000  0.5028840000000 1.0
C      1  0.5549860000000  0.5036530000000  0.5165670000000 1.0
C      1  0.3204300000000  0.4207670000000  0.5445870000000 1.0
C      1  0.5332590000000  0.5651020000000  0.4910480000000 1.0
C      1  0.2978700000000  0.4097020000000  0.5515320000000 1.0
C      1  0.5262630000000  0.4561330000000  0.5016540000000 1.0
C      1  0.4368580000000  0.5137330000000  0.5620320000000 1.0
C      1  0.5440410000000  0.4661430000000  0.4215110000000 1.0
C      1  0.5858170000000  0.5121920000000  0.4841510000000 1.0
C      1  0.5123730000000  0.6239900000000  0.4816570000000 1.0
C      1  0.4133450000000  0.4664800000000  0.5160880000000 1.0
C      1  0.5450130000000  0.5113090000000  0.4254460000000 1.0
C      1  0.4590180000000  0.5449740000000  0.4995370000000 1.0
C      1  0.4948110000000  0.5205450000000  0.4275290000000 1.0
C      1  0.4777190000000  0.5915870000000  0.5025540000000 1.0
C      1  0.5141150000000  0.5256310000000  0.5208880000000 1.0
C      1  0.4917130000000  0.6133580000000  0.4949510000000 1.0
C      1  0.4571350000000  0.4560880000000  0.4887630000000 1.0
C      1  0.4058810000000  0.5362360000000  0.4487860000000 1.0
C      1  0.5376230000000  0.4600940000000  0.5888220000000 1.0
C      1  0.5951290000000  0.4469020000000  0.6304090000000 1.0
C      1  0.4837490000000  0.4894670000000  0.5104180000000 1.0
C      1  0.5730560000000  0.4683230000000  0.4621590000000 1.0
C      1  0.5653070000000  0.5844000000000  0.4624850000000 1.0
C      1  0.5332250000000  0.5662440000000  0.5407140000000 1.0
C      1  0.4291230000000  0.5168940000000  0.5348790000000 1.0
C      1  0.4811330000000  0.5640200000000  0.4960160000000 1.0
C      1  0.5357740000000  0.5772800000000  0.5164710000000 1.0
C      1  0.4209680000000  0.5371470000000  0.4718160000000 1.0
C      1  0.3919500000000  0.5348970000000  0.4262900000000 1.0
C      1  0.5373980000000  0.4394190000000  0.5214760000000 1.0
C      1  0.4490750000000  0.5305940000000  0.4752800000000 1.0
C      1  0.4911540000000  0.4811870000000  0.6018830000000 1.0
C      1  0.5040060000000  0.4701660000000  0.5118860000000 1.0
C      1  0.5059650000000  0.4962730000000  0.4640560000000 1.0
C      1  0.5538310000000  0.6085740000000  0.4599750000000 1.0
C      1  0.5845650000000  0.4664690000000  0.5092070000000 1.0
C      1  0.4957270000000  0.4590070000000  0.4068250000000 1.0
C      1  0.5384350000000  0.6537010000000  0.4543910000000 1.0
C      1  0.4889660000000  0.5122560000000  0.5255540000000 1.0
C      1  0.5030100000000  0.5621950000000  0.4520880000000 1.0
C      1  0.3433680000000  0.4320180000000  0.5375260000000 1.0
C      1  0.5807040000000  0.4510530000000  0.6085770000000 1.0
C      1  0.5867420000000  0.4563080000000  0.5353530000000 1.0
C      1  0.5385070000000  0.4206440000000  0.5396290000000 1.0
C      1  0.4912050000000  0.3920660000000  0.4971890000000 1.0
C      1  0.4346650000000  0.5399140000000  0.5178990000000 1.0
C      1  0.4840720000000  0.5085210000000  0.4514000000000 1.0
C      1  0.4618250000000  0.5062270000000  0.4690060000000 1.0
C      1  0.5062190000000  0.5611970000000  0.4802320000000 1.0
C      1  0.4866680000000  0.4499610000000  0.4532060000000 1.0
C      1  0.5167660000000  0.5054090000000  0.4163020000000 1.0
C      1  0.5288390000000  0.5101450000000  0.4739990000000 1.0
C      1  0.4765130000000  0.4377530000000  0.4763870000000 1.0
C      1  0.4647130000000  0.4847350000000  0.4893360000000 1.0
C      1  0.5294680000000  0.4576340000000  0.4719720000000 1.0
C      1  0.4182870000000  0.4934670000000  0.5228930000000 1.0
C      1  0.5584960000000  0.4258700000000  0.4842810000000 1.0
C      1  0.5318700000000  0.4153630000000  0.4817350000000 1.0
C      1  0.3782800000000  0.5335500000000  0.4041330000000 1.0
C      1  0.3892240000000  0.4545090000000  0.5234170000000 1.0
C      1  0.5205410000000  0.5418310000000  0.5444980000000 1.0
C      1  0.4128250000000  0.5448530000000  0.4985000000000 1.0
C      1  0.5030920000000  0.5348360000000  0.5656150000000 1.0
C      1  0.5489770000000  0.4584970000000  0.4493150000000 1.0
C      1  0.5782580000000  0.5404660000000  0.4836940000000 1.0
C      1  0.5763700000000  0.4509090000000  0.4858480000000 1.0
C      1  0.5652350000000  0.4554740000000  0.5856580000000 1.0
END
