TITL C-3866669-3764-729 14.4113699995545 125000 -963.918664924872 0 0 158 (C1) n - 1
REM
REM in /home/nfs/bkarasulu/CARBON/AIRSS/Generating-Clusters/LCBOP/Only-C1/SD-CG/FIRE-CG
REM
REM
REM
REM
REM
REM ./C.cell (11c1c37f851c82e70ff6c80c92926a4b)
REM AIRSS Version 0.9.1 bugfix July 2018 build 013d7b7c2542+ Fri, 06 Jul 2018 19:26:36 +0100
REM compiler GCC version 9.2.1 20190827 (Red Hat 9.2.1-1)
REM options -cpp -mtune=generic -march=x86-64 -g -O0 -fpre-include=/usr/include/finclude/math-vector-fortran.h
REM seed 118295764 -1655979019 -887328305 -251630461 -1583014872 669951816 321421698 608760408 1669092715 1875335914 -241777405 433653218 780539425 1022172760 821471632 -1555448937 -1003325453 -2092202498 609172564 -822800903 -1273720199 1905561046 554923454 -1581593481 -2036763410 -2092822211 -743246440 -2104023345 -442146661 -926593468 1371343531 -505672364 -221057951
REM
CELL 1.54180   50.00000   50.00000   50.00000   90.00000   90.00000   90.00000
LATT -1
SFAC C  
C      1  0.4302090000000  0.3390210000000  0.3898310000000 1.0
C      1  0.5044540000000  0.5429660000000  0.5955300000000 1.0
C      1  0.4177640000000  0.4685880000000  0.4244310000000 1.0
C      1  0.5769660000000  0.4940450000000  0.5038620000000 1.0
C      1  0.4806300000000  0.5867250000000  0.5373070000000 1.0
C      1  0.4224930000000  0.5723860000000  0.5300740000000 1.0
C      1  0.5724410000000  0.5414140000000  0.4991390000000 1.0
C      1  0.4790620000000  0.6385260000000  0.4969510000000 1.0
C      1  0.3663930000000  0.4552080000000  0.5263820000000 1.0
C      1  0.5071110000000  0.4923250000000  0.5036200000000 1.0
C      1  0.5570150000000  0.5569940000000  0.4809760000000 1.0
C      1  0.5251440000000  0.5949000000000  0.4969370000000 1.0
C      1  0.3407420000000  0.4592960000000  0.5242750000000 1.0
C      1  0.4593730000000  0.5278730000000  0.5720600000000 1.0
C      1  0.4985390000000  0.4931260000000  0.3853500000000 1.0
C      1  0.4078980000000  0.4521100000000  0.5537920000000 1.0
C      1  0.5141140000000  0.4928570000000  0.5495380000000 1.0
C      1  0.6009950000000  0.5409660000000  0.4938820000000 1.0
C      1  0.4997580000000  0.4523810000000  0.4770690000000 1.0
C      1  0.5957240000000  0.4755190000000  0.4969590000000 1.0
C      1  0.4504290000000  0.5318860000000  0.5258240000000 1.0
C      1  0.5212440000000  0.5210580000000  0.5467090000000 1.0
C      1  0.4325460000000  0.4983250000000  0.6008210000000 1.0
C      1  0.5900070000000  0.5650860000000  0.4505860000000 1.0
C      1  0.6044180000000  0.5190130000000  0.4505100000000 1.0
C      1  0.5092480000000  0.4057880000000  0.4812120000000 1.0
C      1  0.4537220000000  0.5503640000000  0.4671760000000 1.0
C      1  0.4937730000000  0.6400330000000  0.5195710000000 1.0
C      1  0.4169660000000  0.4953130000000  0.4129360000000 1.0
C      1  0.4519060000000  0.6123780000000  0.4648100000000 1.0
C      1  0.4413070000000  0.3838590000000  0.4539660000000 1.0
C      1  0.5199130000000  0.4277710000000  0.5640490000000 1.0
C      1  0.5042860000000  0.5409890000000  0.5086120000000 1.0
C      1  0.4710370000000  0.5314350000000  0.5458310000000 1.0
C      1  0.6071700000000  0.4520010000000  0.4886950000000 1.0
C      1  0.5690520000000  0.4848020000000  0.4456180000000 1.0
C      1  0.5331290000000  0.6126290000000  0.5171250000000 1.0
C      1  0.4607460000000  0.4255830000000  0.4717700000000 1.0
C      1  0.5962250000000  0.5255840000000  0.5595070000000 1.0
C      1  0.5674070000000  0.4593910000000  0.4560080000000 1.0
C      1  0.4456880000000  0.4504470000000  0.4687690000000 1.0
C      1  0.5136260000000  0.5130290000000  0.4405670000000 1.0
C      1  0.5124500000000  0.6234260000000  0.5329640000000 1.0
C      1  0.4333510000000  0.3536770000000  0.4111610000000 1.0
C      1  0.5591230000000  0.4969060000000  0.5550620000000 1.0
C      1  0.4956140000000  0.4859800000000  0.5292540000000 1.0
C      1  0.4565000000000  0.5189190000000  0.3975280000000 1.0
C      1  0.5186190000000  0.3971340000000  0.5075950000000 1.0
C      1  0.4364380000000  0.4409710000000  0.5173610000000 1.0
C      1  0.4217910000000  0.5164720000000  0.4320940000000 1.0
C      1  0.4264630000000  0.5456510000000  0.6049430000000 1.0
C      1  0.4717870000000  0.5102420000000  0.4854890000000 1.0
C      1  0.4975940000000  0.5649430000000  0.5783360000000 1.0
C      1  0.5600440000000  0.4230160000000  0.4081810000000 1.0
C      1  0.6042760000000  0.4611850000000  0.5474900000000 1.0
C      1  0.5213720000000  0.5013200000000  0.6184070000000 1.0
C      1  0.5335400000000  0.3960340000000  0.5307790000000 1.0
C      1  0.5145470000000  0.4395700000000  0.5385010000000 1.0
C      1  0.4418810000000  0.4136000000000  0.5232660000000 1.0
C      1  0.4105490000000  0.4468520000000  0.5049110000000 1.0
C      1  0.4536910000000  0.4452490000000  0.5788510000000 1.0
C      1  0.4795480000000  0.4585380000000  0.5859870000000 1.0
C      1  0.5398410000000  0.4582110000000  0.5011340000000 1.0
C      1  0.5204630000000  0.4862290000000  0.4409490000000 1.0
C      1  0.5554630000000  0.4011130000000  0.4692580000000 1.0
C      1  0.4362390000000  0.4906400000000  0.5064580000000 1.0
C      1  0.4649920000000  0.5378190000000  0.4429350000000 1.0
C      1  0.5881850000000  0.4399190000000  0.5531010000000 1.0
C      1  0.4553650000000  0.4178860000000  0.5717700000000 1.0
C      1  0.4188190000000  0.4597110000000  0.4794080000000 1.0
C      1  0.5088060000000  0.4675840000000  0.3882670000000 1.0
C      1  0.5705810000000  0.5789500000000  0.4668130000000 1.0
C      1  0.3938750000000  0.4514430000000  0.5282540000000 1.0
C      1  0.4711500000000  0.4959630000000  0.4599950000000 1.0
C      1  0.4192610000000  0.4891720000000  0.4823120000000 1.0
C      1  0.5227750000000  0.5470960000000  0.6168900000000 1.0
C      1  0.5567570000000  0.4475740000000  0.4815180000000 1.0
C      1  0.5827950000000  0.4289220000000  0.4213810000000 1.0
C      1  0.4469520000000  0.4629420000000  0.4254710000000 1.0
C      1  0.4545150000000  0.4709250000000  0.3990610000000 1.0
C      1  0.5493920000000  0.5189530000000  0.5374980000000 1.0
C      1  0.4293630000000  0.5968640000000  0.4641170000000 1.0
C      1  0.4568900000000  0.5029170000000  0.5859930000000 1.0
C      1  0.4033540000000  0.5292070000000  0.5367380000000 1.0
C      1  0.4367800000000  0.3686210000000  0.4327810000000 1.0
C      1  0.5706260000000  0.4213410000000  0.4820260000000 1.0
C      1  0.5031370000000  0.6022370000000  0.5487360000000 1.0
C      1  0.4852270000000  0.5166710000000  0.4437070000000 1.0
C      1  0.5179570000000  0.4485940000000  0.4083760000000 1.0
C      1  0.4459810000000  0.5313310000000  0.4222600000000 1.0
C      1  0.5447510000000  0.5817360000000  0.5701270000000 1.0
C      1  0.5420100000000  0.4100480000000  0.5555560000000 1.0
C      1  0.4982930000000  0.5171540000000  0.4938300000000 1.0
C      1  0.4267220000000  0.4561670000000  0.5752930000000 1.0
C      1  0.5005550000000  0.5623870000000  0.4153060000000 1.0
C      1  0.4993220000000  0.5359460000000  0.5367260000000 1.0
C      1  0.4582500000000  0.4704480000000  0.4510790000000 1.0
C      1  0.6191400000000  0.5306920000000  0.5144180000000 1.0
C      1  0.4209130000000  0.5205960000000  0.6137120000000 1.0
C      1  0.4880480000000  0.4411260000000  0.5304520000000 1.0
C      1  0.5685920000000  0.4213820000000  0.5570520000000 1.0
C      1  0.5392550000000  0.4770110000000  0.5492600000000 1.0
C      1  0.5167470000000  0.4701960000000  0.4898920000000 1.0
C      1  0.4149420000000  0.5733450000000  0.4662020000000 1.0
C      1  0.4177380000000  0.5984300000000  0.5312550000000 1.0
C      1  0.5033740000000  0.4409180000000  0.5839370000000 1.0
C      1  0.5688670000000  0.5704570000000  0.5673200000000 1.0
C      1  0.5006790000000  0.5697720000000  0.4413580000000 1.0
C      1  0.4490500000000  0.4670980000000  0.5194890000000 1.0
C      1  0.5169440000000  0.5854850000000  0.5686400000000 1.0
C      1  0.5363200000000  0.5303790000000  0.4434830000000 1.0
C      1  0.5039680000000  0.3848700000000  0.4214310000000 1.0
C      1  0.5032210000000  0.6179820000000  0.4611070000000 1.0
C      1  0.5279620000000  0.6067130000000  0.4703980000000 1.0
C      1  0.4244270000000  0.5458880000000  0.4683090000000 1.0
C      1  0.4472680000000  0.4008360000000  0.4750740000000 1.0
C      1  0.5622040000000  0.5300490000000  0.4305840000000 1.0
C      1  0.5162070000000  0.4615870000000  0.4331300000000 1.0
C      1  0.6145450000000  0.4855910000000  0.5405140000000 1.0
C      1  0.4252820000000  0.5445900000000  0.5307290000000 1.0
C      1  0.5881970000000  0.5523090000000  0.5633230000000 1.0
C      1  0.4524480000000  0.5131570000000  0.5052820000000 1.0
C      1  0.4892010000000  0.4263730000000  0.4764980000000 1.0
C      1  0.5634020000000  0.5183180000000  0.5125470000000 1.0
C      1  0.5285950000000  0.4019930000000  0.4595490000000 1.0
C      1  0.4807000000000  0.4879480000000  0.5905210000000 1.0
C      1  0.5971850000000  0.4304510000000  0.4721790000000 1.0
C      1  0.5768230000000  0.5546160000000  0.4268700000000 1.0
C      1  0.4153900000000  0.6243900000000  0.5314680000000 1.0
C      1  0.5799900000000  0.5092640000000  0.4392710000000 1.0
C      1  0.4617770000000  0.5678420000000  0.4887110000000 1.0
C      1  0.5797600000000  0.5054300000000  0.5721720000000 1.0
C      1  0.5215680000000  0.4036410000000  0.4313330000000 1.0
C      1  0.5838550000000  0.4964200000000  0.5975130000000 1.0
C      1  0.5883040000000  0.4408520000000  0.4461150000000 1.0
C      1  0.4442150000000  0.5487460000000  0.5847050000000 1.0
C      1  0.4402410000000  0.4956330000000  0.3929970000000 1.0
C      1  0.4492910000000  0.4054770000000  0.5488970000000 1.0
C      1  0.4795310000000  0.5796470000000  0.5083390000000 1.0
C      1  0.4192780000000  0.4745990000000  0.5951570000000 1.0
C      1  0.5063810000000  0.5700830000000  0.4969710000000 1.0
C      1  0.4981340000000  0.5428450000000  0.3967600000000 1.0
C      1  0.6054360000000  0.5438900000000  0.4650290000000 1.0
C      1  0.5366880000000  0.4559360000000  0.5296450000000 1.0
C      1  0.4756830000000  0.4663020000000  0.5285270000000 1.0
C      1  0.5539940000000  0.6012220000000  0.4602070000000 1.0
C      1  0.4847230000000  0.5183730000000  0.3907950000000 1.0
C      1  0.4405390000000  0.3955230000000  0.5017940000000 1.0
C      1  0.6458890000000  0.5370130000000  0.5117080000000 1.0
C      1  0.6118220000000  0.5145110000000  0.5378040000000 1.0
C      1  0.5323000000000  0.5242540000000  0.6287150000000 1.0
C      1  0.4173300000000  0.5173850000000  0.4614320000000 1.0
C      1  0.5102850000000  0.5625380000000  0.4671220000000 1.0
C      1  0.5320000000000  0.4234740000000  0.4124370000000 1.0
C      1  0.4743140000000  0.5711260000000  0.5609510000000 1.0
C      1  0.5017470000000  0.5054830000000  0.5986590000000 1.0
C      1  0.4772320000000  0.6239750000000  0.4724510000000 1.0
C      1  0.5347700000000  0.5475650000000  0.4658770000000 1.0
END
