TITL C-3866670-4165-445 3.3536311301982e-05 125000 -800.023559428122 0 0 131 (C1) n - 1
REM
REM in /home/nfs/bkarasulu/CARBON/AIRSS/Generating-Clusters/LCBOP/Only-C1/SD-CG/FIRE-CG
REM
REM
REM
REM
REM
REM ./C.cell (11c1c37f851c82e70ff6c80c92926a4b)
REM AIRSS Version 0.9.1 bugfix July 2018 build 013d7b7c2542+ Fri, 06 Jul 2018 19:26:36 +0100
REM compiler GCC version 9.2.1 20190827 (Red Hat 9.2.1-1)
REM options -cpp -mtune=generic -march=x86-64 -g -O0 -fpre-include=/usr/include/finclude/math-vector-fortran.h
REM seed 215200474 1382247693 106241496 1761007892 1505070363 1268686290 496399548 -1325564915 -59692531 -534634543 -210771918 -543091692 1029532347 160383260 589881399 -384397705 1190386242 -1410612164 -1200969430 -1707740506 -933641061 -1060420741 -1468402301 1328011201 -792530630 -1063287127 -1569576430 1838043843 1947241848 899489735 1760339158 -619176744 1454939096
REM
CELL 1.54180   50.00000   50.00000   50.00000   90.00000   90.00000   90.00000
LATT -1
SFAC C  
C      1  0.4542380000000  0.4167390000000  0.5523760000000 1.0
C      1  0.5448230000000  0.4011600000000  0.5189780000000 1.0
C      1  0.5093250000000  0.6224390000000  0.5135120000000 1.0
C      1  0.5446540000000  0.4376550000000  0.5805120000000 1.0
C      1  0.5536190000000  0.6093110000000  0.5290040000000 1.0
C      1  0.4972090000000  0.5885800000000  0.4777670000000 1.0
C      1  0.5224890000000  0.3856050000000  0.5196650000000 1.0
C      1  0.4753920000000  0.4269190000000  0.4498160000000 1.0
C      1  0.4012770000000  0.5432110000000  0.5210550000000 1.0
C      1  0.5474220000000  0.5674990000000  0.4864010000000 1.0
C      1  0.5198640000000  0.4507820000000  0.5449450000000 1.0
C      1  0.4694670000000  0.3867430000000  0.5154970000000 1.0
C      1  0.3868730000000  0.6183720000000  0.4604010000000 1.0
C      1  0.4127480000000  0.4649320000000  0.4374010000000 1.0
C      1  0.5667240000000  0.4499200000000  0.5925710000000 1.0
C      1  0.5361260000000  0.4697830000000  0.4656590000000 1.0
C      1  0.3643970000000  0.5823040000000  0.5158420000000 1.0
C      1  0.4677620000000  0.5119030000000  0.5308470000000 1.0
C      1  0.5071490000000  0.3939740000000  0.4339700000000 1.0
C      1  0.5289930000000  0.5533650000000  0.3976270000000 1.0
C      1  0.5565490000000  0.4259690000000  0.5272230000000 1.0
C      1  0.4309010000000  0.4295280000000  0.4688160000000 1.0
C      1  0.4563380000000  0.5308990000000  0.5132870000000 1.0
C      1  0.5339940000000  0.5811080000000  0.5691800000000 1.0
C      1  0.5363060000000  0.4805140000000  0.5089080000000 1.0
C      1  0.4664450000000  0.5704990000000  0.4349410000000 1.0
C      1  0.5447190000000  0.4581770000000  0.4918380000000 1.0
C      1  0.4254320000000  0.5161500000000  0.4449440000000 1.0
C      1  0.5141060000000  0.5949840000000  0.5538280000000 1.0
C      1  0.5237210000000  0.4764730000000  0.5333080000000 1.0
C      1  0.6110290000000  0.5614680000000  0.5142810000000 1.0
C      1  0.4735950000000  0.5703970000000  0.5345830000000 1.0
C      1  0.5463920000000  0.5709810000000  0.4103690000000 1.0
C      1  0.5824300000000  0.4693780000000  0.5208330000000 1.0
C      1  0.4639860000000  0.4948510000000  0.4805550000000 1.0
C      1  0.5164790000000  0.4405100000000  0.5888890000000 1.0
C      1  0.4843770000000  0.4198850000000  0.4011040000000 1.0
C      1  0.4976730000000  0.4391950000000  0.4896800000000 1.0
C      1  0.4691560000000  0.6000580000000  0.5732840000000 1.0
C      1  0.5967670000000  0.5651840000000  0.4891900000000 1.0
C      1  0.5764020000000  0.4711900000000  0.4103330000000 1.0
C      1  0.4904080000000  0.4540820000000  0.5120140000000 1.0
C      1  0.5024640000000  0.4247110000000  0.3817710000000 1.0
C      1  0.4956670000000  0.3830640000000  0.5296640000000 1.0
C      1  0.4843990000000  0.5397050000000  0.4741140000000 1.0
C      1  0.5290890000000  0.4274760000000  0.3792010000000 1.0
C      1  0.5910110000000  0.4859820000000  0.5659270000000 1.0
C      1  0.5232940000000  0.5312510000000  0.4156580000000 1.0
C      1  0.5165690000000  0.5002090000000  0.5449450000000 1.0
C      1  0.5450190000000  0.4364810000000  0.5511350000000 1.0
C      1  0.4893290000000  0.5638860000000  0.4886450000000 1.0
C      1  0.4558250000000  0.4151550000000  0.4687220000000 1.0
C      1  0.4738530000000  0.4896180000000  0.5475290000000 1.0
C      1  0.4982040000000  0.5243310000000  0.4265330000000 1.0
C      1  0.4729910000000  0.4668410000000  0.5297560000000 1.0
C      1  0.4227230000000  0.5805730000000  0.4534910000000 1.0
C      1  0.4442820000000  0.4780850000000  0.4943040000000 1.0
C      1  0.4951520000000  0.5206150000000  0.4547710000000 1.0
C      1  0.4851190000000  0.4769830000000  0.5960250000000 1.0
C      1  0.5881890000000  0.4962530000000  0.5375790000000 1.0
C      1  0.5388480000000  0.5479790000000  0.5064320000000 1.0
C      1  0.4936120000000  0.3904410000000  0.5575180000000 1.0
C      1  0.4396340000000  0.5352950000000  0.4602640000000 1.0
C      1  0.5651490000000  0.5396800000000  0.5602880000000 1.0
C      1  0.4890480000000  0.4934900000000  0.4639910000000 1.0
C      1  0.4861300000000  0.4121110000000  0.4281460000000 1.0
C      1  0.4183050000000  0.4754280000000  0.4834790000000 1.0
C      1  0.5114220000000  0.4769430000000  0.3985950000000 1.0
C      1  0.5463710000000  0.5319520000000  0.4342940000000 1.0
C      1  0.4177840000000  0.4926810000000  0.4345970000000 1.0
C      1  0.5737390000000  0.4926820000000  0.4258810000000 1.0
C      1  0.4713270000000  0.5216400000000  0.5844260000000 1.0
C      1  0.5093140000000  0.4712890000000  0.4239450000000 1.0
C      1  0.4706790000000  0.3996030000000  0.4896980000000 1.0
C      1  0.4767430000000  0.5208150000000  0.4098030000000 1.0
C      1  0.4974990000000  0.6126950000000  0.4916150000000 1.0
C      1  0.5334590000000  0.3921240000000  0.4290900000000 1.0
C      1  0.4462830000000  0.4665820000000  0.5201010000000 1.0
C      1  0.4851900000000  0.5885430000000  0.5541750000000 1.0
C      1  0.4922710000000  0.5790260000000  0.4333200000000 1.0
C      1  0.4121070000000  0.4803970000000  0.5523950000000 1.0
C      1  0.5489890000000  0.4967480000000  0.4669920000000 1.0
C      1  0.5257030000000  0.6116400000000  0.5334840000000 1.0
C      1  0.4972170000000  0.4113160000000  0.4907250000000 1.0
C      1  0.5012810000000  0.3744490000000  0.5781860000000 1.0
C      1  0.5034230000000  0.4593740000000  0.6051490000000 1.0
C      1  0.5412840000000  0.5537600000000  0.5703550000000 1.0
C      1  0.4432020000000  0.5619490000000  0.4492350000000 1.0
C      1  0.5837560000000  0.4693140000000  0.5854310000000 1.0
C      1  0.5585370000000  0.5085500000000  0.4434490000000 1.0
C      1  0.6202130000000  0.5361160000000  0.5217410000000 1.0
C      1  0.4109260000000  0.5055070000000  0.5616010000000 1.0
C      1  0.5174420000000  0.5385130000000  0.5707990000000 1.0
C      1  0.5156670000000  0.5461980000000  0.5230960000000 1.0
C      1  0.4005640000000  0.4956920000000  0.4926170000000 1.0
C      1  0.5675420000000  0.5206650000000  0.5370530000000 1.0
C      1  0.4490590000000  0.3960530000000  0.5331410000000 1.0
C      1  0.4753020000000  0.4942180000000  0.5760290000000 1.0
C      1  0.4044320000000  0.5993580000000  0.4572790000000 1.0
C      1  0.5011400000000  0.4375380000000  0.5635590000000 1.0
C      1  0.5142650000000  0.5276530000000  0.5449050000000 1.0
C      1  0.4934610000000  0.5613080000000  0.5161120000000 1.0
C      1  0.5519240000000  0.4261690000000  0.3958490000000 1.0
C      1  0.4231800000000  0.5474320000000  0.5396340000000 1.0
C      1  0.4347900000000  0.4367370000000  0.5550650000000 1.0
C      1  0.5478410000000  0.5032990000000  0.4951320000000 1.0
C      1  0.5377220000000  0.5726690000000  0.4593590000000 1.0
C      1  0.5658160000000  0.4472040000000  0.5092020000000 1.0
C      1  0.4173650000000  0.4546200000000  0.4636930000000 1.0
C      1  0.5115310000000  0.5840070000000  0.4539010000000 1.0
C      1  0.4240480000000  0.5305410000000  0.5630180000000 1.0
C      1  0.5513030000000  0.5609300000000  0.4373910000000 1.0
C      1  0.4456730000000  0.5326770000000  0.5811080000000 1.0
C      1  0.5072060000000  0.4703480000000  0.4535880000000 1.0
C      1  0.4922580000000  0.4464250000000  0.4627510000000 1.0
C      1  0.3825270000000  0.5636750000000  0.5176790000000 1.0
C      1  0.5721310000000  0.5796970000000  0.4933280000000 1.0
C      1  0.5747430000000  0.5940830000000  0.5189240000000 1.0
C      1  0.4276650000000  0.4600940000000  0.5408250000000 1.0
C      1  0.6131820000000  0.5108280000000  0.5278270000000 1.0
C      1  0.4490560000000  0.5549200000000  0.5286710000000 1.0
C      1  0.5989720000000  0.5826700000000  0.5307120000000 1.0
C      1  0.5519410000000  0.4048850000000  0.4144080000000 1.0
C      1  0.3981590000000  0.5189260000000  0.5062620000000 1.0
C      1  0.4952180000000  0.5364290000000  0.5877550000000 1.0
C      1  0.4579670000000  0.5260300000000  0.4831980000000 1.0
C      1  0.4819680000000  0.4167180000000  0.5607800000000 1.0
C      1  0.5689330000000  0.4481250000000  0.3992770000000 1.0
C      1  0.5551990000000  0.5251750000000  0.5109770000000 1.0
C      1  0.4041200000000  0.4493860000000  0.4167460000000 1.0
C      1  0.5883020000000  0.5440880000000  0.5749480000000 1.0
END
