TITL C-3866673-4222-184 -0.0681609937240838 125000 -169.859224370166 0 0 29 (C1) n - 1
REM
REM in /home/nfs/bkarasulu/CARBON/AIRSS/Generating-Clusters/LCBOP/Only-C1/SD-CG/HFTN-CG/FIRE-CG
REM
REM
REM
REM
REM
REM ./C.cell (11c1c37f851c82e70ff6c80c92926a4b)
REM AIRSS Version 0.9.1 bugfix July 2018 build 013d7b7c2542+ Fri, 06 Jul 2018 19:26:36 +0100
REM compiler GCC version 9.2.1 20190827 (Red Hat 9.2.1-1)
REM options -cpp -mtune=generic -march=x86-64 -g -O0 -fpre-include=/usr/include/finclude/math-vector-fortran.h
REM seed 2032626200 -104545032 -14059537 -482938182 -1091826817 -892346267 2017525650 1624168949 -1630624407 -791902593 1642056279 1658553997 2101808207 -225223205 -1253698845 -846263838 826852700 1943810833 563649362 124320768 1052128874 -1834761199 792091435 -1611746404 1468453404 -1925821325 -651538469 -573009861 772983368 -1104258992 1245779699 -954153293 -732820776
REM
CELL 1.54180   50.00000   50.00000   50.00000   90.00000   90.00000   90.00000
LATT -1
SFAC C  
C      1  0.4714580000000  0.5007680000000  0.5182130000000 1.0
C      1  0.5025230000000  0.5350250000000  0.5354080000000 1.0
C      1  0.5959340000000  0.5062980000000  0.4782620000000 1.0
C      1  0.4999070000000  0.5632300000000  0.5355100000000 1.0
C      1  0.4480140000000  0.4500890000000  0.4703570000000 1.0
C      1  0.4490530000000  0.5182540000000  0.4662780000000 1.0
C      1  0.5379900000000  0.4510310000000  0.5007480000000 1.0
C      1  0.5175480000000  0.5190720000000  0.5528350000000 1.0
C      1  0.5416520000000  0.4775260000000  0.5449080000000 1.0
C      1  0.4911000000000  0.5028090000000  0.4485360000000 1.0
C      1  0.5221580000000  0.5337470000000  0.4788970000000 1.0
C      1  0.4761240000000  0.4724930000000  0.5586600000000 1.0
C      1  0.4993130000000  0.4542280000000  0.4646000000000 1.0
C      1  0.4317280000000  0.4979150000000  0.4685150000000 1.0
C      1  0.4906650000000  0.5768420000000  0.5138430000000 1.0
C      1  0.5004510000000  0.4777890000000  0.4492300000000 1.0
C      1  0.5211620000000  0.4471120000000  0.4805130000000 1.0
C      1  0.5002620000000  0.4774000000000  0.5695680000000 1.0
C      1  0.5460910000000  0.4623790000000  0.5234230000000 1.0
C      1  0.5477760000000  0.5272910000000  0.4771190000000 1.0
C      1  0.4888490000000  0.5222030000000  0.5132310000000 1.0
C      1  0.4929940000000  0.5353020000000  0.4855730000000 1.0
C      1  0.4737530000000  0.4430720000000  0.4683290000000 1.0
C      1  0.4648960000000  0.4820340000000  0.5361800000000 1.0
C      1  0.5221210000000  0.4919200000000  0.5589860000000 1.0
C      1  0.4769650000000  0.5212760000000  0.4645900000000 1.0
C      1  0.4315820000000  0.4712000000000  0.4702510000000 1.0
C      1  0.4855840000000  0.5643340000000  0.4901430000000 1.0
C      1  0.5723480000000  0.5173590000000  0.4772920000000 1.0
END
