TITL C-3866670-4165-446 -0.00926295409105294 125000 -726.780597730774 0 0 119 (C1) n - 1
REM
REM in /home/nfs/bkarasulu/CARBON/AIRSS/Generating-Clusters/LCBOP/Only-C1/SD-CG/FIRE-CG
REM
REM
REM
REM
REM
REM ./C.cell (11c1c37f851c82e70ff6c80c92926a4b)
REM AIRSS Version 0.9.1 bugfix July 2018 build 013d7b7c2542+ Fri, 06 Jul 2018 19:26:36 +0100
REM compiler GCC version 9.2.1 20190827 (Red Hat 9.2.1-1)
REM options -cpp -mtune=generic -march=x86-64 -g -O0 -fpre-include=/usr/include/finclude/math-vector-fortran.h
REM seed -1399898933 -318013630 -679600064 1326324709 -1873570943 1475540578 1573511476 -1514669958 -1644275418 -1863797056 -1254892624 404174302 1897721287 1647293375 1081551466 -1191241294 1171332558 -130104067 -1688539263 338507312 -1974949387 1029442560 -1701437855 1723600560 313261269 -407474189 -2073041270 -1578035356 -1538627502 -326960465 -698888633 227449030 -2004844339
REM
CELL 1.54180   50.00000   50.00000   50.00000   90.00000   90.00000   90.00000
LATT -1
SFAC C  
C      1  0.4131810000000  0.4739140000000  0.4573130000000 1.0
C      1  0.5742600000000  0.4856620000000  0.4367840000000 1.0
C      1  0.4156000000000  0.4447320000000  0.5650250000000 1.0
C      1  0.5010830000000  0.4013540000000  0.5122600000000 1.0
C      1  0.4862940000000  0.6138880000000  0.5039480000000 1.0
C      1  0.5000230000000  0.4346400000000  0.4424380000000 1.0
C      1  0.4827160000000  0.4717030000000  0.4669640000000 1.0
C      1  0.4998740000000  0.5631980000000  0.4712240000000 1.0
C      1  0.3960940000000  0.5385960000000  0.5019070000000 1.0
C      1  0.4311570000000  0.4715140000000  0.5261340000000 1.0
C      1  0.4815080000000  0.4725740000000  0.5184940000000 1.0
C      1  0.5369980000000  0.3700490000000  0.5151350000000 1.0
C      1  0.4827490000000  0.6388580000000  0.4380580000000 1.0
C      1  0.4127170000000  0.4672490000000  0.5482060000000 1.0
C      1  0.5671680000000  0.4380610000000  0.4497180000000 1.0
C      1  0.3743300000000  0.4814050000000  0.5202210000000 1.0
C      1  0.4910990000000  0.4635820000000  0.4929910000000 1.0
C      1  0.4873840000000  0.5646600000000  0.4220850000000 1.0
C      1  0.4957720000000  0.5614860000000  0.6218730000000 1.0
C      1  0.4058790000000  0.4712930000000  0.4842360000000 1.0
C      1  0.4669440000000  0.4552600000000  0.6125630000000 1.0
C      1  0.4842490000000  0.5764460000000  0.6398460000000 1.0
C      1  0.5422710000000  0.5165840000000  0.5878790000000 1.0
C      1  0.5708250000000  0.6265560000000  0.5318760000000 1.0
C      1  0.4229610000000  0.4569610000000  0.5023450000000 1.0
C      1  0.5818440000000  0.5512970000000  0.4802670000000 1.0
C      1  0.5145680000000  0.4634290000000  0.5582460000000 1.0
C      1  0.4468640000000  0.5847920000000  0.5269160000000 1.0
C      1  0.4555480000000  0.4859400000000  0.5254390000000 1.0
C      1  0.4427550000000  0.4188790000000  0.5923370000000 1.0
C      1  0.4519960000000  0.4548710000000  0.4352860000000 1.0
C      1  0.4801990000000  0.4954640000000  0.4515540000000 1.0
C      1  0.5073740000000  0.5462990000000  0.6035270000000 1.0
C      1  0.5555080000000  0.5471560000000  0.4701730000000 1.0
C      1  0.5225460000000  0.5720950000000  0.5378710000000 1.0
C      1  0.4395810000000  0.4628710000000  0.6082260000000 1.0
C      1  0.5448900000000  0.5024710000000  0.4715920000000 1.0
C      1  0.4494910000000  0.3790030000000  0.5633870000000 1.0
C      1  0.3869590000000  0.5163010000000  0.4904850000000 1.0
C      1  0.5528710000000  0.3854630000000  0.4991690000000 1.0
C      1  0.4365000000000  0.4781410000000  0.4423610000000 1.0
C      1  0.5889900000000  0.4605880000000  0.5705330000000 1.0
C      1  0.5449190000000  0.4109370000000  0.4899780000000 1.0
C      1  0.5594800000000  0.4965840000000  0.5843980000000 1.0
C      1  0.4879910000000  0.5433600000000  0.4912880000000 1.0
C      1  0.5050190000000  0.5504820000000  0.5395950000000 1.0
C      1  0.4278300000000  0.4287760000000  0.5040780000000 1.0
C      1  0.4604330000000  0.5382800000000  0.4789770000000 1.0
C      1  0.5932830000000  0.5287030000000  0.4932710000000 1.0
C      1  0.5108400000000  0.3769830000000  0.5237470000000 1.0
C      1  0.5707730000000  0.4935320000000  0.4639360000000 1.0
C      1  0.4451800000000  0.5251920000000  0.4611900000000 1.0
C      1  0.4892200000000  0.5061330000000  0.5507810000000 1.0
C      1  0.5032800000000  0.4526360000000  0.5815780000000 1.0
C      1  0.6290640000000  0.4320910000000  0.3751240000000 1.0
C      1  0.5596470000000  0.5836110000000  0.4410300000000 1.0
C      1  0.5011800000000  0.5053350000000  0.4350110000000 1.0
C      1  0.4127000000000  0.5509440000000  0.5185950000000 1.0
C      1  0.4575520000000  0.5355180000000  0.3877730000000 1.0
C      1  0.5645950000000  0.4727070000000  0.5704900000000 1.0
C      1  0.5160650000000  0.5861860000000  0.4758090000000 1.0
C      1  0.5105850000000  0.4433620000000  0.4898060000000 1.0
C      1  0.5054240000000  0.5180920000000  0.4935450000000 1.0
C      1  0.5441520000000  0.5036650000000  0.5201210000000 1.0
C      1  0.3865720000000  0.4769970000000  0.5437950000000 1.0
C      1  0.5927130000000  0.5046280000000  0.4780730000000 1.0
C      1  0.4901640000000  0.4685130000000  0.6020910000000 1.0
C      1  0.5787590000000  0.4575210000000  0.4326010000000 1.0
C      1  0.5202250000000  0.4378330000000  0.4622280000000 1.0
C      1  0.5468700000000  0.4263250000000  0.4649460000000 1.0
C      1  0.5151540000000  0.5288170000000  0.4428500000000 1.0
C      1  0.5076320000000  0.4926720000000  0.4116160000000 1.0
C      1  0.5387610000000  0.5275150000000  0.4585860000000 1.0
C      1  0.5743040000000  0.4974410000000  0.3896970000000 1.0
C      1  0.4940760000000  0.3639210000000  0.5418490000000 1.0
C      1  0.5298370000000  0.5036290000000  0.4960240000000 1.0
C      1  0.5619490000000  0.5602720000000  0.4241080000000 1.0
C      1  0.4523760000000  0.5017360000000  0.4477060000000 1.0
C      1  0.4723640000000  0.5487980000000  0.4046110000000 1.0
C      1  0.4984390000000  0.4798820000000  0.5417410000000 1.0
C      1  0.5203500000000  0.4204910000000  0.5037040000000 1.0
C      1  0.5497840000000  0.6115870000000  0.5283660000000 1.0
C      1  0.4887040000000  0.5921880000000  0.4172850000000 1.0
C      1  0.5943600000000  0.5751360000000  0.4722720000000 1.0
C      1  0.5727210000000  0.5060160000000  0.4158800000000 1.0
C      1  0.4621280000000  0.5113220000000  0.5389290000000 1.0
C      1  0.5884680000000  0.5255200000000  0.5208790000000 1.0
C      1  0.5663430000000  0.5140330000000  0.5310400000000 1.0
C      1  0.6126940000000  0.4403110000000  0.3936720000000 1.0
C      1  0.4818980000000  0.6368820000000  0.4885270000000 1.0
C      1  0.5959860000000  0.4489610000000  0.4123270000000 1.0
C      1  0.5689970000000  0.5343470000000  0.4195960000000 1.0
C      1  0.4745470000000  0.4048110000000  0.5037290000000 1.0
C      1  0.4860640000000  0.6182590000000  0.4215510000000 1.0
C      1  0.5282120000000  0.5949830000000  0.5225760000000 1.0
C      1  0.4587690000000  0.5385580000000  0.5306180000000 1.0
C      1  0.5112070000000  0.6000930000000  0.5002570000000 1.0
C      1  0.5184690000000  0.5305760000000  0.5832840000000 1.0
C      1  0.4709280000000  0.3655470000000  0.5550490000000 1.0
C      1  0.4769330000000  0.4500980000000  0.4479170000000 1.0
C      1  0.4686110000000  0.4267090000000  0.6020500000000 1.0
C      1  0.4261330000000  0.4440090000000  0.5916080000000 1.0
C      1  0.5846540000000  0.5926080000000  0.4522100000000 1.0
C      1  0.5425230000000  0.4622560000000  0.5564890000000 1.0
C      1  0.3860730000000  0.4887130000000  0.4955880000000 1.0
C      1  0.5973500000000  0.6153270000000  0.4442650000000 1.0
C      1  0.4358060000000  0.4022800000000  0.5699190000000 1.0
C      1  0.4808320000000  0.6462070000000  0.4635920000000 1.0
C      1  0.4145780000000  0.4154710000000  0.5253710000000 1.0
C      1  0.4926410000000  0.4261230000000  0.5859750000000 1.0
C      1  0.4651330000000  0.6026290000000  0.5188100000000 1.0
C      1  0.5052890000000  0.5286550000000  0.5582620000000 1.0
C      1  0.5004490000000  0.5529970000000  0.4443210000000 1.0
C      1  0.4379570000000  0.5578400000000  0.5281750000000 1.0
C      1  0.4518610000000  0.4166480000000  0.4961320000000 1.0
C      1  0.4186490000000  0.4182360000000  0.5528850000000 1.0
C      1  0.5026470000000  0.4185050000000  0.4206870000000 1.0
C      1  0.5363470000000  0.5911550000000  0.4561370000000 1.0
C      1  0.4838750000000  0.5490180000000  0.5205310000000 1.0
END
