TITL C-3866676-3738-483 1476.80723589746 125000 -976.374659489255 0 0 160 (C1) n - 1
REM
REM in /home/nfs/bkarasulu/CARBON/AIRSS/Generating-Clusters/LCBOP/Only-C1/SD-CG/FIRE-CG
REM
REM
REM
REM
REM
REM ./C.cell (11c1c37f851c82e70ff6c80c92926a4b)
REM AIRSS Version 0.9.1 bugfix July 2018 build 013d7b7c2542+ Fri, 06 Jul 2018 19:26:36 +0100
REM compiler GCC version 9.2.1 20190827 (Red Hat 9.2.1-1)
REM options -cpp -mtune=generic -march=x86-64 -g -O0 -fpre-include=/usr/include/finclude/math-vector-fortran.h
REM seed -1890049076 968471920 723527104 970692623 68183842 1626596601 622357527 -465198184 -1483489055 -1493587803 1534192103 182263753 -552561292 -134265986 340250885 -519915497 -419327913 1089908383 -484562285 685097409 1974774464 378335333 279301598 489406998 -441003695 -2136460308 -155821671 442204114 -1024356440 368212015 646414950 -923467151 1320363927
REM
CELL 1.54180   50.00000   50.00000   50.00000   90.00000   90.00000   90.00000
LATT -1
SFAC C  
C      1  0.3702050000000  0.5405460000000  0.5143200000000 1.0
C      1  0.3745540000000  0.3870060000000  0.5002120000000 1.0
C      1  0.5458820000000  0.3796690000000  0.5300600000000 1.0
C      1  0.5301100000000  0.5959590000000  0.4452530000000 1.0
C      1  0.5014850000000  0.3950310000000  0.4518950000000 1.0
C      1  0.5143330000000  0.4110330000000  0.4333970000000 1.0
C      1  0.5614990000000  0.4110020000000  0.4403430000000 1.0
C      1  0.4160740000000  0.5908000000000  0.5767530000000 1.0
C      1  0.3543770000000  0.5311920000000  0.5361020000000 1.0
C      1  0.5119670000000  0.5622620000000  0.4980240000000 1.0
C      1  0.4525740000000  0.3903660000000  0.5107700000000 1.0
C      1  0.5470980000000  0.5019370000000  0.4067850000000 1.0
C      1  0.5284750000000  0.5449420000000  0.5138320000000 1.0
C      1  0.5202370000000  0.5023770000000  0.6043370000000 1.0
C      1  0.5202820000000  0.3731570000000  0.5438220000000 1.0
C      1  0.5289650000000  0.6306630000000  0.5288560000000 1.0
C      1  0.5466780000000  0.5451790000000  0.4397030000000 1.0
C      1  0.4907650000000  0.4872380000000  0.5249060000000 1.0
C      1  0.6038360000000  0.4919030000000  0.5626690000000 1.0
C      1  0.5353320000000  0.4983420000000  0.5492670000000 1.0
C      1  0.4538400000000  0.4300560000000  0.4893300000000 1.0
C      1  0.4027640000000  0.5175730000000  0.4579890000000 1.0
C      1  0.3645930000000  0.5358600000000  0.4870460000000 1.0
C      1  0.4619710000000  0.5208150000000  0.5417840000000 1.0
C      1  0.4647600000000  0.6018120000000  0.5630570000000 1.0
C      1  0.4497900000000  0.5703090000000  0.4842290000000 1.0
C      1  0.5457710000000  0.4973110000000  0.5214020000000 1.0
C      1  0.4980740000000  0.4830630000000  0.4323770000000 1.0
C      1  0.5095090000000  0.6116910000000  0.4585380000000 1.0
C      1  0.5193120000000  0.4405440000000  0.4778320000000 1.0
C      1  0.4975120000000  0.3717650000000  0.5257900000000 1.0
C      1  0.5482620000000  0.4678070000000  0.4474220000000 1.0
C      1  0.5797660000000  0.4219490000000  0.5320630000000 1.0
C      1  0.4088810000000  0.6262810000000  0.6165190000000 1.0
C      1  0.4787440000000  0.6023240000000  0.5020500000000 1.0
C      1  0.4838590000000  0.4637220000000  0.6012990000000 1.0
C      1  0.5249380000000  0.4230310000000  0.5003580000000 1.0
C      1  0.5544280000000  0.4012990000000  0.4666930000000 1.0
C      1  0.3968500000000  0.5479970000000  0.5201570000000 1.0
C      1  0.6145300000000  0.4844280000000  0.4679230000000 1.0
C      1  0.5377870000000  0.5524650000000  0.5401640000000 1.0
C      1  0.3714920000000  0.4393420000000  0.5036450000000 1.0
C      1  0.4866580000000  0.6164850000000  0.5575690000000 1.0
C      1  0.4622020000000  0.4904520000000  0.5324030000000 1.0
C      1  0.5156990000000  0.5304970000000  0.5993360000000 1.0
C      1  0.6068170000000  0.5222340000000  0.4970790000000 1.0
C      1  0.3688640000000  0.5664200000000  0.5703590000000 1.0
C      1  0.4471580000000  0.5298090000000  0.4327740000000 1.0
C      1  0.4733050000000  0.4468270000000  0.5565810000000 1.0
C      1  0.5893310000000  0.4154640000000  0.4385960000000 1.0
C      1  0.4195420000000  0.5320020000000  0.4381370000000 1.0
C      1  0.4436350000000  0.4329540000000  0.4644440000000 1.0
C      1  0.5831290000000  0.4465770000000  0.5491790000000 1.0
C      1  0.4495640000000  0.5074070000000  0.3612150000000 1.0
C      1  0.4536260000000  0.4614530000000  0.5397760000000 1.0
C      1  0.5487070000000  0.6078370000000  0.4282890000000 1.0
C      1  0.5093530000000  0.5607610000000  0.4689840000000 1.0
C      1  0.5011100000000  0.4255700000000  0.5179850000000 1.0
C      1  0.5335450000000  0.4113910000000  0.5793430000000 1.0
C      1  0.5952720000000  0.4376260000000  0.4831790000000 1.0
C      1  0.4797760000000  0.4315700000000  0.4997790000000 1.0
C      1  0.5499950000000  0.4825210000000  0.5687930000000 1.0
C      1  0.5096560000000  0.6261710000000  0.5472730000000 1.0
C      1  0.5991750000000  0.5128350000000  0.5436520000000 1.0
C      1  0.6311530000000  0.4531780000000  0.5510340000000 1.0
C      1  0.4428320000000  0.5493010000000  0.5018940000000 1.0
C      1  0.4078610000000  0.5596540000000  0.5435060000000 1.0
C      1  0.5048470000000  0.4749270000000  0.5039870000000 1.0
C      1  0.4400380000000  0.4174640000000  0.5118200000000 1.0
C      1  0.4848990000000  0.4860490000000  0.3868430000000 1.0
C      1  0.4633060000000  0.5042130000000  0.3853000000000 1.0
C      1  0.4777690000000  0.5142960000000  0.4685000000000 1.0
C      1  0.6005830000000  0.5475130000000  0.5107090000000 1.0
C      1  0.4645350000000  0.4890490000000  0.4663920000000 1.0
C      1  0.5070340000000  0.5134700000000  0.4654580000000 1.0
C      1  0.3776160000000  0.5523530000000  0.4410500000000 1.0
C      1  0.5115480000000  0.4197370000000  0.5666620000000 1.0
C      1  0.5517300000000  0.4895800000000  0.4665280000000 1.0
C      1  0.5316210000000  0.4709890000000  0.5140570000000 1.0
C      1  0.6076530000000  0.4982710000000  0.5896350000000 1.0
C      1  0.5937830000000  0.5244870000000  0.4475020000000 1.0
C      1  0.5431960000000  0.4551130000000  0.4214060000000 1.0
C      1  0.5423340000000  0.4464340000000  0.4644350000000 1.0
C      1  0.4856010000000  0.4718450000000  0.4566570000000 1.0
C      1  0.5040880000000  0.4770340000000  0.4049880000000 1.0
C      1  0.5344420000000  0.5210380000000  0.4254700000000 1.0
C      1  0.3920640000000  0.4801610000000  0.4878280000000 1.0
C      1  0.4233900000000  0.5137440000000  0.3160730000000 1.0
C      1  0.6038100000000  0.4224770000000  0.4605260000000 1.0
C      1  0.5739090000000  0.5452300000000  0.4507880000000 1.0
C      1  0.4688160000000  0.4461590000000  0.5850670000000 1.0
C      1  0.4952800000000  0.4305310000000  0.5462360000000 1.0
C      1  0.5135950000000  0.6281780000000  0.4823400000000 1.0
C      1  0.3527550000000  0.5481600000000  0.5586100000000 1.0
C      1  0.5091130000000  0.3723460000000  0.4977450000000 1.0
C      1  0.5382240000000  0.3718870000000  0.5027030000000 1.0
C      1  0.4967900000000  0.4877000000000  0.5960270000000 1.0
C      1  0.4017120000000  0.5522180000000  0.4275280000000 1.0
C      1  0.4811060000000  0.6031530000000  0.4561240000000 1.0
C      1  0.4963320000000  0.5819930000000  0.5114320000000 1.0
C      1  0.4648090000000  0.5932620000000  0.4785310000000 1.0
C      1  0.5257800000000  0.5842670000000  0.5740480000000 1.0
C      1  0.4355430000000  0.4404900000000  0.5294860000000 1.0
C      1  0.5916030000000  0.5679300000000  0.4936890000000 1.0
C      1  0.5680920000000  0.6173950000000  0.4129710000000 1.0
C      1  0.5940030000000  0.5122780000000  0.4219900000000 1.0
C      1  0.4505400000000  0.4289630000000  0.5959270000000 1.0
C      1  0.5573870000000  0.4021840000000  0.5707810000000 1.0
C      1  0.6110990000000  0.5044770000000  0.6147080000000 1.0
C      1  0.4122810000000  0.6090410000000  0.5972760000000 1.0
C      1  0.5727340000000  0.4913390000000  0.5106940000000 1.0
C      1  0.3580450000000  0.4816920000000  0.5229430000000 1.0
C      1  0.5915160000000  0.5412360000000  0.5385270000000 1.0
C      1  0.5330960000000  0.4755970000000  0.4035530000000 1.0
C      1  0.5069020000000  0.4931780000000  0.5483640000000 1.0
C      1  0.5446060000000  0.4901020000000  0.5955820000000 1.0
C      1  0.5657680000000  0.5507580000000  0.5455800000000 1.0
C      1  0.5774960000000  0.4247340000000  0.5032380000000 1.0
C      1  0.5751590000000  0.5041980000000  0.4045450000000 1.0
C      1  0.5321780000000  0.5092050000000  0.4777580000000 1.0
C      1  0.3952820000000  0.5740890000000  0.5650480000000 1.0
C      1  0.4370000000000  0.5626520000000  0.5462050000000 1.0
C      1  0.6086490000000  0.5129330000000  0.4697970000000 1.0
C      1  0.4701750000000  0.3785360000000  0.5301420000000 1.0
C      1  0.3721980000000  0.4129110000000  0.5019410000000 1.0
C      1  0.5642560000000  0.3987750000000  0.5432400000000 1.0
C      1  0.5953110000000  0.4658760000000  0.4781000000000 1.0
C      1  0.5576190000000  0.4581660000000  0.5552600000000 1.0
C      1  0.4157660000000  0.5419020000000  0.5001860000000 1.0
C      1  0.4363680000000  0.5105930000000  0.3384630000000 1.0
C      1  0.5807730000000  0.5657300000000  0.4691610000000 1.0
C      1  0.5972520000000  0.5029120000000  0.5168570000000 1.0
C      1  0.5875200000000  0.6263950000000  0.3981000000000 1.0
C      1  0.5202290000000  0.5603940000000  0.5615510000000 1.0
C      1  0.4555220000000  0.5191420000000  0.4079640000000 1.0
C      1  0.3738350000000  0.4671620000000  0.5048070000000 1.0
C      1  0.3775840000000  0.5328520000000  0.4624430000000 1.0
C      1  0.5356330000000  0.5192660000000  0.5040620000000 1.0
C      1  0.4808310000000  0.5256880000000  0.5648640000000 1.0
C      1  0.4908170000000  0.4990200000000  0.5707910000000 1.0
C      1  0.4640460000000  0.3831410000000  0.4842470000000 1.0
C      1  0.4419410000000  0.5853700000000  0.5635520000000 1.0
C      1  0.3493180000000  0.5036140000000  0.5355010000000 1.0
C      1  0.4890060000000  0.6282860000000  0.4979780000000 1.0
C      1  0.5392500000000  0.4522370000000  0.5340910000000 1.0
C      1  0.5394940000000  0.4247700000000  0.4260420000000 1.0
C      1  0.4920340000000  0.3819720000000  0.4761700000000 1.0
C      1  0.5029590000000  0.5423540000000  0.5755920000000 1.0
C      1  0.5112600000000  0.5089520000000  0.4376010000000 1.0
C      1  0.5339890000000  0.6316110000000  0.5020130000000 1.0
C      1  0.4516760000000  0.5448640000000  0.5292420000000 1.0
C      1  0.4104470000000  0.4940300000000  0.4717900000000 1.0
C      1  0.5007560000000  0.4616190000000  0.4788820000000 1.0
C      1  0.4666520000000  0.5354340000000  0.4528190000000 1.0
C      1  0.4845180000000  0.5567560000000  0.4555910000000 1.0
C      1  0.5301960000000  0.5674350000000  0.4504970000000 1.0
C      1  0.4373140000000  0.4858900000000  0.4704650000000 1.0
C      1  0.6059080000000  0.4637110000000  0.5542910000000 1.0
C      1  0.5523880000000  0.4134080000000  0.4928850000000 1.0
C      1  0.5719450000000  0.4803850000000  0.4850150000000 1.0
END
