TITL C-3866675-3766-166 389530.225720605 125000 -1195.89179668811 0 0 195 (C1) n - 1
REM
REM in /home/nfs/bkarasulu/CARBON/AIRSS/Generating-Clusters/LCBOP/Only-C1/SD-CG/HFTN-CG/FIRE-CG
REM
REM
REM
REM
REM
REM ./C.cell (11c1c37f851c82e70ff6c80c92926a4b)
REM AIRSS Version 0.9.1 bugfix July 2018 build 013d7b7c2542+ Fri, 06 Jul 2018 19:26:36 +0100
REM compiler GCC version 9.2.1 20190827 (Red Hat 9.2.1-1)
REM options -cpp -mtune=generic -march=x86-64 -g -O0 -fpre-include=/usr/include/finclude/math-vector-fortran.h
REM seed -234388076 -1471801941 638348653 1630262223 -2046601716 -720043020 805257297 2076390930 776672199 1738214140 277491776 1739334442 -222007251 348520268 1607739136 234705926 895314400 -1375793318 -442560251 -845750489 885721857 1262706137 -1109143145 631434501 -1347164389 1230416925 -1093596167 -1583258707 183270720 824790822 624343055 1540452931 -1879120879
REM
CELL 1.54180   50.00000   50.00000   50.00000   90.00000   90.00000   90.00000
LATT -1
SFAC C  
C      1  0.4292920000000  0.5338610000000  0.6127000000000 1.0
C      1  0.6180400000000  0.4592120000000  0.5044940000000 1.0
C      1  0.4398660000000  0.5559120000000  0.4077030000000 1.0
C      1  0.5133470000000  0.5814640000000  0.5880600000000 1.0
C      1  0.4512460000000  0.4718250000000  0.5360960000000 1.0
C      1  0.5250950000000  0.5205470000000  0.4398010000000 1.0
C      1  0.4223580000000  0.5392510000000  0.5084950000000 1.0
C      1  0.5975110000000  0.5579590000000  0.5065850000000 1.0
C      1  0.4839640000000  0.5466030000000  0.6086810000000 1.0
C      1  0.4400110000000  0.6400810000000  0.5276560000000 1.0
C      1  0.3852800000000  0.4806690000000  0.4618680000000 1.0
C      1  0.4067590000000  0.4628230000000  0.4546220000000 1.0
C      1  0.5444790000000  0.5638890000000  0.5093960000000 1.0
C      1  0.5545390000000  0.5901740000000  0.5634280000000 1.0
C      1  0.5266510000000  0.5147190000000  0.3777590000000 1.0
C      1  0.5356570000000  0.4669400000000  0.3768010000000 1.0
C      1  0.5637740000000  0.3916380000000  0.5111880000000 1.0
C      1  0.4170670000000  0.5979590000000  0.5275740000000 1.0
C      1  0.5143070000000  0.5374340000000  0.6075500000000 1.0
C      1  0.3963880000000  0.5438810000000  0.4975960000000 1.0
C      1  0.5416080000000  0.4348250000000  0.4840240000000 1.0
C      1  0.6264230000000  0.5030060000000  0.5328120000000 1.0
C      1  0.4202800000000  0.4391850000000  0.4622480000000 1.0
C      1  0.5075900000000  0.6140830000000  0.5182780000000 1.0
C      1  0.5552550000000  0.5273230000000  0.4811630000000 1.0
C      1  0.4846160000000  0.4839150000000  0.5067600000000 1.0
C      1  0.3809600000000  0.5023450000000  0.4404290000000 1.0
C      1  0.3838840000000  0.5282450000000  0.4536950000000 1.0
C      1  0.4524870000000  0.3882160000000  0.4372290000000 1.0
C      1  0.5609260000000  0.4701040000000  0.5735000000000 1.0
C      1  0.4633490000000  0.4252630000000  0.5259360000000 1.0
C      1  0.5621950000000  0.4444870000000  0.4145390000000 1.0
C      1  0.5251410000000  0.5093760000000  0.5182280000000 1.0
C      1  0.5673140000000  0.4937460000000  0.4017150000000 1.0
C      1  0.4949640000000  0.4196730000000  0.4872560000000 1.0
C      1  0.3981500000000  0.5514590000000  0.4416460000000 1.0
C      1  0.5672310000000  0.4631550000000  0.5228900000000 1.0
C      1  0.5192670000000  0.5098170000000  0.6005130000000 1.0
C      1  0.4195410000000  0.4868910000000  0.4180100000000 1.0
C      1  0.5241960000000  0.4265940000000  0.5593080000000 1.0
C      1  0.5025920000000  0.4842490000000  0.4048140000000 1.0
C      1  0.5230720000000  0.5700580000000  0.5261970000000 1.0
C      1  0.4618480000000  0.5160240000000  0.4291420000000 1.0
C      1  0.4767100000000  0.5664270000000  0.5281390000000 1.0
C      1  0.5187010000000  0.4946600000000  0.4264490000000 1.0
C      1  0.5250190000000  0.5961820000000  0.5655410000000 1.0
C      1  0.4431200000000  0.6037130000000  0.4615110000000 1.0
C      1  0.5440370000000  0.4578440000000  0.5936110000000 1.0
C      1  0.4799390000000  0.5412530000000  0.3759270000000 1.0
C      1  0.5941860000000  0.4932920000000  0.6495690000000 1.0
C      1  0.4381730000000  0.3532380000000  0.5136430000000 1.0
C      1  0.6099360000000  0.5023590000000  0.4621850000000 1.0
C      1  0.5501860000000  0.5180400000000  0.5286890000000 1.0
C      1  0.6073590000000  0.5584970000000  0.4596010000000 1.0
C      1  0.4607400000000  0.3929340000000  0.5782570000000 1.0
C      1  0.4335890000000  0.6169710000000  0.5142740000000 1.0
C      1  0.4651530000000  0.4479420000000  0.5476130000000 1.0
C      1  0.4641360000000  0.5947250000000  0.4436770000000 1.0
C      1  0.5670790000000  0.5138570000000  0.5050400000000 1.0
C      1  0.4257010000000  0.4914830000000  0.4947710000000 1.0
C      1  0.5654620000000  0.6097810000000  0.5136150000000 1.0
C      1  0.4254910000000  0.4820370000000  0.4453530000000 1.0
C      1  0.4102030000000  0.5182830000000  0.5997650000000 1.0
C      1  0.4814930000000  0.4593790000000  0.4657720000000 1.0
C      1  0.5724290000000  0.5637140000000  0.5141660000000 1.0
C      1  0.3972610000000  0.5540280000000  0.5504490000000 1.0
C      1  0.3954210000000  0.5276000000000  0.5558840000000 1.0
C      1  0.5499330000000  0.4454950000000  0.5088100000000 1.0
C      1  0.4440570000000  0.6133770000000  0.4880560000000 1.0
C      1  0.4815950000000  0.4413680000000  0.5709670000000 1.0
C      1  0.4028010000000  0.5065860000000  0.5738140000000 1.0
C      1  0.4375730000000  0.3777680000000  0.5237210000000 1.0
C      1  0.4648360000000  0.5772880000000  0.5509610000000 1.0
C      1  0.3939330000000  0.4950040000000  0.4870730000000 1.0
C      1  0.4791780000000  0.5070570000000  0.5214780000000 1.0
C      1  0.6114970000000  0.4884920000000  0.5731520000000 1.0
C      1  0.5215590000000  0.4743530000000  0.4473020000000 1.0
C      1  0.4898260000000  0.4534890000000  0.5961760000000 1.0
C      1  0.4552630000000  0.5096370000000  0.4024560000000 1.0
C      1  0.4456880000000  0.4023130000000  0.5298210000000 1.0
C      1  0.5614580000000  0.5436360000000  0.4035650000000 1.0
C      1  0.4856950000000  0.4641430000000  0.4171380000000 1.0
C      1  0.4686260000000  0.4645200000000  0.6108170000000 1.0
C      1  0.5239590000000  0.4532600000000  0.5497370000000 1.0
C      1  0.6165780000000  0.5135870000000  0.5584310000000 1.0
C      1  0.5530660000000  0.5183440000000  0.3918450000000 1.0
C      1  0.5181580000000  0.4543340000000  0.6023290000000 1.0
C      1  0.6186940000000  0.5194760000000  0.4829120000000 1.0
C      1  0.5163910000000  0.4874240000000  0.3803780000000 1.0
C      1  0.6014020000000  0.5369760000000  0.5648160000000 1.0
C      1  0.5055770000000  0.5913670000000  0.4200700000000 1.0
C      1  0.4391790000000  0.3659780000000  0.4399540000000 1.0
C      1  0.5755430000000  0.4866530000000  0.5079160000000 1.0
C      1  0.5055810000000  0.6146500000000  0.4912440000000 1.0
C      1  0.5354240000000  0.4856830000000  0.4695910000000 1.0
C      1  0.5108290000000  0.3890850000000  0.5224470000000 1.0
C      1  0.5149920000000  0.5675180000000  0.4128460000000 1.0
C      1  0.4739610000000  0.4375140000000  0.4807250000000 1.0
C      1  0.5732390000000  0.5427220000000  0.5662690000000 1.0
C      1  0.4867370000000  0.3929040000000  0.5661770000000 1.0
C      1  0.5818480000000  0.4064900000000  0.4935950000000 1.0
C      1  0.4027190000000  0.4458460000000  0.5165400000000 1.0
C      1  0.4169620000000  0.5958300000000  0.4535590000000 1.0
C      1  0.5134140000000  0.6041590000000  0.4656660000000 1.0
C      1  0.5571990000000  0.5638750000000  0.5778950000000 1.0
C      1  0.5743420000000  0.3866880000000  0.5369710000000 1.0
C      1  0.6047030000000  0.4883150000000  0.6262360000000 1.0
C      1  0.4557500000000  0.5363630000000  0.3905770000000 1.0
C      1  0.5273840000000  0.4892500000000  0.4970150000000 1.0
C      1  0.4083690000000  0.4775620000000  0.5659160000000 1.0
C      1  0.4413590000000  0.4664590000000  0.5079980000000 1.0
C      1  0.4371730000000  0.4979620000000  0.4663170000000 1.0
C      1  0.4466780000000  0.4372630000000  0.4360620000000 1.0
C      1  0.4406410000000  0.5578120000000  0.5000630000000 1.0
C      1  0.6115210000000  0.4859510000000  0.6007290000000 1.0
C      1  0.4977690000000  0.5423330000000  0.5669490000000 1.0
C      1  0.4054480000000  0.5782040000000  0.5417520000000 1.0
C      1  0.5998010000000  0.4696250000000  0.4313420000000 1.0
C      1  0.4806250000000  0.5588210000000  0.4802260000000 1.0
C      1  0.4576320000000  0.5295110000000  0.6077070000000 1.0
C      1  0.5477460000000  0.4312950000000  0.4361670000000 1.0
C      1  0.5667390000000  0.6030820000000  0.5404200000000 1.0
C      1  0.4934060000000  0.5993010000000  0.4444570000000 1.0
C      1  0.5585290000000  0.6065580000000  0.4871180000000 1.0
C      1  0.5165080000000  0.4775700000000  0.5583980000000 1.0
C      1  0.5001200000000  0.3769580000000  0.5464260000000 1.0
C      1  0.5014170000000  0.5242810000000  0.5221960000000 1.0
C      1  0.4408850000000  0.4105410000000  0.5847680000000 1.0
C      1  0.4553240000000  0.5052750000000  0.5909000000000 1.0
C      1  0.6197180000000  0.4746020000000  0.5281910000000 1.0
C      1  0.5770850000000  0.4611610000000  0.5506110000000 1.0
C      1  0.4840880000000  0.5075660000000  0.4667010000000 1.0
C      1  0.5465400000000  0.4121380000000  0.5673380000000 1.0
C      1  0.5325290000000  0.3629880000000  0.4878830000000 1.0
C      1  0.3956720000000  0.5015820000000  0.4151170000000 1.0
C      1  0.5667120000000  0.3960640000000  0.5608130000000 1.0
C      1  0.5082490000000  0.5487100000000  0.4767390000000 1.0
C      1  0.5200740000000  0.4197560000000  0.4434290000000 1.0
C      1  0.5096910000000  0.4985900000000  0.5757400000000 1.0
C      1  0.5583400000000  0.5207380000000  0.5555160000000 1.0
C      1  0.4858320000000  0.5741340000000  0.5957690000000 1.0
C      1  0.4832170000000  0.4832330000000  0.4795580000000 1.0
C      1  0.4647150000000  0.4134220000000  0.4350220000000 1.0
C      1  0.4974320000000  0.4594630000000  0.4432570000000 1.0
C      1  0.3997830000000  0.5744110000000  0.4586320000000 1.0
C      1  0.4593130000000  0.5452700000000  0.4667960000000 1.0
C      1  0.5697220000000  0.5574220000000  0.4278770000000 1.0
C      1  0.5474650000000  0.5109130000000  0.4594590000000 1.0
C      1  0.4539630000000  0.5768840000000  0.4221860000000 1.0
C      1  0.4654430000000  0.5683500000000  0.5032440000000 1.0
C      1  0.4317500000000  0.5132390000000  0.5165550000000 1.0
C      1  0.4578060000000  0.5175020000000  0.4578280000000 1.0
C      1  0.4573770000000  0.4596870000000  0.4155160000000 1.0
C      1  0.4107770000000  0.4350490000000  0.4910610000000 1.0
C      1  0.5973220000000  0.5160620000000  0.4386570000000 1.0
C      1  0.5892190000000  0.4950200000000  0.4203740000000 1.0
C      1  0.4983760000000  0.4186100000000  0.5669170000000 1.0
C      1  0.4552480000000  0.4416370000000  0.5014020000000 1.0
C      1  0.4121510000000  0.5479660000000  0.4160130000000 1.0
C      1  0.5584380000000  0.4982640000000  0.5722520000000 1.0
C      1  0.4287090000000  0.4348210000000  0.5859750000000 1.0
C      1  0.5560540000000  0.5790920000000  0.4436320000000 1.0
C      1  0.4933940000000  0.4093320000000  0.5126770000000 1.0
C      1  0.5870630000000  0.4298190000000  0.4762380000000 1.0
C      1  0.5616820000000  0.4344820000000  0.4627500000000 1.0
C      1  0.5925690000000  0.5445660000000  0.4398830000000 1.0
C      1  0.5323340000000  0.5590210000000  0.5954700000000 1.0
C      1  0.5363390000000  0.5492930000000  0.4864940000000 1.0
C      1  0.6058520000000  0.4525910000000  0.4793030000000 1.0
C      1  0.4939670000000  0.4140640000000  0.4320180000000 1.0
C      1  0.3862420000000  0.5227270000000  0.4823890000000 1.0
C      1  0.4015560000000  0.4617440000000  0.5402560000000 1.0
C      1  0.5167840000000  0.5957120000000  0.5377680000000 1.0
C      1  0.3993940000000  0.5264890000000  0.4016910000000 1.0
C      1  0.4432630000000  0.4828550000000  0.4032200000000 1.0
C      1  0.5011590000000  0.5523790000000  0.5260330000000 1.0
C      1  0.4475740000000  0.4789100000000  0.5984830000000 1.0
C      1  0.4906830000000  0.5165550000000  0.5655580000000 1.0
C      1  0.5358020000000  0.3822160000000  0.5077270000000 1.0
C      1  0.4635160000000  0.5095750000000  0.5645450000000 1.0
C      1  0.5558870000000  0.4666200000000  0.3966000000000 1.0
C      1  0.4536790000000  0.5030790000000  0.5374290000000 1.0
C      1  0.6080560000000  0.4731780000000  0.4589080000000 1.0
C      1  0.5903400000000  0.4458120000000  0.4199780000000 1.0
C      1  0.4267280000000  0.4635670000000  0.5847200000000 1.0
C      1  0.5058700000000  0.5337230000000  0.3720560000000 1.0
C      1  0.6049940000000  0.4680270000000  0.5531190000000 1.0
C      1  0.5044020000000  0.5254580000000  0.4607000000000 1.0
C      1  0.5219860000000  0.5436420000000  0.4221820000000 1.0
C      1  0.6119640000000  0.5470410000000  0.4851650000000 1.0
C      1  0.5187170000000  0.4221140000000  0.4729680000000 1.0
C      1  0.3915750000000  0.5692850000000  0.4854860000000 1.0
C      1  0.5429540000000  0.5970060000000  0.4638500000000 1.0
C      1  0.4441070000000  0.3306340000000  0.5020720000000 1.0
C      1  0.4658730000000  0.5818430000000  0.5773550000000 1.0
END
