TITL C-3866669-3764-498 7.77093167040309e-07 125000 -311.453012242226 0 0 52 (C1) n - 1
REM
REM in /home/nfs/bkarasulu/CARBON/AIRSS/Generating-Clusters/LCBOP/Only-C1/SD-CG/FIRE-CG
REM
REM
REM
REM
REM
REM ./C.cell (11c1c37f851c82e70ff6c80c92926a4b)
REM AIRSS Version 0.9.1 bugfix July 2018 build 013d7b7c2542+ Fri, 06 Jul 2018 19:26:36 +0100
REM compiler GCC version 9.2.1 20190827 (Red Hat 9.2.1-1)
REM options -cpp -mtune=generic -march=x86-64 -g -O0 -fpre-include=/usr/include/finclude/math-vector-fortran.h
REM seed 939152521 -1126620621 -1370506409 -569994287 -2001251170 1828621561 -1974113780 -1235318496 -1675654674 -668924629 -1577328418 411596686 -1395904487 -1004905225 -1720014948 1702882548 1570953011 1904893255 1374280717 -757412460 -2127755506 -907735055 -856552449 839506165 934251211 -757089500 1560539062 68140001 1972251227 -847671372 -1693339597 -98237981 261634168
REM
CELL 1.54180   50.00000   50.00000   50.00000   90.00000   90.00000   90.00000
LATT -1
SFAC C  
C      1  0.4303820000000  0.4706930000000  0.4645180000000 1.0
C      1  0.4134880000000  0.4691550000000  0.5127430000000 1.0
C      1  0.5379850000000  0.5362360000000  0.5471890000000 1.0
C      1  0.5193930000000  0.5519040000000  0.5318180000000 1.0
C      1  0.4593500000000  0.5338050000000  0.4725510000000 1.0
C      1  0.4544180000000  0.4637220000000  0.4495740000000 1.0
C      1  0.4458590000000  0.5142560000000  0.4548560000000 1.0
C      1  0.5471120000000  0.4905100000000  0.5575260000000 1.0
C      1  0.4221090000000  0.4874170000000  0.5316570000000 1.0
C      1  0.5143180000000  0.4559340000000  0.5493930000000 1.0
C      1  0.4919480000000  0.5521950000000  0.5408200000000 1.0
C      1  0.5406370000000  0.4979050000000  0.4388410000000 1.0
C      1  0.4733810000000  0.4455370000000  0.4617940000000 1.0
C      1  0.5575450000000  0.5358090000000  0.4678920000000 1.0
C      1  0.4873030000000  0.5301390000000  0.4673270000000 1.0
C      1  0.4933080000000  0.5026750000000  0.4714740000000 1.0
C      1  0.4578390000000  0.4796180000000  0.5026940000000 1.0
C      1  0.4935430000000  0.5032950000000  0.5350110000000 1.0
C      1  0.5570420000000  0.4924710000000  0.4858900000000 1.0
C      1  0.4487000000000  0.4959690000000  0.5255710000000 1.0
C      1  0.5447710000000  0.4546650000000  0.5105690000000 1.0
C      1  0.5011080000000  0.5454600000000  0.4481560000000 1.0
C      1  0.5571740000000  0.5071600000000  0.4609200000000 1.0
C      1  0.4231850000000  0.4982660000000  0.4590050000000 1.0
C      1  0.4564280000000  0.5458800000000  0.4987200000000 1.0
C      1  0.4941220000000  0.4896930000000  0.4451660000000 1.0
C      1  0.4873290000000  0.4816520000000  0.4930250000000 1.0
C      1  0.4966870000000  0.4360330000000  0.5373290000000 1.0
C      1  0.5479100000000  0.5538680000000  0.4485480000000 1.0
C      1  0.5319310000000  0.5191740000000  0.4214780000000 1.0
C      1  0.4960150000000  0.5210680000000  0.5805120000000 1.0
C      1  0.5056300000000  0.4867930000000  0.5160500000000 1.0
C      1  0.4678190000000  0.5144960000000  0.5331340000000 1.0
C      1  0.5462720000000  0.4660150000000  0.4850350000000 1.0
C      1  0.4334750000000  0.4660830000000  0.4921720000000 1.0
C      1  0.4667110000000  0.4878680000000  0.4391800000000 1.0
C      1  0.5243640000000  0.4675140000000  0.5247970000000 1.0
C      1  0.4693480000000  0.5418910000000  0.5242880000000 1.0
C      1  0.5309050000000  0.5554610000000  0.5061730000000 1.0
C      1  0.5056940000000  0.4956720000000  0.5815230000000 1.0
C      1  0.5609290000000  0.4348790000000  0.5197290000000 1.0
C      1  0.5553140000000  0.5115000000000  0.5093390000000 1.0
C      1  0.5502480000000  0.5117170000000  0.5383570000000 1.0
C      1  0.4954170000000  0.4522170000000  0.4823300000000 1.0
C      1  0.5230040000000  0.4771550000000  0.5681470000000 1.0
C      1  0.5255110000000  0.5442860000000  0.4338540000000 1.0
C      1  0.4935430000000  0.4349470000000  0.5093240000000 1.0
C      1  0.5203200000000  0.4780710000000  0.4448460000000 1.0
C      1  0.4795970000000  0.5665800000000  0.5861080000000 1.0
C      1  0.5237080000000  0.4599490000000  0.4677400000000 1.0
C      1  0.5508310000000  0.5379600000000  0.4956860000000 1.0
C      1  0.4890360000000  0.5467810000000  0.5696210000000 1.0
END
