TITL C-3866670-4165-573 1.0085336381183 125000 -308.038296830014 0 0 52 (C1) n - 1
REM
REM in /home/nfs/bkarasulu/CARBON/AIRSS/Generating-Clusters/LCBOP/Only-C1/SD-CG/FIRE-CG
REM
REM
REM
REM
REM
REM ./C.cell (11c1c37f851c82e70ff6c80c92926a4b)
REM AIRSS Version 0.9.1 bugfix July 2018 build 013d7b7c2542+ Fri, 06 Jul 2018 19:26:36 +0100
REM compiler GCC version 9.2.1 20190827 (Red Hat 9.2.1-1)
REM options -cpp -mtune=generic -march=x86-64 -g -O0 -fpre-include=/usr/include/finclude/math-vector-fortran.h
REM seed -1480513997 2088537525 132289678 544871265 1907552105 955812066 -1511903708 -370274749 39709538 1110289310 -98704645 -866348147 55250207 -1942619987 -1705884419 -1764837188 1195708939 -1209356365 1862546898 1860508635 -268533135 101454164 1808340703 -934185244 675621882 -805246398 -1957942776 -1247831748 1140480317 1844962037 2074321534 -708851721 -553609528
REM
CELL 1.54180   50.00000   50.00000   50.00000   90.00000   90.00000   90.00000
LATT -1
SFAC C  
C      1  0.4026910000000  0.4878490000000  0.5262060000000 1.0
C      1  0.3772070000000  0.4890540000000  0.5333480000000 1.0
C      1  0.5154950000000  0.4407830000000  0.4330390000000 1.0
C      1  0.4525070000000  0.4935420000000  0.4750390000000 1.0
C      1  0.4693370000000  0.6475440000000  0.5427500000000 1.0
C      1  0.4590220000000  0.4018960000000  0.5208850000000 1.0
C      1  0.5557680000000  0.5173600000000  0.5692210000000 1.0
C      1  0.5266650000000  0.4332480000000  0.5160710000000 1.0
C      1  0.5008000000000  0.4207900000000  0.5188130000000 1.0
C      1  0.4564650000000  0.6278100000000  0.5306180000000 1.0
C      1  0.4622990000000  0.4463690000000  0.4686100000000 1.0
C      1  0.6121640000000  0.5099630000000  0.4231010000000 1.0
C      1  0.5649290000000  0.5004050000000  0.4648960000000 1.0
C      1  0.4330590000000  0.5579000000000  0.5026210000000 1.0
C      1  0.4747460000000  0.4277700000000  0.4538330000000 1.0
C      1  0.4455740000000  0.6063480000000  0.5195220000000 1.0
C      1  0.3521250000000  0.4903670000000  0.5403330000000 1.0
C      1  0.4328370000000  0.5318220000000  0.4979600000000 1.0
C      1  0.5026290000000  0.4235540000000  0.4511270000000 1.0
C      1  0.4739000000000  0.4980800000000  0.4294960000000 1.0
C      1  0.5434670000000  0.5945640000000  0.5818870000000 1.0
C      1  0.5488220000000  0.4689480000000  0.5493850000000 1.0
C      1  0.5541320000000  0.4922990000000  0.5607460000000 1.0
C      1  0.4744130000000  0.4245410000000  0.5308150000000 1.0
C      1  0.4564130000000  0.5038760000000  0.4491030000000 1.0
C      1  0.4375150000000  0.5829630000000  0.5100020000000 1.0
C      1  0.5179600000000  0.4677660000000  0.4252290000000 1.0
C      1  0.5540960000000  0.5431070000000  0.5752830000000 1.0
C      1  0.4689010000000  0.4709270000000  0.4803480000000 1.0
C      1  0.5364530000000  0.6196090000000  0.5837070000000 1.0
C      1  0.4945380000000  0.4762810000000  0.4902710000000 1.0
C      1  0.5497350000000  0.5689330000000  0.5793340000000 1.0
C      1  0.4377740000000  0.5043590000000  0.4966520000000 1.0
C      1  0.4295140000000  0.4874710000000  0.5182810000000 1.0
C      1  0.5424710000000  0.4951350000000  0.4806750000000 1.0
C      1  0.4975520000000  0.4017800000000  0.4950370000000 1.0
C      1  0.5353210000000  0.4268740000000  0.4891550000000 1.0
C      1  0.5431560000000  0.4798510000000  0.4259390000000 1.0
C      1  0.4973700000000  0.6841190000000  0.5680550000000 1.0
C      1  0.4950900000000  0.4838330000000  0.4215180000000 1.0
C      1  0.5652020000000  0.4929180000000  0.4370570000000 1.0
C      1  0.4474460000000  0.4702430000000  0.5314740000000 1.0
C      1  0.6119110000000  0.5219890000000  0.4692860000000 1.0
C      1  0.6237340000000  0.5207860000000  0.4450060000000 1.0
C      1  0.5398090000000  0.4488600000000  0.5346420000000 1.0
C      1  0.4832920000000  0.6661800000000  0.5554210000000 1.0
C      1  0.5149970000000  0.4124270000000  0.4741460000000 1.0
C      1  0.4721990000000  0.3892410000000  0.5000860000000 1.0
C      1  0.4624130000000  0.4488840000000  0.5371210000000 1.0
C      1  0.5877780000000  0.4987510000000  0.4211940000000 1.0
C      1  0.5188510000000  0.4869120000000  0.4894970000000 1.0
C      1  0.5874550000000  0.5131200000000  0.4761590000000 1.0
END
