TITL C-3866674-3872-54 0.16705184277882 125000 -1041.10692300797 0 0 171 (C1) n - 1
REM
REM in /home/nfs/bkarasulu/CARBON/AIRSS/Generating-Clusters/LCBOP/Only-C1/SD-CG/HFTN-CG/FIRE-CG
REM
REM
REM
REM
REM
REM ./C.cell (11c1c37f851c82e70ff6c80c92926a4b)
REM AIRSS Version 0.9.1 bugfix July 2018 build 013d7b7c2542+ Fri, 06 Jul 2018 19:26:36 +0100
REM compiler GCC version 9.2.1 20190827 (Red Hat 9.2.1-1)
REM options -cpp -mtune=generic -march=x86-64 -g -O0 -fpre-include=/usr/include/finclude/math-vector-fortran.h
REM seed -462578602 1329016321 -1559435749 406693232 358618534 -857906902 1243344597 -220894011 51927474 1176217498 250386225 1295472569 -2014704840 -1002909973 254112250 -220539721 -815008842 -1751383681 -1973998711 -1893789448 410224087 1087430495 185789888 1819625115 -1300471420 -1908406138 -1387988127 1693289523 -2002542913 -2065078685 -762072247 -2004399631 -794847932
REM
CELL 1.54180   50.00000   50.00000   50.00000   90.00000   90.00000   90.00000
LATT -1
SFAC C  
C      1  0.4768690000000  0.3894980000000  0.4747360000000 1.0
C      1  0.5000070000000  0.5661280000000  0.4543160000000 1.0
C      1  0.6689090000000  0.5453590000000  0.4931880000000 1.0
C      1  0.4831020000000  0.4090760000000  0.4280650000000 1.0
C      1  0.4587420000000  0.5379200000000  0.4651440000000 1.0
C      1  0.4585230000000  0.5492070000000  0.4407070000000 1.0
C      1  0.3928390000000  0.4377110000000  0.5275420000000 1.0
C      1  0.4030580000000  0.4270450000000  0.5503000000000 1.0
C      1  0.4219460000000  0.4219690000000  0.5692070000000 1.0
C      1  0.4220440000000  0.4145460000000  0.4739270000000 1.0
C      1  0.5625630000000  0.4471930000000  0.5723370000000 1.0
C      1  0.4257970000000  0.5049210000000  0.4097140000000 1.0
C      1  0.5703190000000  0.4779020000000  0.5106690000000 1.0
C      1  0.4797800000000  0.5406580000000  0.5155660000000 1.0
C      1  0.4983870000000  0.5163860000000  0.5038800000000 1.0
C      1  0.5598410000000  0.5186250000000  0.4799070000000 1.0
C      1  0.4895090000000  0.4626570000000  0.3735340000000 1.0
C      1  0.4969790000000  0.4284890000000  0.4122150000000 1.0
C      1  0.4766330000000  0.5804800000000  0.4719770000000 1.0
C      1  0.4470540000000  0.4315150000000  0.5784680000000 1.0
C      1  0.5595630000000  0.4877800000000  0.4855690000000 1.0
C      1  0.5223540000000  0.6206110000000  0.4960730000000 1.0
C      1  0.4826890000000  0.5339520000000  0.5498050000000 1.0
C      1  0.4138780000000  0.4880210000000  0.4303140000000 1.0
C      1  0.5202120000000  0.4427040000000  0.4215240000000 1.0
C      1  0.4703280000000  0.4513070000000  0.5422060000000 1.0
C      1  0.5328720000000  0.4897890000000  0.5452290000000 1.0
C      1  0.6043040000000  0.5212970000000  0.5205300000000 1.0
C      1  0.4593760000000  0.4982050000000  0.5958550000000 1.0
C      1  0.5575990000000  0.4717770000000  0.5881030000000 1.0
C      1  0.4190570000000  0.4601240000000  0.4278250000000 1.0
C      1  0.4053120000000  0.5792890000000  0.4675340000000 1.0
C      1  0.4713290000000  0.5563610000000  0.4167170000000 1.0
C      1  0.5230100000000  0.5523220000000  0.4147270000000 1.0
C      1  0.3887270000000  0.5670330000000  0.4863030000000 1.0
C      1  0.5384090000000  0.4475030000000  0.5337940000000 1.0
C      1  0.4442960000000  0.4603570000000  0.5086370000000 1.0
C      1  0.4511730000000  0.5923650000000  0.4578620000000 1.0
C      1  0.6163840000000  0.5391510000000  0.5021780000000 1.0
C      1  0.4394940000000  0.4437380000000  0.4387400000000 1.0
C      1  0.4612500000000  0.6091970000000  0.5131020000000 1.0
C      1  0.5297740000000  0.5396630000000  0.5820680000000 1.0
C      1  0.5476100000000  0.3980910000000  0.5373400000000 1.0
C      1  0.5156580000000  0.4424840000000  0.5178190000000 1.0
C      1  0.5271470000000  0.5236060000000  0.5152190000000 1.0
C      1  0.5079370000000  0.4765750000000  0.4806080000000 1.0
C      1  0.5294290000000  0.4944660000000  0.6627370000000 1.0
C      1  0.5186180000000  0.5289130000000  0.3946520000000 1.0
C      1  0.5283770000000  0.5167060000000  0.5420000000000 1.0
C      1  0.5320250000000  0.6081280000000  0.4731510000000 1.0
C      1  0.5676280000000  0.5215250000000  0.3960070000000 1.0
C      1  0.4964370000000  0.5201420000000  0.4736290000000 1.0
C      1  0.5509120000000  0.4155300000000  0.4570030000000 1.0
C      1  0.3843710000000  0.5418930000000  0.5327170000000 1.0
C      1  0.5119110000000  0.6218250000000  0.5217410000000 1.0
C      1  0.5436150000000  0.4330240000000  0.4341530000000 1.0
C      1  0.5393610000000  0.5031790000000  0.4423040000000 1.0
C      1  0.4963810000000  0.4887400000000  0.3711750000000 1.0
C      1  0.4661660000000  0.5540120000000  0.4859330000000 1.0
C      1  0.4999890000000  0.3908070000000  0.5246920000000 1.0
C      1  0.3831850000000  0.5545590000000  0.5092540000000 1.0
C      1  0.4693130000000  0.5484620000000  0.5731640000000 1.0
C      1  0.5035260000000  0.5636860000000  0.5155370000000 1.0
C      1  0.3912810000000  0.5291900000000  0.5551480000000 1.0
C      1  0.5494050000000  0.5622380000000  0.4376760000000 1.0
C      1  0.4041060000000  0.4813220000000  0.5066430000000 1.0
C      1  0.5131650000000  0.5317120000000  0.5597930000000 1.0
C      1  0.4301500000000  0.4812170000000  0.5228240000000 1.0
C      1  0.4540740000000  0.5286680000000  0.5905850000000 1.0
C      1  0.5814920000000  0.4133430000000  0.4555150000000 1.0
C      1  0.4146840000000  0.4903900000000  0.5758130000000 1.0
C      1  0.4848700000000  0.4839000000000  0.5920470000000 1.0
C      1  0.5889810000000  0.4316150000000  0.4784090000000 1.0
C      1  0.5767590000000  0.5204990000000  0.4228860000000 1.0
C      1  0.4265420000000  0.5349060000000  0.4097560000000 1.0
C      1  0.3935720000000  0.5280690000000  0.4448850000000 1.0
C      1  0.6470210000000  0.4593370000000  0.5264220000000 1.0
C      1  0.4997230000000  0.4307940000000  0.4748510000000 1.0
C      1  0.5450200000000  0.4191540000000  0.4854290000000 1.0
C      1  0.4470130000000  0.5222250000000  0.5128810000000 1.0
C      1  0.4783530000000  0.6003070000000  0.4943370000000 1.0
C      1  0.5812590000000  0.5380290000000  0.4683630000000 1.0
C      1  0.4116610000000  0.5729000000000  0.4391370000000 1.0
C      1  0.4368640000000  0.4568970000000  0.4821750000000 1.0
C      1  0.5015340000000  0.6122520000000  0.5456390000000 1.0
C      1  0.4656980000000  0.4017310000000  0.4501370000000 1.0
C      1  0.5134290000000  0.5404740000000  0.4636080000000 1.0
C      1  0.4800140000000  0.4440620000000  0.4636500000000 1.0
C      1  0.4472080000000  0.5027020000000  0.5329110000000 1.0
C      1  0.4458900000000  0.4121510000000  0.5167460000000 1.0
C      1  0.6433740000000  0.5425440000000  0.4975630000000 1.0
C      1  0.5769240000000  0.5619290000000  0.5434180000000 1.0
C      1  0.4982360000000  0.5635640000000  0.4247340000000 1.0
C      1  0.5508360000000  0.4731000000000  0.5306620000000 1.0
C      1  0.5197120000000  0.4286020000000  0.4937540000000 1.0
C      1  0.4660020000000  0.5199750000000  0.3865680000000 1.0
C      1  0.4506960000000  0.5113490000000  0.4673870000000 1.0
C      1  0.5422340000000  0.5179980000000  0.5965880000000 1.0
C      1  0.5911600000000  0.4585000000000  0.4656900000000 1.0
C      1  0.5449690000000  0.5823110000000  0.4668720000000 1.0
C      1  0.5702150000000  0.4159710000000  0.5298760000000 1.0
C      1  0.5383300000000  0.5669560000000  0.5792620000000 1.0
C      1  0.5417350000000  0.5113940000000  0.3903320000000 1.0
C      1  0.4700700000000  0.5061520000000  0.5500590000000 1.0
C      1  0.4882970000000  0.3869020000000  0.4998870000000 1.0
C      1  0.5889600000000  0.5416990000000  0.5598090000000 1.0
C      1  0.5359180000000  0.4833310000000  0.3943540000000 1.0
C      1  0.4711460000000  0.4220960000000  0.5906040000000 1.0
C      1  0.4081080000000  0.5468260000000  0.4287040000000 1.0
C      1  0.4954440000000  0.4625600000000  0.5279320000000 1.0
C      1  0.4330710000000  0.5127520000000  0.4894520000000 1.0
C      1  0.5152090000000  0.4893600000000  0.4363920000000 1.0
C      1  0.4408070000000  0.4800490000000  0.5802840000000 1.0
C      1  0.4078480000000  0.4993670000000  0.4833270000000 1.0
C      1  0.4074780000000  0.5179130000000  0.5749990000000 1.0
C      1  0.5038560000000  0.4612930000000  0.5983570000000 1.0
C      1  0.5374290000000  0.4386690000000  0.5609720000000 1.0
C      1  0.4282600000000  0.5945880000000  0.4766070000000 1.0
C      1  0.5188880000000  0.3998560000000  0.5452710000000 1.0
C      1  0.5389900000000  0.5875620000000  0.5370330000000 1.0
C      1  0.6223120000000  0.4656020000000  0.5209850000000 1.0
C      1  0.5778490000000  0.4691960000000  0.4411360000000 1.0
C      1  0.4649750000000  0.4887760000000  0.4570240000000 1.0
C      1  0.4475340000000  0.4980390000000  0.3919030000000 1.0
C      1  0.4979010000000  0.4329180000000  0.5876720000000 1.0
C      1  0.4957920000000  0.5933520000000  0.5675680000000 1.0
C      1  0.5845270000000  0.5181740000000  0.5729230000000 1.0
C      1  0.5293510000000  0.5749750000000  0.5137790000000 1.0
C      1  0.4886810000000  0.4901130000000  0.5646180000000 1.0
C      1  0.5697030000000  0.4456870000000  0.4256710000000 1.0
C      1  0.5972470000000  0.4720530000000  0.5151900000000 1.0
C      1  0.5766800000000  0.5665080000000  0.5075600000000 1.0
C      1  0.5706070000000  0.4230930000000  0.5009290000000 1.0
C      1  0.4545440000000  0.4381470000000  0.5225340000000 1.0
C      1  0.5081130000000  0.4774160000000  0.5502260000000 1.0
C      1  0.4396410000000  0.4160590000000  0.4504150000000 1.0
C      1  0.4948990000000  0.4927870000000  0.4584410000000 1.0
C      1  0.4938630000000  0.5151890000000  0.3830830000000 1.0
C      1  0.5175610000000  0.5859040000000  0.5844020000000 1.0
C      1  0.5205760000000  0.4709110000000  0.4154910000000 1.0
C      1  0.4957860000000  0.4847200000000  0.5060450000000 1.0
C      1  0.4016280000000  0.5018360000000  0.4539140000000 1.0
C      1  0.5949350000000  0.5529220000000  0.4892980000000 1.0
C      1  0.4364450000000  0.5875780000000  0.4333370000000 1.0
C      1  0.5540880000000  0.5266150000000  0.5074800000000 1.0
C      1  0.4313400000000  0.4005400000000  0.4969280000000 1.0
C      1  0.4556180000000  0.4600670000000  0.4593620000000 1.0
C      1  0.5193210000000  0.5067070000000  0.6404140000000 1.0
C      1  0.5771330000000  0.5206950000000  0.5233770000000 1.0
C      1  0.5808440000000  0.4324100000000  0.5535260000000 1.0
C      1  0.4709470000000  0.5776120000000  0.5697770000000 1.0
C      1  0.5307450000000  0.4723910000000  0.6039940000000 1.0
C      1  0.4867830000000  0.4400650000000  0.3881790000000 1.0
C      1  0.4996220000000  0.5256070000000  0.6425980000000 1.0
C      1  0.3961880000000  0.4527500000000  0.5032890000000 1.0
C      1  0.5543860000000  0.5741520000000  0.5560820000000 1.0
C      1  0.4467450000000  0.6043660000000  0.5350280000000 1.0
C      1  0.4537780000000  0.5433610000000  0.3979080000000 1.0
C      1  0.4255670000000  0.5339290000000  0.5900410000000 1.0
C      1  0.4534430000000  0.4571670000000  0.5663960000000 1.0
C      1  0.4120270000000  0.4408530000000  0.4814790000000 1.0
C      1  0.5508260000000  0.5724660000000  0.4945940000000 1.0
C      1  0.5157040000000  0.4209150000000  0.5672380000000 1.0
C      1  0.5359080000000  0.4738310000000  0.4783290000000 1.0
C      1  0.5294560000000  0.4998910000000  0.6150420000000 1.0
C      1  0.5737510000000  0.5439680000000  0.4404040000000 1.0
C      1  0.5885930000000  0.4233150000000  0.4291560000000 1.0
C      1  0.4487230000000  0.5906420000000  0.5580080000000 1.0
C      1  0.5376260000000  0.5250100000000  0.4605980000000 1.0
C      1  0.5671680000000  0.4954920000000  0.4355800000000 1.0
C      1  0.5646620000000  0.5017950000000  0.5851000000000 1.0
END
