TITL C-3866669-3764-446 -2.17133597562584e-05 125000 -746.112861689997 0 0 121 (C1) n - 1
REM
REM in /home/nfs/bkarasulu/CARBON/AIRSS/Generating-Clusters/LCBOP/Only-C1/SD-CG/FIRE-CG
REM
REM
REM
REM
REM
REM ./C.cell (11c1c37f851c82e70ff6c80c92926a4b)
REM AIRSS Version 0.9.1 bugfix July 2018 build 013d7b7c2542+ Fri, 06 Jul 2018 19:26:36 +0100
REM compiler GCC version 9.2.1 20190827 (Red Hat 9.2.1-1)
REM options -cpp -mtune=generic -march=x86-64 -g -O0 -fpre-include=/usr/include/finclude/math-vector-fortran.h
REM seed -532934065 -1502133452 858109082 1810553276 -142183581 189185847 -1168254567 326408208 -1556387811 1891678986 -1220327178 1803992023 -531912912 220727266 1841165616 174410104 -18637925 -1751785355 1154913907 1766599359 995194234 -488838176 1425624307 17220167 1589812312 -303980481 -2117066425 608411453 562792909 -1661123 -1726464825 1910451709 -1153919564
REM
CELL 1.54180   50.00000   50.00000   50.00000   90.00000   90.00000   90.00000
LATT -1
SFAC C  
C      1  0.4918390000000  0.5528980000000  0.4330580000000 1.0
C      1  0.4648690000000  0.4502840000000  0.4470400000000 1.0
C      1  0.6027900000000  0.5558830000000  0.4749120000000 1.0
C      1  0.4344140000000  0.4986070000000  0.4193850000000 1.0
C      1  0.4402100000000  0.4459790000000  0.5505310000000 1.0
C      1  0.5108340000000  0.5248720000000  0.6031180000000 1.0
C      1  0.4253920000000  0.5195860000000  0.3768000000000 1.0
C      1  0.4908580000000  0.5258770000000  0.5364720000000 1.0
C      1  0.4878040000000  0.4531500000000  0.5968360000000 1.0
C      1  0.4951460000000  0.4604410000000  0.3984790000000 1.0
C      1  0.5381100000000  0.4814880000000  0.5450520000000 1.0
C      1  0.5195180000000  0.5874070000000  0.4487760000000 1.0
C      1  0.5606700000000  0.5384450000000  0.5003320000000 1.0
C      1  0.4922150000000  0.4298430000000  0.4801970000000 1.0
C      1  0.4528230000000  0.3713410000000  0.5576470000000 1.0
C      1  0.4881870000000  0.4045620000000  0.5554850000000 1.0
C      1  0.5528060000000  0.4766540000000  0.4043190000000 1.0
C      1  0.4064650000000  0.5804420000000  0.4743750000000 1.0
C      1  0.5366660000000  0.4397160000000  0.5928960000000 1.0
C      1  0.4757990000000  0.5501040000000  0.5785200000000 1.0
C      1  0.4805400000000  0.4746690000000  0.4849340000000 1.0
C      1  0.5054660000000  0.4483380000000  0.5396750000000 1.0
C      1  0.5547480000000  0.5109650000000  0.4592930000000 1.0
C      1  0.5113800000000  0.4740730000000  0.5517790000000 1.0
C      1  0.5429600000000  0.5501430000000  0.4247140000000 1.0
C      1  0.5749720000000  0.4068440000000  0.5869480000000 1.0
C      1  0.5184360000000  0.5644790000000  0.4320190000000 1.0
C      1  0.4426650000000  0.5151230000000  0.3976210000000 1.0
C      1  0.5525070000000  0.4169390000000  0.5976450000000 1.0
C      1  0.6105970000000  0.5777340000000  0.4327120000000 1.0
C      1  0.4380030000000  0.4599190000000  0.4525200000000 1.0
C      1  0.4445560000000  0.5101760000000  0.4648270000000 1.0
C      1  0.4567310000000  0.5438990000000  0.5011490000000 1.0
C      1  0.4507380000000  0.4979250000000  0.5329920000000 1.0
C      1  0.4150800000000  0.5337990000000  0.5498530000000 1.0
C      1  0.5425250000000  0.5259380000000  0.4078520000000 1.0
C      1  0.4432600000000  0.4189430000000  0.5572230000000 1.0
C      1  0.4158280000000  0.5271630000000  0.5211310000000 1.0
C      1  0.4894220000000  0.4862290000000  0.4083470000000 1.0
C      1  0.5763330000000  0.4549020000000  0.5403200000000 1.0
C      1  0.4987670000000  0.5664030000000  0.4874370000000 1.0
C      1  0.5027370000000  0.4247980000000  0.4302750000000 1.0
C      1  0.5193710000000  0.4504580000000  0.5141870000000 1.0
C      1  0.5914650000000  0.4139960000000  0.5670190000000 1.0
C      1  0.4141600000000  0.4749220000000  0.5182020000000 1.0
C      1  0.4887740000000  0.4960080000000  0.5011810000000 1.0
C      1  0.5044150000000  0.5876910000000  0.5610110000000 1.0
C      1  0.3997180000000  0.5865910000000  0.4499660000000 1.0
C      1  0.4124570000000  0.5886590000000  0.5226130000000 1.0
C      1  0.5929980000000  0.5632490000000  0.4491270000000 1.0
C      1  0.3779480000000  0.4224380000000  0.4740380000000 1.0
C      1  0.5190080000000  0.4338310000000  0.4907900000000 1.0
C      1  0.5609310000000  0.5030690000000  0.4131800000000 1.0
C      1  0.5756130000000  0.5703040000000  0.5525790000000 1.0
C      1  0.4681020000000  0.4720000000000  0.5893130000000 1.0
C      1  0.4723870000000  0.4476620000000  0.4942610000000 1.0
C      1  0.5035580000000  0.5110140000000  0.4485850000000 1.0
C      1  0.4884410000000  0.4903810000000  0.4365820000000 1.0
C      1  0.5669110000000  0.4593580000000  0.5129060000000 1.0
C      1  0.5179920000000  0.5290620000000  0.5466120000000 1.0
C      1  0.5157120000000  0.5882220000000  0.5367260000000 1.0
C      1  0.4259670000000  0.5007430000000  0.5173630000000 1.0
C      1  0.5402240000000  0.4745900000000  0.5153240000000 1.0
C      1  0.4354140000000  0.4893890000000  0.4464910000000 1.0
C      1  0.5362960000000  0.4598880000000  0.4208100000000 1.0
C      1  0.5452740000000  0.5320880000000  0.5503660000000 1.0
C      1  0.5510340000000  0.4642240000000  0.5870160000000 1.0
C      1  0.5565200000000  0.5144570000000  0.4867880000000 1.0
C      1  0.5465760000000  0.4870790000000  0.6029840000000 1.0
C      1  0.5627560000000  0.5878620000000  0.5361240000000 1.0
C      1  0.4192570000000  0.5821550000000  0.5479570000000 1.0
C      1  0.5688510000000  0.4472330000000  0.4866670000000 1.0
C      1  0.5723100000000  0.5430260000000  0.5448690000000 1.0
C      1  0.4581870000000  0.5528690000000  0.5554170000000 1.0
C      1  0.4301020000000  0.5574540000000  0.5561260000000 1.0
C      1  0.5134900000000  0.5438290000000  0.4969170000000 1.0
C      1  0.3542590000000  0.4115600000000  0.4743480000000 1.0
C      1  0.5363530000000  0.4992050000000  0.4996070000000 1.0
C      1  0.4269330000000  0.4458740000000  0.4749800000000 1.0
C      1  0.5923610000000  0.4335760000000  0.5487170000000 1.0
C      1  0.4637110000000  0.5310050000000  0.4736920000000 1.0
C      1  0.4275400000000  0.5473100000000  0.5041550000000 1.0
C      1  0.5293480000000  0.4999750000000  0.4525020000000 1.0
C      1  0.5028460000000  0.4279810000000  0.5590570000000 1.0
C      1  0.5386940000000  0.5554650000000  0.5060210000000 1.0
C      1  0.4400570000000  0.4926750000000  0.5592460000000 1.0
C      1  0.4480070000000  0.4673350000000  0.5689380000000 1.0
C      1  0.5828850000000  0.5398880000000  0.5178580000000 1.0
C      1  0.4313130000000  0.4522440000000  0.5232360000000 1.0
C      1  0.6043180000000  0.5484950000000  0.5011050000000 1.0
C      1  0.4843950000000  0.4286250000000  0.4517440000000 1.0
C      1  0.4715590000000  0.5001620000000  0.5950900000000 1.0
C      1  0.5672820000000  0.5574520000000  0.4381850000000 1.0
C      1  0.5113640000000  0.5134330000000  0.4971870000000 1.0
C      1  0.4775640000000  0.5019920000000  0.5263180000000 1.0
C      1  0.4797820000000  0.4732220000000  0.4561600000000 1.0
C      1  0.6267800000000  0.5911280000000  0.4172870000000 1.0
C      1  0.4610890000000  0.3972720000000  0.5568310000000 1.0
C      1  0.4706110000000  0.5463060000000  0.5291960000000 1.0
C      1  0.5454970000000  0.4312130000000  0.4800130000000 1.0
C      1  0.4842450000000  0.5256950000000  0.5928090000000 1.0
C      1  0.5387820000000  0.5795800000000  0.5228620000000 1.0
C      1  0.4441880000000  0.4440770000000  0.4987630000000 1.0
C      1  0.4927440000000  0.5729410000000  0.5802160000000 1.0
C      1  0.5060750000000  0.5876480000000  0.4723230000000 1.0
C      1  0.4920930000000  0.5104690000000  0.3938700000000 1.0
C      1  0.5736650000000  0.5020960000000  0.4397600000000 1.0
C      1  0.5321640000000  0.5092100000000  0.6073440000000 1.0
C      1  0.5887900000000  0.4797590000000  0.4491080000000 1.0
C      1  0.5319090000000  0.4720860000000  0.4461190000000 1.0
C      1  0.4870580000000  0.5339840000000  0.4545930000000 1.0
C      1  0.5139300000000  0.4440810000000  0.4123300000000 1.0
C      1  0.4688360000000  0.5272030000000  0.3969850000000 1.0
C      1  0.4199650000000  0.5112050000000  0.5668100000000 1.0
C      1  0.4743640000000  0.5511510000000  0.4110000000000 1.0
C      1  0.5088760000000  0.4376330000000  0.5857390000000 1.0
C      1  0.5590900000000  0.4686310000000  0.5597440000000 1.0
C      1  0.5187620000000  0.5208460000000  0.3924030000000 1.0
C      1  0.5849540000000  0.4594760000000  0.4667180000000 1.0
C      1  0.4019820000000  0.4335800000000  0.4738950000000 1.0
C      1  0.4150920000000  0.5724780000000  0.4995420000000 1.0
END
