TITL C-3866672-3872-632 0.00637249888007159 125000 -1157.68922177604 0 0 188 (C1) n - 1
REM
REM in /home/nfs/bkarasulu/CARBON/AIRSS/Generating-Clusters/LCBOP/Only-C1/SD-CG/FIRE-CG
REM
REM
REM
REM
REM
REM ./C.cell (11c1c37f851c82e70ff6c80c92926a4b)
REM AIRSS Version 0.9.1 bugfix July 2018 build 013d7b7c2542+ Fri, 06 Jul 2018 19:26:36 +0100
REM compiler GCC version 9.2.1 20190827 (Red Hat 9.2.1-1)
REM options -cpp -mtune=generic -march=x86-64 -g -O0 -fpre-include=/usr/include/finclude/math-vector-fortran.h
REM seed 1460230908 749831236 -645113237 -964474044 -1047666419 -668780421 1786316740 -2125025124 -979097174 -670589238 -246228079 -118851935 -2093296768 1240703887 130765399 -737667651 -191538443 385071263 -2065565126 1870937962 -1344565 -1256876570 -922661697 1112517801 647847480 -1946657082 -1181463571 2145461201 -1371003353 1018235472 -34385123 250892128 -1031214692
REM
CELL 1.54180   50.00000   50.00000   50.00000   90.00000   90.00000   90.00000
LATT -1
SFAC C  
C      1  0.5253810000000  0.4369560000000  0.3932980000000 1.0
C      1  0.4281710000000  0.4343870000000  0.4753910000000 1.0
C      1  0.4515490000000  0.5034450000000  0.4690250000000 1.0
C      1  0.6389720000000  0.4842020000000  0.6466340000000 1.0
C      1  0.5525360000000  0.4847270000000  0.4451700000000 1.0
C      1  0.4537590000000  0.4838630000000  0.3520560000000 1.0
C      1  0.4707730000000  0.3982020000000  0.5410290000000 1.0
C      1  0.4094140000000  0.5512170000000  0.5453840000000 1.0
C      1  0.5598990000000  0.5787370000000  0.5804000000000 1.0
C      1  0.4827640000000  0.6406940000000  0.5314250000000 1.0
C      1  0.4379770000000  0.5545490000000  0.6117290000000 1.0
C      1  0.4618470000000  0.5881530000000  0.4483940000000 1.0
C      1  0.4568130000000  0.4982240000000  0.4420310000000 1.0
C      1  0.5746840000000  0.4109520000000  0.4756730000000 1.0
C      1  0.4569620000000  0.4627150000000  0.6128840000000 1.0
C      1  0.4348180000000  0.5540610000000  0.5594690000000 1.0
C      1  0.5245690000000  0.4111050000000  0.5943010000000 1.0
C      1  0.5221130000000  0.4907300000000  0.3873020000000 1.0
C      1  0.4442540000000  0.4719210000000  0.3309260000000 1.0
C      1  0.5048820000000  0.5553260000000  0.4790180000000 1.0
C      1  0.4741900000000  0.5036810000000  0.3980010000000 1.0
C      1  0.4207260000000  0.5894920000000  0.5167800000000 1.0
C      1  0.5778870000000  0.5704650000000  0.4630480000000 1.0
C      1  0.4129500000000  0.4734240000000  0.4127620000000 1.0
C      1  0.4716590000000  0.4096710000000  0.5941460000000 1.0
C      1  0.4866180000000  0.5514200000000  0.4021680000000 1.0
C      1  0.4979640000000  0.4836930000000  0.5758460000000 1.0
C      1  0.5145730000000  0.6122120000000  0.4404780000000 1.0
C      1  0.4168710000000  0.6028020000000  0.3944990000000 1.0
C      1  0.5897260000000  0.4565820000000  0.5489700000000 1.0
C      1  0.4253630000000  0.4496040000000  0.4220050000000 1.0
C      1  0.4830480000000  0.5266920000000  0.5199000000000 1.0
C      1  0.5498670000000  0.4367600000000  0.4443840000000 1.0
C      1  0.6249240000000  0.4947070000000  0.5507260000000 1.0
C      1  0.5759930000000  0.5167820000000  0.4188910000000 1.0
C      1  0.5076600000000  0.4250520000000  0.4786700000000 1.0
C      1  0.5265250000000  0.4656060000000  0.4801200000000 1.0
C      1  0.4276340000000  0.5295060000000  0.6148460000000 1.0
C      1  0.5272290000000  0.5721990000000  0.4136500000000 1.0
C      1  0.4530510000000  0.5749160000000  0.5677300000000 1.0
C      1  0.5769490000000  0.5014420000000  0.5207470000000 1.0
C      1  0.4980240000000  0.4164100000000  0.5867820000000 1.0
C      1  0.4195380000000  0.4404600000000  0.4484420000000 1.0
C      1  0.5144960000000  0.5548110000000  0.5778880000000 1.0
C      1  0.4158870000000  0.4789810000000  0.4938840000000 1.0
C      1  0.4737600000000  0.5244390000000  0.5836430000000 1.0
C      1  0.5326530000000  0.5639110000000  0.4823080000000 1.0
C      1  0.5232820000000  0.4024400000000  0.4686180000000 1.0
C      1  0.5168160000000  0.5440790000000  0.5499770000000 1.0
C      1  0.5499280000000  0.4126540000000  0.4608140000000 1.0
C      1  0.4107770000000  0.5016200000000  0.5108340000000 1.0
C      1  0.4986690000000  0.4580080000000  0.5271850000000 1.0
C      1  0.5462180000000  0.5391170000000  0.6053770000000 1.0
C      1  0.5882380000000  0.5914590000000  0.5083750000000 1.0
C      1  0.4540770000000  0.4205500000000  0.5504170000000 1.0
C      1  0.3907360000000  0.5563110000000  0.4997050000000 1.0
C      1  0.4919610000000  0.3817880000000  0.5518460000000 1.0
C      1  0.5665230000000  0.4430300000000  0.4210970000000 1.0
C      1  0.5200210000000  0.5248480000000  0.6129260000000 1.0
C      1  0.5243520000000  0.5146390000000  0.5507540000000 1.0
C      1  0.4608110000000  0.5164770000000  0.4205180000000 1.0
C      1  0.4348150000000  0.5628200000000  0.3734210000000 1.0
C      1  0.6306970000000  0.4774480000000  0.5304700000000 1.0
C      1  0.5135420000000  0.5553840000000  0.3951760000000 1.0
C      1  0.4047240000000  0.4534880000000  0.5517610000000 1.0
C      1  0.5884860000000  0.5233180000000  0.5744250000000 1.0
C      1  0.4594720000000  0.5280290000000  0.4808830000000 1.0
C      1  0.5017000000000  0.5002030000000  0.4039200000000 1.0
C      1  0.5460420000000  0.4792530000000  0.5794780000000 1.0
C      1  0.4981270000000  0.5369970000000  0.5950650000000 1.0
C      1  0.5070510000000  0.5043360000000  0.4573870000000 1.0
C      1  0.5140420000000  0.4715790000000  0.6227480000000 1.0
C      1  0.4839180000000  0.6292970000000  0.5068630000000 1.0
C      1  0.5462950000000  0.4804060000000  0.3973970000000 1.0
C      1  0.4053090000000  0.5665300000000  0.5215080000000 1.0
C      1  0.3707870000000  0.4864140000000  0.5339750000000 1.0
C      1  0.5395570000000  0.4614790000000  0.4546690000000 1.0
C      1  0.6119430000000  0.5058160000000  0.5738900000000 1.0
C      1  0.4763060000000  0.4963810000000  0.5842110000000 1.0
C      1  0.4125420000000  0.5072790000000  0.5644830000000 1.0
C      1  0.5344670000000  0.4014000000000  0.5299450000000 1.0
C      1  0.4357440000000  0.5130800000000  0.5222020000000 1.0
C      1  0.4397260000000  0.5889780000000  0.3825140000000 1.0
C      1  0.4828080000000  0.3885490000000  0.4933230000000 1.0
C      1  0.4799640000000  0.4520000000000  0.4489800000000 1.0
C      1  0.5052600000000  0.3804120000000  0.4739620000000 1.0
C      1  0.5758240000000  0.5672480000000  0.5121550000000 1.0
C      1  0.3862880000000  0.5439690000000  0.4765170000000 1.0
C      1  0.6071260000000  0.5275830000000  0.4544800000000 1.0
C      1  0.4680930000000  0.5602390000000  0.4464330000000 1.0
C      1  0.4405360000000  0.4829250000000  0.6249810000000 1.0
C      1  0.4183250000000  0.4443960000000  0.5272890000000 1.0
C      1  0.5386890000000  0.4284760000000  0.5212990000000 1.0
C      1  0.5817810000000  0.5708220000000  0.5669110000000 1.0
C      1  0.4243720000000  0.5012040000000  0.6106330000000 1.0
C      1  0.4581180000000  0.3916930000000  0.4763530000000 1.0
C      1  0.4737540000000  0.6042870000000  0.4682050000000 1.0
C      1  0.6055190000000  0.4363310000000  0.4492550000000 1.0
C      1  0.5278800000000  0.4971100000000  0.6185020000000 1.0
C      1  0.4854470000000  0.4646850000000  0.6204820000000 1.0
C      1  0.4895080000000  0.5480920000000  0.5378420000000 1.0
C      1  0.4720260000000  0.4332840000000  0.3982810000000 1.0
C      1  0.5413710000000  0.4480060000000  0.5435500000000 1.0
C      1  0.4678660000000  0.4727600000000  0.4381110000000 1.0
C      1  0.5886370000000  0.5458000000000  0.5552280000000 1.0
C      1  0.4987070000000  0.4327150000000  0.3941720000000 1.0
C      1  0.6122920000000  0.4397330000000  0.4970260000000 1.0
C      1  0.5404450000000  0.4346600000000  0.5962500000000 1.0
C      1  0.4230590000000  0.5391050000000  0.3777750000000 1.0
C      1  0.5325160000000  0.4497350000000  0.6194970000000 1.0
C      1  0.3875720000000  0.5081120000000  0.5268140000000 1.0
C      1  0.4917140000000  0.4319240000000  0.5200600000000 1.0
C      1  0.4141500000000  0.4497810000000  0.4982830000000 1.0
C      1  0.5472690000000  0.5643670000000  0.5078580000000 1.0
C      1  0.5956410000000  0.5219970000000  0.5104700000000 1.0
C      1  0.6230670000000  0.4991460000000  0.5988220000000 1.0
C      1  0.4444440000000  0.4819270000000  0.4873390000000 1.0
C      1  0.4421590000000  0.4487390000000  0.5904790000000 1.0
C      1  0.4056910000000  0.5007830000000  0.4118870000000 1.0
C      1  0.4974270000000  0.4375030000000  0.5689550000000 1.0
C      1  0.4543060000000  0.4202700000000  0.4752030000000 1.0
C      1  0.4126390000000  0.5179630000000  0.3905160000000 1.0
C      1  0.4516860000000  0.4241110000000  0.5792490000000 1.0
C      1  0.4381260000000  0.5099840000000  0.5506110000000 1.0
C      1  0.5505210000000  0.5058090000000  0.5112720000000 1.0
C      1  0.5571900000000  0.4953650000000  0.4189640000000 1.0
C      1  0.4632060000000  0.3736780000000  0.4543470000000 1.0
C      1  0.4904140000000  0.6016220000000  0.3998600000000 1.0
C      1  0.5466190000000  0.5609480000000  0.4311120000000 1.0
C      1  0.5466050000000  0.4512180000000  0.5725620000000 1.0
C      1  0.5496100000000  0.5129500000000  0.4843110000000 1.0
C      1  0.5937560000000  0.4523630000000  0.4288200000000 1.0
C      1  0.4516020000000  0.5302750000000  0.5654690000000 1.0
C      1  0.5901870000000  0.5459360000000  0.5257400000000 1.0
C      1  0.4463030000000  0.4419260000000  0.5311170000000 1.0
C      1  0.6049000000000  0.5162750000000  0.4821850000000 1.0
C      1  0.4901140000000  0.3669290000000  0.4530080000000 1.0
C      1  0.4625170000000  0.4951450000000  0.3743720000000 1.0
C      1  0.5542420000000  0.4942640000000  0.6025740000000 1.0
C      1  0.4820450000000  0.4780550000000  0.5175060000000 1.0
C      1  0.5645840000000  0.4976110000000  0.4664880000000 1.0
C      1  0.5100750000000  0.4904190000000  0.4816680000000 1.0
C      1  0.4999970000000  0.6167110000000  0.4636760000000 1.0
C      1  0.5905290000000  0.4918250000000  0.4757060000000 1.0
C      1  0.6015680000000  0.5075110000000  0.4313660000000 1.0
C      1  0.4807610000000  0.4327920000000  0.4692220000000 1.0
C      1  0.4684830000000  0.5441210000000  0.4226900000000 1.0
C      1  0.5669890000000  0.5200860000000  0.5958350000000 1.0
C      1  0.4403660000000  0.6038320000000  0.5061400000000 1.0
C      1  0.5243030000000  0.4688470000000  0.5335540000000 1.0
C      1  0.4822160000000  0.4057570000000  0.5157550000000 1.0
C      1  0.5181230000000  0.3846380000000  0.5438100000000 1.0
C      1  0.4494920000000  0.6009640000000  0.4267250000000 1.0
C      1  0.5491850000000  0.4517950000000  0.3994070000000 1.0
C      1  0.3876190000000  0.5283490000000  0.4549950000000 1.0
C      1  0.6254660000000  0.4579770000000  0.5121920000000 1.0
C      1  0.6050400000000  0.4791210000000  0.4269850000000 1.0
C      1  0.5260670000000  0.4409950000000  0.4954300000000 1.0
C      1  0.5914420000000  0.5510740000000  0.4470700000000 1.0
C      1  0.4497960000000  0.5742600000000  0.5965070000000 1.0
C      1  0.5261750000000  0.4988560000000  0.5257280000000 1.0
C      1  0.4641170000000  0.6119780000000  0.4943780000000 1.0
C      1  0.4780010000000  0.5476460000000  0.4700690000000 1.0
C      1  0.5085510000000  0.5063030000000  0.4308350000000 1.0
C      1  0.4625060000000  0.5972580000000  0.4001460000000 1.0
C      1  0.4138640000000  0.4896300000000  0.5860730000000 1.0
C      1  0.3957540000000  0.5254530000000  0.5491180000000 1.0
C      1  0.4752730000000  0.5708550000000  0.5493350000000 1.0
C      1  0.3935100000000  0.5125550000000  0.4344000000000 1.0
C      1  0.4579540000000  0.4683880000000  0.5095760000000 1.0
C      1  0.6313400000000  0.4916900000000  0.6228580000000 1.0
C      1  0.3785820000000  0.4639850000000  0.5470590000000 1.0
C      1  0.5231730000000  0.4938420000000  0.5699660000000 1.0
C      1  0.4189450000000  0.4618730000000  0.5773960000000 1.0
C      1  0.5134440000000  0.5974160000000  0.4166630000000 1.0
C      1  0.5052420000000  0.6316690000000  0.4875810000000 1.0
C      1  0.5705380000000  0.5441670000000  0.4261130000000 1.0
C      1  0.5489720000000  0.5694690000000  0.4594490000000 1.0
C      1  0.4223790000000  0.6084540000000  0.4210150000000 1.0
C      1  0.5998430000000  0.4364660000000  0.5622270000000 1.0
C      1  0.5394120000000  0.5626080000000  0.5901170000000 1.0
C      1  0.4569670000000  0.5266750000000  0.5088180000000 1.0
C      1  0.5247490000000  0.5469180000000  0.3718590000000 1.0
C      1  0.4469240000000  0.4380810000000  0.4070790000000 1.0
C      1  0.5335860000000  0.5598000000000  0.5317350000000 1.0
C      1  0.4997580000000  0.5016990000000  0.5096330000000 1.0
C      1  0.5822880000000  0.4782630000000  0.5352890000000 1.0
C      1  0.5985160000000  0.4273080000000  0.4753190000000 1.0
END
