TITL C-3866670-4165-390 2.24235398014056 125000 -99.1495313049531 0 0 18 (Cs) n - 1
REM
REM in /home/nfs/bkarasulu/CARBON/AIRSS/Generating-Clusters/LCBOP/Only-C1/SD-CG/FIRE-CG
REM
REM
REM
REM
REM
REM ./C.cell (11c1c37f851c82e70ff6c80c92926a4b)
REM AIRSS Version 0.9.1 bugfix July 2018 build 013d7b7c2542+ Fri, 06 Jul 2018 19:26:36 +0100
REM compiler GCC version 9.2.1 20190827 (Red Hat 9.2.1-1)
REM options -cpp -mtune=generic -march=x86-64 -g -O0 -fpre-include=/usr/include/finclude/math-vector-fortran.h
REM seed 337511331 569785663 -2105002390 1726946365 -1436803673 1413838838 1124998469 913785682 -1486934346 1504794345 -1088849620 2055640055 1240305105 -1056611731 1352256858 -643239063 412810042 1540059241 -1095085268 -1736604703 132649965 156616842 1617296178 -1819097637 -914089122 -711327043 -1467957986 1968073089 -682836015 -256216294 630190187 -1989570916 -393299766
REM
CELL 1.54180   50.00000   50.00000   50.00000   90.00000   90.00000   90.00000
LATT -1
SFAC C  
C      1  0.4617800000000  0.4679650000000  0.4844640000000 1.0
C      1  0.4907490000000  0.4733190000000  0.5226720000000 1.0
C      1  0.4456470000000  0.4849390000000  0.4353550000000 1.0
C      1  0.6266120000000  0.5663660000000  0.6071230000000 1.0
C      1  0.4809810000000  0.5487160000000  0.4012430000000 1.0
C      1  0.4585760000000  0.4377220000000  0.5215920000000 1.0
C      1  0.6074720000000  0.5532560000000  0.5952290000000 1.0
C      1  0.4539190000000  0.4762140000000  0.4605650000000 1.0
C      1  0.5880130000000  0.5399270000000  0.5831350000000 1.0
C      1  0.5101940000000  0.4866240000000  0.5347750000000 1.0
C      1  0.4059540000000  0.4590380000000  0.4094830000000 1.0
C      1  0.5685580000000  0.5266010000000  0.5710450000000 1.0
C      1  0.5491030000000  0.5132750000000  0.5589550000000 1.0
C      1  0.4579090000000  0.5070700000000  0.4235200000000 1.0
C      1  0.4702370000000  0.4594240000000  0.5097100000000 1.0
C      1  0.5296490000000  0.4999500000000  0.5468650000000 1.0
C      1  0.4695390000000  0.5280610000000  0.4122930000000 1.0
C      1  0.4251110000000  0.4715340000000  0.4219770000000 1.0
END
