TITL C-3866671-3735-416 0.00736507434888144 125000 -463.539774274562 0 0 77 (C1) n - 1
REM
REM in /home/nfs/bkarasulu/CARBON/AIRSS/Generating-Clusters/LCBOP/Only-C1/SD-CG/FIRE-CG
REM
REM
REM
REM
REM
REM ./C.cell (11c1c37f851c82e70ff6c80c92926a4b)
REM AIRSS Version 0.9.1 bugfix July 2018 build 013d7b7c2542+ Fri, 06 Jul 2018 19:26:36 +0100
REM compiler GCC version 9.2.1 20190827 (Red Hat 9.2.1-1)
REM options -cpp -mtune=generic -march=x86-64 -g -O0 -fpre-include=/usr/include/finclude/math-vector-fortran.h
REM seed -502365205 588228256 -1261526861 -392525747 -648774515 -2084557963 1150997138 -2071061526 -1738304769 432374985 -222013590 2018645258 -679025758 -909608049 156001395 -1659802022 1903783102 -1359398214 -1003697224 -696865558 -1656890942 -758048614 232176077 197997378 -397989892 -916054100 657267277 -1330503076 -1099683153 -93657638 -1345838237 -2084551989 423341170
REM
CELL 1.54180   50.00000   50.00000   50.00000   90.00000   90.00000   90.00000
LATT -1
SFAC C  
C      1  0.5165700000000  0.5512630000000  0.5606470000000 1.0
C      1  0.4544310000000  0.5924020000000  0.4237990000000 1.0
C      1  0.5309160000000  0.4929700000000  0.4996910000000 1.0
C      1  0.4939990000000  0.5554230000000  0.4281130000000 1.0
C      1  0.5040690000000  0.4653590000000  0.4425920000000 1.0
C      1  0.5018890000000  0.5511340000000  0.4896450000000 1.0
C      1  0.4619590000000  0.4998640000000  0.5516040000000 1.0
C      1  0.4750180000000  0.4568950000000  0.5599970000000 1.0
C      1  0.5516230000000  0.4656000000000  0.5415560000000 1.0
C      1  0.4021330000000  0.4742450000000  0.5135800000000 1.0
C      1  0.5378620000000  0.5032090000000  0.4135520000000 1.0
C      1  0.4499960000000  0.4445430000000  0.5576420000000 1.0
C      1  0.5631810000000  0.5249030000000  0.5402190000000 1.0
C      1  0.4500800000000  0.4938490000000  0.4673340000000 1.0
C      1  0.4538750000000  0.5382520000000  0.5767570000000 1.0
C      1  0.4256780000000  0.4736020000000  0.5277830000000 1.0
C      1  0.5063110000000  0.4897020000000  0.5374180000000 1.0
C      1  0.4885910000000  0.5378980000000  0.4685760000000 1.0
C      1  0.4359940000000  0.4981700000000  0.5400110000000 1.0
C      1  0.4481900000000  0.4288340000000  0.4828580000000 1.0
C      1  0.5223550000000  0.5625370000000  0.4339680000000 1.0
C      1  0.4374030000000  0.4311330000000  0.5777020000000 1.0
C      1  0.5219540000000  0.5258050000000  0.5721570000000 1.0
C      1  0.5581840000000  0.5397970000000  0.4570870000000 1.0
C      1  0.5393700000000  0.5629660000000  0.5145240000000 1.0
C      1  0.4930880000000  0.5275420000000  0.4160410000000 1.0
C      1  0.4751020000000  0.4175660000000  0.5222690000000 1.0
C      1  0.4804260000000  0.4804790000000  0.5449240000000 1.0
C      1  0.5400310000000  0.4983010000000  0.4415770000000 1.0
C      1  0.5817770000000  0.4716250000000  0.4799010000000 1.0
C      1  0.5142500000000  0.4911290000000  0.4520380000000 1.0
C      1  0.4719730000000  0.5166290000000  0.5730170000000 1.0
C      1  0.5054640000000  0.4787380000000  0.5866700000000 1.0
C      1  0.4316360000000  0.5410870000000  0.5608500000000 1.0
C      1  0.4232440000000  0.5240560000000  0.5393660000000 1.0
C      1  0.5005140000000  0.4523270000000  0.5726580000000 1.0
C      1  0.5768630000000  0.4512660000000  0.4990760000000 1.0
C      1  0.4354100000000  0.6101130000000  0.4217730000000 1.0
C      1  0.5073330000000  0.5069820000000  0.5131270000000 1.0
C      1  0.5821960000000  0.5069930000000  0.5261920000000 1.0
C      1  0.4983020000000  0.5105720000000  0.4668130000000 1.0
C      1  0.5874700000000  0.5153930000000  0.4985850000000 1.0
C      1  0.4501000000000  0.4288380000000  0.5120760000000 1.0
C      1  0.4604480000000  0.5404530000000  0.4655780000000 1.0
C      1  0.4755460000000  0.4608270000000  0.4444500000000 1.0
C      1  0.5537490000000  0.4550520000000  0.5150830000000 1.0
C      1  0.5051250000000  0.4500700000000  0.5043270000000 1.0
C      1  0.5931860000000  0.4296140000000  0.5018410000000 1.0
C      1  0.5176130000000  0.5550130000000  0.5328570000000 1.0
C      1  0.5604120000000  0.5113740000000  0.4572840000000 1.0
C      1  0.5828560000000  0.5438170000000  0.5008630000000 1.0
C      1  0.4196710000000  0.5278110000000  0.4885110000000 1.0
C      1  0.5633780000000  0.5492790000000  0.5216420000000 1.0
C      1  0.5280600000000  0.5638920000000  0.4859760000000 1.0
C      1  0.4386260000000  0.4478630000000  0.5313050000000 1.0
C      1  0.5124220000000  0.4329150000000  0.5537570000000 1.0
C      1  0.5000810000000  0.4314690000000  0.5265600000000 1.0
C      1  0.5303380000000  0.4638580000000  0.5011010000000 1.0
C      1  0.5207110000000  0.4458720000000  0.4329170000000 1.0
C      1  0.5214820000000  0.5248210000000  0.4052360000000 1.0
C      1  0.4406160000000  0.5208160000000  0.4712660000000 1.0
C      1  0.4678600000000  0.4434870000000  0.4675390000000 1.0
C      1  0.4735060000000  0.5741790000000  0.4262410000000 1.0
C      1  0.4612650000000  0.4864430000000  0.4410270000000 1.0
C      1  0.4734000000000  0.5069750000000  0.4230950000000 1.0
C      1  0.5318950000000  0.4152750000000  0.5615850000000 1.0
C      1  0.4135840000000  0.5320400000000  0.5142870000000 1.0
C      1  0.5336510000000  0.4867100000000  0.5485330000000 1.0
C      1  0.5433410000000  0.5123160000000  0.5575180000000 1.0
C      1  0.5346160000000  0.5505570000000  0.4102680000000 1.0
C      1  0.4996090000000  0.5086130000000  0.5819910000000 1.0
C      1  0.4813490000000  0.4578050000000  0.4894670000000 1.0
C      1  0.5029950000000  0.5371120000000  0.5156340000000 1.0
C      1  0.4673180000000  0.4833490000000  0.4889670000000 1.0
C      1  0.5377830000000  0.5597190000000  0.4589310000000 1.0
C      1  0.5785060000000  0.4994930000000  0.4765080000000 1.0
C      1  0.4881980000000  0.5011210000000  0.4920910000000 1.0
END
