TITL C-3866669-3764-31 0.473086222897399 125000 -605.057631452633 0 0 98 (C1) n - 1
REM
REM in /home/nfs/bkarasulu/CARBON/AIRSS/Generating-Clusters/LCBOP/Only-C1/SD-CG/HFTN-CG/FIRE-CG
REM
REM
REM
REM
REM
REM ./C.cell (11c1c37f851c82e70ff6c80c92926a4b)
REM AIRSS Version 0.9.1 bugfix July 2018 build 013d7b7c2542+ Fri, 06 Jul 2018 19:26:36 +0100
REM compiler GCC version 9.2.1 20190827 (Red Hat 9.2.1-1)
REM options -cpp -mtune=generic -march=x86-64 -g -O0 -fpre-include=/usr/include/finclude/math-vector-fortran.h
REM seed -53837295 1648781019 -188302921 -330210992 -505979330 628755379 844740006 -659534976 -698268830 -511456676 1784633179 383082140 -1074193367 -1644349001 -182543335 -1908828824 498562251 -716684548 -364718171 762080307 -416583730 84937449 570098595 -796393265 -578973172 -1454992819 -2093361465 476750190 18648006 -1674067824 980065609 -1677529690 -1963415757
REM
CELL 1.54180   50.00000   50.00000   50.00000   90.00000   90.00000   90.00000
LATT -1
SFAC C  
C      1  0.5146650000000  0.4085300000000  0.4595330000000 1.0
C      1  0.4653200000000  0.5123070000000  0.5483710000000 1.0
C      1  0.4076990000000  0.4298750000000  0.4827810000000 1.0
C      1  0.4259970000000  0.6143920000000  0.4842800000000 1.0
C      1  0.5009180000000  0.5491130000000  0.4566760000000 1.0
C      1  0.5512700000000  0.5897080000000  0.4307110000000 1.0
C      1  0.4709240000000  0.5318270000000  0.4150430000000 1.0
C      1  0.5338200000000  0.4209320000000  0.5391390000000 1.0
C      1  0.5504980000000  0.6250510000000  0.4671460000000 1.0
C      1  0.4617350000000  0.4041360000000  0.6111640000000 1.0
C      1  0.5836440000000  0.4551930000000  0.4336020000000 1.0
C      1  0.5771740000000  0.5197620000000  0.4650510000000 1.0
C      1  0.5599620000000  0.4850600000000  0.5124810000000 1.0
C      1  0.5623910000000  0.4497650000000  0.4777020000000 1.0
C      1  0.4565520000000  0.5098980000000  0.4562350000000 1.0
C      1  0.5121280000000  0.5544120000000  0.4308860000000 1.0
C      1  0.5356090000000  0.5686030000000  0.4267750000000 1.0
C      1  0.4112070000000  0.4264120000000  0.4562350000000 1.0
C      1  0.4363530000000  0.4724490000000  0.5465890000000 1.0
C      1  0.5517920000000  0.5106590000000  0.5019820000000 1.0
C      1  0.5051750000000  0.4570630000000  0.5858220000000 1.0
C      1  0.4877280000000  0.4083180000000  0.4545990000000 1.0
C      1  0.4495090000000  0.5992240000000  0.4818140000000 1.0
C      1  0.5478500000000  0.4395320000000  0.5230610000000 1.0
C      1  0.4528140000000  0.4049780000000  0.5184990000000 1.0
C      1  0.5763210000000  0.5504060000000  0.5399580000000 1.0
C      1  0.4730040000000  0.5568870000000  0.4580860000000 1.0
C      1  0.5173660000000  0.4748510000000  0.4399250000000 1.0
C      1  0.4425280000000  0.4608800000000  0.4925910000000 1.0
C      1  0.4238430000000  0.4412740000000  0.5029480000000 1.0
C      1  0.5752330000000  0.5271680000000  0.4938290000000 1.0
C      1  0.5441720000000  0.4810600000000  0.4457830000000 1.0
C      1  0.4767590000000  0.4975000000000  0.5932990000000 1.0
C      1  0.5754230000000  0.4695330000000  0.4939610000000 1.0
C      1  0.5841960000000  0.5436430000000  0.5148870000000 1.0
C      1  0.4915670000000  0.5168070000000  0.5381520000000 1.0
C      1  0.5458380000000  0.4322570000000  0.4939110000000 1.0
C      1  0.4278550000000  0.4292340000000  0.4353300000000 1.0
C      1  0.4980740000000  0.5578890000000  0.5928130000000 1.0
C      1  0.4939550000000  0.5474820000000  0.4101550000000 1.0
C      1  0.5014750000000  0.4859520000000  0.5853450000000 1.0
C      1  0.5242230000000  0.4126220000000  0.4861440000000 1.0
C      1  0.4972130000000  0.5064850000000  0.5136290000000 1.0
C      1  0.4836690000000  0.4405380000000  0.5780160000000 1.0
C      1  0.6109380000000  0.4964640000000  0.4344630000000 1.0
C      1  0.4743590000000  0.4027580000000  0.4996120000000 1.0
C      1  0.5614040000000  0.4583690000000  0.4505550000000 1.0
C      1  0.4039260000000  0.6051010000000  0.4695800000000 1.0
C      1  0.4763100000000  0.4466640000000  0.4291550000000 1.0
C      1  0.5727560000000  0.5678930000000  0.6001540000000 1.0
C      1  0.5245580000000  0.5625470000000  0.5941980000000 1.0
C      1  0.4709460000000  0.4914250000000  0.4394120000000 1.0
C      1  0.5097320000000  0.4821730000000  0.5118550000000 1.0
C      1  0.4727060000000  0.4217310000000  0.5953810000000 1.0
C      1  0.5565880000000  0.6114850000000  0.4450570000000 1.0
C      1  0.5171930000000  0.5643360000000  0.5308200000000 1.0
C      1  0.5370280000000  0.6245970000000  0.4900900000000 1.0
C      1  0.4632300000000  0.4893680000000  0.6155810000000 1.0
C      1  0.4759270000000  0.5444970000000  0.5851600000000 1.0
C      1  0.4687420000000  0.4161350000000  0.4746960000000 1.0
C      1  0.4612410000000  0.5077730000000  0.4838810000000 1.0
C      1  0.5334750000000  0.5154350000000  0.4785710000000 1.0
C      1  0.5074540000000  0.4174550000000  0.5305860000000 1.0
C      1  0.5321700000000  0.4535070000000  0.5765710000000 1.0
C      1  0.4639960000000  0.5791310000000  0.4722240000000 1.0
C      1  0.3971570000000  0.5852990000000  0.4530180000000 1.0
C      1  0.5543580000000  0.5512020000000  0.5578960000000 1.0
C      1  0.5231620000000  0.6108070000000  0.5080830000000 1.0
C      1  0.4551520000000  0.5377980000000  0.4422470000000 1.0
C      1  0.4731740000000  0.5033090000000  0.4134870000000 1.0
C      1  0.4483620000000  0.4889610000000  0.5023600000000 1.0
C      1  0.4246780000000  0.6366810000000  0.4999200000000 1.0
C      1  0.5292350000000  0.5443410000000  0.5464560000000 1.0
C      1  0.5083400000000  0.5283070000000  0.4745130000000 1.0
C      1  0.5402710000000  0.4750940000000  0.5585620000000 1.0
C      1  0.4971010000000  0.4584260000000  0.5051550000000 1.0
C      1  0.4461110000000  0.4458620000000  0.5453730000000 1.0
C      1  0.5225190000000  0.4974400000000  0.5676700000000 1.0
C      1  0.4479400000000  0.4943780000000  0.5321490000000 1.0
C      1  0.4276470000000  0.5472660000000  0.4377130000000 1.0
C      1  0.5514350000000  0.5608510000000  0.5846720000000 1.0
C      1  0.4517950000000  0.4360820000000  0.4252390000000 1.0
C      1  0.4360970000000  0.4275900000000  0.5253140000000 1.0
C      1  0.4625150000000  0.4445980000000  0.4784080000000 1.0
C      1  0.5152900000000  0.5207440000000  0.5531860000000 1.0
C      1  0.5502810000000  0.4675260000000  0.5328810000000 1.0
C      1  0.4873440000000  0.4588900000000  0.4770400000000 1.0
C      1  0.5033440000000  0.4040270000000  0.5059900000000 1.0
C      1  0.4068810000000  0.5634800000000  0.4412150000000 1.0
C      1  0.6042300000000  0.4713980000000  0.4275000000000 1.0
C      1  0.4892560000000  0.4683370000000  0.4471270000000 1.0
C      1  0.4668510000000  0.5187610000000  0.5767830000000 1.0
C      1  0.6001840000000  0.5158230000000  0.4496120000000 1.0
C      1  0.4873050000000  0.5174940000000  0.4905620000000 1.0
C      1  0.4737900000000  0.4436320000000  0.5513620000000 1.0
C      1  0.5152060000000  0.5885660000000  0.5201980000000 1.0
C      1  0.5511910000000  0.5069400000000  0.4566000000000 1.0
C      1  0.4916730000000  0.4415760000000  0.5291660000000 1.0
END
