TITL C-3866671-3735-565 212.507069953356 125000 -676.906939398472 0 0 111 (C1) n - 1
REM
REM in /home/nfs/bkarasulu/CARBON/AIRSS/Generating-Clusters/LCBOP/Only-C1/SD-CG/FIRE-CG
REM
REM
REM
REM
REM
REM ./C.cell (11c1c37f851c82e70ff6c80c92926a4b)
REM AIRSS Version 0.9.1 bugfix July 2018 build 013d7b7c2542+ Fri, 06 Jul 2018 19:26:36 +0100
REM compiler GCC version 9.2.1 20190827 (Red Hat 9.2.1-1)
REM options -cpp -mtune=generic -march=x86-64 -g -O0 -fpre-include=/usr/include/finclude/math-vector-fortran.h
REM seed 1102217603 -1002384390 1352730755 -557938958 -634566616 -1082664163 -1666336343 -1794362311 -474304817 493907188 63569434 -425968027 -1173338916 -1557316918 2127721871 -663120798 -1653652864 -1527437802 -839483919 -92551229 12449913 1130352077 -1325587506 -2031196409 -1865445864 -1810494759 -335788145 1094589678 24398995 1013868965 -696764273 1388966726 -1855130659
REM
CELL 1.54180   50.00000   50.00000   50.00000   90.00000   90.00000   90.00000
LATT -1
SFAC C  
C      1  0.5208470000000  0.4899080000000  0.4152590000000 1.0
C      1  0.4548710000000  0.4231360000000  0.5096400000000 1.0
C      1  0.6005920000000  0.5364680000000  0.5023110000000 1.0
C      1  0.5531720000000  0.5516140000000  0.4785920000000 1.0
C      1  0.5712710000000  0.4374160000000  0.4985080000000 1.0
C      1  0.4257170000000  0.6274820000000  0.4941050000000 1.0
C      1  0.5117380000000  0.5781840000000  0.4432630000000 1.0
C      1  0.5205700000000  0.5261330000000  0.5921650000000 1.0
C      1  0.4264800000000  0.5389570000000  0.4321630000000 1.0
C      1  0.4888180000000  0.3875230000000  0.4970060000000 1.0
C      1  0.4608260000000  0.5116280000000  0.5422570000000 1.0
C      1  0.4784550000000  0.4648440000000  0.4293820000000 1.0
C      1  0.3943310000000  0.4991940000000  0.4733680000000 1.0
C      1  0.5429720000000  0.4860660000000  0.5785960000000 1.0
C      1  0.4020620000000  0.5884870000000  0.4679970000000 1.0
C      1  0.5207270000000  0.5154320000000  0.4968600000000 1.0
C      1  0.5245530000000  0.4464780000000  0.4257870000000 1.0
C      1  0.5570810000000  0.6059230000000  0.5670840000000 1.0
C      1  0.5890920000000  0.5096900000000  0.5051040000000 1.0
C      1  0.4651310000000  0.5327730000000  0.5233520000000 1.0
C      1  0.3434330000000  0.5640510000000  0.4330620000000 1.0
C      1  0.5043340000000  0.4623310000000  0.5472340000000 1.0
C      1  0.4494970000000  0.4223790000000  0.4800590000000 1.0
C      1  0.5249900000000  0.4142870000000  0.4924450000000 1.0
C      1  0.5360340000000  0.4177230000000  0.5557700000000 1.0
C      1  0.5142180000000  0.4946970000000  0.5144640000000 1.0
C      1  0.5003580000000  0.5527170000000  0.4478680000000 1.0
C      1  0.5735610000000  0.4441760000000  0.5263940000000 1.0
C      1  0.5321240000000  0.5879420000000  0.5285000000000 1.0
C      1  0.4082440000000  0.5236780000000  0.4752370000000 1.0
C      1  0.4355400000000  0.4776130000000  0.4400800000000 1.0
C      1  0.4683630000000  0.5349330000000  0.5945840000000 1.0
C      1  0.5903480000000  0.4971740000000  0.5317020000000 1.0
C      1  0.5228740000000  0.5183250000000  0.4181890000000 1.0
C      1  0.3671680000000  0.5650870000000  0.4437720000000 1.0
C      1  0.4996600000000  0.5341120000000  0.4258120000000 1.0
C      1  0.4629100000000  0.4873500000000  0.4411710000000 1.0
C      1  0.4930230000000  0.5314530000000  0.5753770000000 1.0
C      1  0.5838260000000  0.5441600000000  0.5492070000000 1.0
C      1  0.5016970000000  0.4311350000000  0.5030650000000 1.0
C      1  0.5863040000000  0.4688610000000  0.5332350000000 1.0
C      1  0.4616070000000  0.4450560000000  0.5590650000000 1.0
C      1  0.3998280000000  0.4761290000000  0.4860460000000 1.0
C      1  0.5913170000000  0.4417990000000  0.4791130000000 1.0
C      1  0.4423220000000  0.4701060000000  0.5205090000000 1.0
C      1  0.4524890000000  0.5298010000000  0.4976390000000 1.0
C      1  0.4731320000000  0.4971370000000  0.4659400000000 1.0
C      1  0.5672980000000  0.5055950000000  0.4867890000000 1.0
C      1  0.4933540000000  0.4780360000000  0.5255330000000 1.0
C      1  0.4189490000000  0.4666580000000  0.5021840000000 1.0
C      1  0.5582730000000  0.4284540000000  0.5447200000000 1.0
C      1  0.5301320000000  0.4730070000000  0.5551010000000 1.0
C      1  0.5237780000000  0.4969920000000  0.5976480000000 1.0
C      1  0.5460720000000  0.5263790000000  0.4899060000000 1.0
C      1  0.5000200000000  0.4822340000000  0.6000580000000 1.0
C      1  0.5347000000000  0.4917830000000  0.5333840000000 1.0
C      1  0.5485060000000  0.5309310000000  0.4201440000000 1.0
C      1  0.4244360000000  0.5257440000000  0.4984920000000 1.0
C      1  0.5320240000000  0.4975080000000  0.4577700000000 1.0
C      1  0.4482750000000  0.4422480000000  0.5323580000000 1.0
C      1  0.4345060000000  0.4489820000000  0.4427500000000 1.0
C      1  0.4564620000000  0.4685870000000  0.5779390000000 1.0
C      1  0.4631220000000  0.4409610000000  0.4371500000000 1.0
C      1  0.4482970000000  0.5358990000000  0.4171510000000 1.0
C      1  0.4808360000000  0.4751850000000  0.4832270000000 1.0
C      1  0.4814720000000  0.4832410000000  0.5790200000000 1.0
C      1  0.5485540000000  0.5366340000000  0.5846910000000 1.0
C      1  0.5678180000000  0.4705370000000  0.4457730000000 1.0
C      1  0.4479500000000  0.5153050000000  0.5973360000000 1.0
C      1  0.5151850000000  0.4216480000000  0.4353500000000 1.0
C      1  0.5584750000000  0.4911440000000  0.4633820000000 1.0
C      1  0.4815170000000  0.5061930000000  0.5616900000000 1.0
C      1  0.4392580000000  0.4891190000000  0.5907110000000 1.0
C      1  0.5036320000000  0.5463500000000  0.5489800000000 1.0
C      1  0.5859310000000  0.5153290000000  0.5550910000000 1.0
C      1  0.4168460000000  0.5128280000000  0.5231260000000 1.0
C      1  0.5685290000000  0.5421450000000  0.4344780000000 1.0
C      1  0.5594740000000  0.5104270000000  0.5689020000000 1.0
C      1  0.4974440000000  0.4087710000000  0.4538700000000 1.0
C      1  0.4710500000000  0.4209490000000  0.4575080000000 1.0
C      1  0.3926240000000  0.5655200000000  0.4552210000000 1.0
C      1  0.5094680000000  0.4186450000000  0.5618410000000 1.0
C      1  0.5046490000000  0.4674320000000  0.4198080000000 1.0
C      1  0.5425110000000  0.5160130000000  0.5430210000000 1.0
C      1  0.4711400000000  0.5245260000000  0.4765790000000 1.0
C      1  0.5974530000000  0.5522600000000  0.5259090000000 1.0
C      1  0.5309160000000  0.5893970000000  0.4585860000000 1.0
C      1  0.4983190000000  0.5601840000000  0.5007910000000 1.0
C      1  0.5315910000000  0.5422860000000  0.5432430000000 1.0
C      1  0.5299200000000  0.4565640000000  0.4787560000000 1.0
C      1  0.5998370000000  0.5471330000000  0.4757000000000 1.0
C      1  0.4136000000000  0.6084350000000  0.4810670000000 1.0
C      1  0.5089400000000  0.3951010000000  0.4768250000000 1.0
C      1  0.5454010000000  0.4338160000000  0.4878340000000 1.0
C      1  0.4370360000000  0.4963550000000  0.5356870000000 1.0
C      1  0.4905540000000  0.5464650000000  0.4744440000000 1.0
C      1  0.5218160000000  0.5771700000000  0.5041810000000 1.0
C      1  0.5889020000000  0.4545440000000  0.4553970000000 1.0
C      1  0.4091210000000  0.5424170000000  0.4539860000000 1.0
C      1  0.5523300000000  0.5566910000000  0.5605650000000 1.0
C      1  0.4872580000000  0.5498510000000  0.5256320000000 1.0
C      1  0.5481460000000  0.4619250000000  0.4268280000000 1.0
C      1  0.4745240000000  0.5324370000000  0.4132040000000 1.0
C      1  0.4699980000000  0.4760990000000  0.5094770000000 1.0
C      1  0.4811140000000  0.4120030000000  0.5110350000000 1.0
C      1  0.4907720000000  0.4395860000000  0.5576080000000 1.0
C      1  0.5020530000000  0.4554360000000  0.4853520000000 1.0
C      1  0.4267610000000  0.4335790000000  0.4656410000000 1.0
C      1  0.5475380000000  0.5848830000000  0.5525510000000 1.0
C      1  0.5393140000000  0.5759420000000  0.4819070000000 1.0
C      1  0.5757160000000  0.5499540000000  0.4607710000000 1.0
END
