TITL C-3866675-3766-643 0.0171832785295414 125000 -638.473708429934 0 0 105 (C1) n - 1
REM
REM in /home/nfs/bkarasulu/CARBON/AIRSS/Generating-Clusters/LCBOP/Only-C1/SD-CG/FIRE-CG
REM
REM
REM
REM
REM
REM ./C.cell (11c1c37f851c82e70ff6c80c92926a4b)
REM AIRSS Version 0.9.1 bugfix July 2018 build 013d7b7c2542+ Fri, 06 Jul 2018 19:26:36 +0100
REM compiler GCC version 9.2.1 20190827 (Red Hat 9.2.1-1)
REM options -cpp -mtune=generic -march=x86-64 -g -O0 -fpre-include=/usr/include/finclude/math-vector-fortran.h
REM seed 2115631724 1111831311 -280946005 336110672 921610015 -1063685282 -1394194519 1485497022 -232684945 -908510646 -467195472 1720937910 -1051584947 -1610270123 -1764196341 551826513 -807295759 -1730885256 1561437604 -187642599 -969606557 1124462742 1328506048 -1456416175 -1923292692 493846659 -958312757 -1104545239 2118404464 1824521830 555573701 222767534 717427998
REM
CELL 1.54180   50.00000   50.00000   50.00000   90.00000   90.00000   90.00000
LATT -1
SFAC C  
C      1  0.5733770000000  0.5025940000000  0.4412260000000 1.0
C      1  0.5149100000000  0.5390140000000  0.6239490000000 1.0
C      1  0.5227250000000  0.5809800000000  0.4966180000000 1.0
C      1  0.5849400000000  0.4961290000000  0.4683900000000 1.0
C      1  0.5346520000000  0.5561760000000  0.4894790000000 1.0
C      1  0.4535360000000  0.4753910000000  0.4803900000000 1.0
C      1  0.5679500000000  0.4647610000000  0.5610810000000 1.0
C      1  0.4292130000000  0.4817470000000  0.5284450000000 1.0
C      1  0.5246580000000  0.4334470000000  0.5411880000000 1.0
C      1  0.4940370000000  0.4221880000000  0.4749140000000 1.0
C      1  0.4310590000000  0.5512050000000  0.4587870000000 1.0
C      1  0.5340240000000  0.6053670000000  0.4892530000000 1.0
C      1  0.5088340000000  0.4687450000000  0.4274200000000 1.0
C      1  0.5598230000000  0.4771350000000  0.4328570000000 1.0
C      1  0.4116700000000  0.4323720000000  0.4802460000000 1.0
C      1  0.5280160000000  0.4175880000000  0.5634970000000 1.0
C      1  0.4418660000000  0.4800540000000  0.5541640000000 1.0
C      1  0.4740370000000  0.5808410000000  0.4947310000000 1.0
C      1  0.5334310000000  0.5490590000000  0.5678430000000 1.0
C      1  0.4659050000000  0.5283000000000  0.4024640000000 1.0
C      1  0.4467920000000  0.5279790000000  0.5537900000000 1.0
C      1  0.5929020000000  0.5154940000000  0.5778220000000 1.0
C      1  0.5380280000000  0.4554310000000  0.6026870000000 1.0
C      1  0.3997160000000  0.4808590000000  0.4666830000000 1.0
C      1  0.4245830000000  0.5852830000000  0.4953910000000 1.0
C      1  0.4473550000000  0.4075900000000  0.5128960000000 1.0
C      1  0.5595400000000  0.4346150000000  0.5002530000000 1.0
C      1  0.4760120000000  0.5181700000000  0.6052080000000 1.0
C      1  0.5335920000000  0.5497370000000  0.4626030000000 1.0
C      1  0.4644150000000  0.4250290000000  0.5267680000000 1.0
C      1  0.4937330000000  0.4909340000000  0.3785930000000 1.0
C      1  0.4995970000000  0.5422830000000  0.4286790000000 1.0
C      1  0.5023410000000  0.5746290000000  0.5396420000000 1.0
C      1  0.4727830000000  0.5779810000000  0.4651480000000 1.0
C      1  0.4055820000000  0.5063760000000  0.4769270000000 1.0
C      1  0.5125530000000  0.5276920000000  0.4070840000000 1.0
C      1  0.5552220000000  0.6509620000000  0.4739540000000 1.0
C      1  0.5283850000000  0.4950110000000  0.4619570000000 1.0
C      1  0.4850070000000  0.5982160000000  0.4505500000000 1.0
C      1  0.5320130000000  0.4798960000000  0.4386200000000 1.0
C      1  0.5730960000000  0.5116970000000  0.5591380000000 1.0
C      1  0.4711890000000  0.5363980000000  0.5431560000000 1.0
C      1  0.5381360000000  0.4245340000000  0.5175070000000 1.0
C      1  0.5575740000000  0.5454230000000  0.5289600000000 1.0
C      1  0.5845540000000  0.5044540000000  0.4963150000000 1.0
C      1  0.4705220000000  0.5451090000000  0.4260050000000 1.0
C      1  0.5126230000000  0.4536560000000  0.6105270000000 1.0
C      1  0.5079790000000  0.4809100000000  0.5424980000000 1.0
C      1  0.4742450000000  0.4652800000000  0.4650220000000 1.0
C      1  0.5380220000000  0.4099150000000  0.4597560000000 1.0
C      1  0.4884270000000  0.5546270000000  0.5559260000000 1.0
C      1  0.4490970000000  0.5876410000000  0.5063270000000 1.0
C      1  0.4176490000000  0.5716760000000  0.4732100000000 1.0
C      1  0.5747280000000  0.4589140000000  0.4990680000000 1.0
C      1  0.5245490000000  0.4023200000000  0.5047990000000 1.0
C      1  0.4574520000000  0.5578670000000  0.4489820000000 1.0
C      1  0.5073550000000  0.5055590000000  0.5289170000000 1.0
C      1  0.5406960000000  0.5236750000000  0.4087770000000 1.0
C      1  0.5160060000000  0.4050710000000  0.4777540000000 1.0
C      1  0.5602700000000  0.4195670000000  0.4749920000000 1.0
C      1  0.4501130000000  0.3805350000000  0.5160110000000 1.0
C      1  0.4275620000000  0.4177470000000  0.4957760000000 1.0
C      1  0.4904770000000  0.5289720000000  0.4733360000000 1.0
C      1  0.5745080000000  0.4565200000000  0.4463150000000 1.0
C      1  0.3819890000000  0.4823490000000  0.5396320000000 1.0
C      1  0.4991820000000  0.5337600000000  0.6021540000000 1.0
C      1  0.5573830000000  0.4573400000000  0.5844630000000 1.0
C      1  0.4756820000000  0.4449380000000  0.5428080000000 1.0
C      1  0.5028140000000  0.4654940000000  0.3813560000000 1.0
C      1  0.5116280000000  0.4520390000000  0.4046240000000 1.0
C      1  0.5256170000000  0.4896770000000  0.4889090000000 1.0
C      1  0.5235230000000  0.4271560000000  0.4109350000000 1.0
C      1  0.5837430000000  0.4658850000000  0.4718350000000 1.0
C      1  0.4834630000000  0.4719810000000  0.4394710000000 1.0
C      1  0.4015650000000  0.4543600000000  0.4690970000000 1.0
C      1  0.5277630000000  0.5098590000000  0.5089950000000 1.0
C      1  0.4658860000000  0.4537520000000  0.5888200000000 1.0
C      1  0.5033930000000  0.4529530000000  0.5418090000000 1.0
C      1  0.4928690000000  0.4497260000000  0.4796990000000 1.0
C      1  0.3857800000000  0.5350820000000  0.5108670000000 1.0
C      1  0.4864130000000  0.4523980000000  0.6058460000000 1.0
C      1  0.5563970000000  0.5473680000000  0.4466800000000 1.0
C      1  0.4590530000000  0.4584600000000  0.5619030000000 1.0
C      1  0.5124760000000  0.4649030000000  0.4932220000000 1.0
C      1  0.5084360000000  0.5401900000000  0.4548280000000 1.0
C      1  0.4203030000000  0.5253590000000  0.4620410000000 1.0
C      1  0.4439870000000  0.4772790000000  0.5051260000000 1.0
C      1  0.5447600000000  0.6283470000000  0.4816160000000 1.0
C      1  0.5774870000000  0.4833490000000  0.5160410000000 1.0
C      1  0.4780630000000  0.5242300000000  0.4963370000000 1.0
C      1  0.4028160000000  0.4918850000000  0.5246230000000 1.0
C      1  0.5729460000000  0.4868390000000  0.5442170000000 1.0
C      1  0.4904230000000  0.5155510000000  0.3918790000000 1.0
C      1  0.4543170000000  0.5063540000000  0.5949560000000 1.0
C      1  0.5417630000000  0.5353890000000  0.5076990000000 1.0
C      1  0.5299620000000  0.5745640000000  0.5508130000000 1.0
C      1  0.5537720000000  0.5738570000000  0.5342820000000 1.0
C      1  0.5336400000000  0.4136420000000  0.4320760000000 1.0
C      1  0.4835890000000  0.5204210000000  0.5234720000000 1.0
C      1  0.5062280000000  0.5440810000000  0.5768000000000 1.0
C      1  0.5543770000000  0.5323820000000  0.5548850000000 1.0
C      1  0.5610030000000  0.5256750000000  0.4293450000000 1.0
C      1  0.3981910000000  0.5115510000000  0.5042140000000 1.0
C      1  0.4981130000000  0.5798190000000  0.5112710000000 1.0
C      1  0.4435610000000  0.5044280000000  0.5690810000000 1.0
END
