TITL C-3866671-3735-423 0.346906271740689 125000 -429.599412797274 0 0 71 (C1) n - 1
REM
REM in /home/nfs/bkarasulu/CARBON/AIRSS/Generating-Clusters/LCBOP/Only-C1/SD-CG/FIRE-CG
REM
REM
REM
REM
REM
REM ./C.cell (11c1c37f851c82e70ff6c80c92926a4b)
REM AIRSS Version 0.9.1 bugfix July 2018 build 013d7b7c2542+ Fri, 06 Jul 2018 19:26:36 +0100
REM compiler GCC version 9.2.1 20190827 (Red Hat 9.2.1-1)
REM options -cpp -mtune=generic -march=x86-64 -g -O0 -fpre-include=/usr/include/finclude/math-vector-fortran.h
REM seed -1048092727 -1795165627 -1577449700 1656325136 -679720130 1405372280 -626687081 426730482 -185347956 -711928487 2128757800 -719203698 -1976761325 463355895 -1989834393 -591131550 18977335 1402832066 657574918 -1487706302 1032562072 1244812707 -1614924707 -1079070984 633127690 -1812106843 -1847083234 -124415846 308942010 -1147891850 722186426 1216560679 300946075
REM
CELL 1.54180   50.00000   50.00000   50.00000   90.00000   90.00000   90.00000
LATT -1
SFAC C  
C      1  0.4998270000000  0.4534250000000  0.5217120000000 1.0
C      1  0.5046020000000  0.4636540000000  0.4958620000000 1.0
C      1  0.4068640000000  0.4687280000000  0.4637610000000 1.0
C      1  0.5185780000000  0.5148330000000  0.5887440000000 1.0
C      1  0.4879650000000  0.4058480000000  0.5088210000000 1.0
C      1  0.5806430000000  0.4822990000000  0.5531480000000 1.0
C      1  0.4408880000000  0.4925140000000  0.4960010000000 1.0
C      1  0.5212920000000  0.5597500000000  0.4883150000000 1.0
C      1  0.5745320000000  0.5564170000000  0.4907880000000 1.0
C      1  0.4929260000000  0.4326180000000  0.5755660000000 1.0
C      1  0.5817220000000  0.4850820000000  0.5053860000000 1.0
C      1  0.5674190000000  0.5610820000000  0.5904950000000 1.0
C      1  0.4970700000000  0.4409230000000  0.4269170000000 1.0
C      1  0.4989100000000  0.5180910000000  0.5269820000000 1.0
C      1  0.5414270000000  0.5307800000000  0.5275560000000 1.0
C      1  0.4514960000000  0.4445810000000  0.5479790000000 1.0
C      1  0.4177310000000  0.5199540000000  0.4497050000000 1.0
C      1  0.4216860000000  0.5313620000000  0.4243170000000 1.0
C      1  0.4319270000000  0.5192780000000  0.4961330000000 1.0
C      1  0.5645090000000  0.5351500000000  0.5430200000000 1.0
C      1  0.5093790000000  0.5351450000000  0.4784000000000 1.0
C      1  0.5654620000000  0.5480630000000  0.5675060000000 1.0
C      1  0.5149690000000  0.5424690000000  0.5315630000000 1.0
C      1  0.4126700000000  0.4480610000000  0.4799960000000 1.0
C      1  0.4345550000000  0.4492910000000  0.5236060000000 1.0
C      1  0.5072480000000  0.5639310000000  0.5138660000000 1.0
C      1  0.4449880000000  0.4919500000000  0.5430710000000 1.0
C      1  0.4632220000000  0.4715750000000  0.5514490000000 1.0
C      1  0.4785030000000  0.4062250000000  0.4613410000000 1.0
C      1  0.4657040000000  0.4881980000000  0.4829210000000 1.0
C      1  0.4882500000000  0.5545250000000  0.4172000000000 1.0
C      1  0.4401710000000  0.5481970000000  0.4144310000000 1.0
C      1  0.5053190000000  0.4649040000000  0.4190340000000 1.0
C      1  0.4337490000000  0.4784200000000  0.5195450000000 1.0
C      1  0.5087970000000  0.5380640000000  0.4136600000000 1.0
C      1  0.4276710000000  0.4345830000000  0.5001560000000 1.0
C      1  0.4554540000000  0.5581920000000  0.5038720000000 1.0
C      1  0.5391320000000  0.5101950000000  0.5051590000000 1.0
C      1  0.5877050000000  0.5257000000000  0.5292770000000 1.0
C      1  0.5083950000000  0.5114250000000  0.4975310000000 1.0
C      1  0.4427770000000  0.4119090000000  0.4935540000000 1.0
C      1  0.4456330000000  0.5203340000000  0.5417330000000 1.0
C      1  0.5138540000000  0.4898130000000  0.4156990000000 1.0
C      1  0.5598370000000  0.4710800000000  0.5662390000000 1.0
C      1  0.5183550000000  0.4955060000000  0.5694880000000 1.0
C      1  0.5250410000000  0.5154670000000  0.4166210000000 1.0
C      1  0.4693190000000  0.4046970000000  0.4877510000000 1.0
C      1  0.5022730000000  0.4969830000000  0.5460680000000 1.0
C      1  0.4880930000000  0.4201270000000  0.4408020000000 1.0
C      1  0.4289860000000  0.5339150000000  0.4719290000000 1.0
C      1  0.6021290000000  0.5170720000000  0.4395780000000 1.0
C      1  0.5689390000000  0.5735560000000  0.6133350000000 1.0
C      1  0.4893100000000  0.4727210000000  0.5404750000000 1.0
C      1  0.4682520000000  0.4279800000000  0.5643620000000 1.0
C      1  0.5523610000000  0.5184700000000  0.4216100000000 1.0
C      1  0.5491730000000  0.5641020000000  0.4851600000000 1.0
C      1  0.4463380000000  0.5573680000000  0.4758460000000 1.0
C      1  0.5895370000000  0.4967070000000  0.5301360000000 1.0
C      1  0.4626330000000  0.5601300000000  0.4267310000000 1.0
C      1  0.4431510000000  0.5355070000000  0.5178710000000 1.0
C      1  0.4795680000000  0.5702450000000  0.5122820000000 1.0
C      1  0.6258790000000  0.5149040000000  0.4501070000000 1.0
C      1  0.5157860000000  0.4472920000000  0.5779620000000 1.0
C      1  0.4584290000000  0.5688210000000  0.4533110000000 1.0
C      1  0.5322370000000  0.4703380000000  0.5729070000000 1.0
C      1  0.5579610000000  0.4923790000000  0.4947300000000 1.0
C      1  0.5918420000000  0.5415850000000  0.5057360000000 1.0
C      1  0.4995920000000  0.4253990000000  0.5230360000000 1.0
C      1  0.4936620000000  0.4879190000000  0.4871240000000 1.0
C      1  0.5775530000000  0.5187380000000  0.4297920000000 1.0
C      1  0.4081450000000  0.4934560000000  0.4532340000000 1.0
END
