TITL C-3866673-4222-71 -9.20080269806041e-07 125000 -775.661744289494 0 0 126 (C1) n - 1
REM
REM in /home/nfs/bkarasulu/CARBON/AIRSS/Generating-Clusters/LCBOP/Only-C1/SD-CG/HFTN-CG/FIRE-CG
REM
REM
REM
REM
REM
REM ./C.cell (11c1c37f851c82e70ff6c80c92926a4b)
REM AIRSS Version 0.9.1 bugfix July 2018 build 013d7b7c2542+ Fri, 06 Jul 2018 19:26:36 +0100
REM compiler GCC version 9.2.1 20190827 (Red Hat 9.2.1-1)
REM options -cpp -mtune=generic -march=x86-64 -g -O0 -fpre-include=/usr/include/finclude/math-vector-fortran.h
REM seed -1413947772 1729551836 -963030211 117226761 1836081852 -2080522470 -1080264226 183394107 2027492774 -1575283102 -1142619175 1477730407 1704780915 -1707339804 -915096566 1514746499 -2097581891 1256569089 -463909323 -998654228 331700140 -1102179660 1661815458 931027818 -1273696387 -700948662 913653950 -891255864 -716750336 -488608278 1747346750 1441408921 -2112972526
REM
CELL 1.54180   50.00000   50.00000   50.00000   90.00000   90.00000   90.00000
LATT -1
SFAC C  
C      1  0.4509400000000  0.4741730000000  0.5519410000000 1.0
C      1  0.3989550000000  0.5242200000000  0.4749400000000 1.0
C      1  0.4749000000000  0.5165820000000  0.5485510000000 1.0
C      1  0.5270920000000  0.4661240000000  0.5411470000000 1.0
C      1  0.4817430000000  0.4372880000000  0.4376340000000 1.0
C      1  0.4727480000000  0.5735730000000  0.5604590000000 1.0
C      1  0.5367630000000  0.4652010000000  0.4785180000000 1.0
C      1  0.4982960000000  0.5081300000000  0.5618330000000 1.0
C      1  0.6010960000000  0.4817540000000  0.5211820000000 1.0
C      1  0.5060100000000  0.5163720000000  0.4414850000000 1.0
C      1  0.5537940000000  0.4787230000000  0.4315920000000 1.0
C      1  0.5435830000000  0.4053640000000  0.5364140000000 1.0
C      1  0.4471160000000  0.5697900000000  0.4708210000000 1.0
C      1  0.4743810000000  0.4863830000000  0.5928290000000 1.0
C      1  0.5495000000000  0.4850070000000  0.4597400000000 1.0
C      1  0.5539020000000  0.4851820000000  0.4034630000000 1.0
C      1  0.5606660000000  0.4104900000000  0.5147120000000 1.0
C      1  0.4364400000000  0.5642190000000  0.5187680000000 1.0
C      1  0.5229560000000  0.5109240000000  0.5504580000000 1.0
C      1  0.5048850000000  0.6004250000000  0.5233780000000 1.0
C      1  0.4599580000000  0.6041810000000  0.5035840000000 1.0
C      1  0.5459150000000  0.4743770000000  0.5624990000000 1.0
C      1  0.5733340000000  0.5397640000000  0.5726220000000 1.0
C      1  0.4958750000000  0.6320600000000  0.4877440000000 1.0
C      1  0.5778900000000  0.4822880000000  0.3901710000000 1.0
C      1  0.5133130000000  0.4763240000000  0.3751850000000 1.0
C      1  0.4743490000000  0.4681930000000  0.5683770000000 1.0
C      1  0.4969130000000  0.5853810000000  0.5465440000000 1.0
C      1  0.4647390000000  0.5245810000000  0.4619560000000 1.0
C      1  0.6231880000000  0.4743240000000  0.5672750000000 1.0
C      1  0.4179760000000  0.4445660000000  0.4703670000000 1.0
C      1  0.6207900000000  0.4798760000000  0.5412700000000 1.0
C      1  0.5273730000000  0.5381790000000  0.5958920000000 1.0
C      1  0.4450070000000  0.5811920000000  0.4968790000000 1.0
C      1  0.5925020000000  0.5078140000000  0.5142930000000 1.0
C      1  0.5312910000000  0.4945950000000  0.3876810000000 1.0
C      1  0.5131880000000  0.5595720000000  0.5823100000000 1.0
C      1  0.5823430000000  0.5336940000000  0.5204960000000 1.0
C      1  0.4494880000000  0.4514510000000  0.4037210000000 1.0
C      1  0.4774710000000  0.5353370000000  0.6034410000000 1.0
C      1  0.5189610000000  0.5688770000000  0.5562530000000 1.0
C      1  0.5460350000000  0.5680130000000  0.5147300000000 1.0
C      1  0.5001710000000  0.4991790000000  0.5894150000000 1.0
C      1  0.4588200000000  0.5511570000000  0.4528510000000 1.0
C      1  0.4293890000000  0.5372350000000  0.5107540000000 1.0
C      1  0.5014190000000  0.5030110000000  0.4901600000000 1.0
C      1  0.5011730000000  0.4323590000000  0.4574590000000 1.0
C      1  0.4827300000000  0.5584810000000  0.5853300000000 1.0
C      1  0.4117960000000  0.4729070000000  0.5162010000000 1.0
C      1  0.4702830000000  0.4291230000000  0.4927150000000 1.0
C      1  0.4654810000000  0.4731130000000  0.3941210000000 1.0
C      1  0.4859940000000  0.5540330000000  0.4065320000000 1.0
C      1  0.5454300000000  0.5459470000000  0.4276660000000 1.0
C      1  0.4016160000000  0.5001330000000  0.5211550000000 1.0
C      1  0.4734830000000  0.3959610000000  0.5405860000000 1.0
C      1  0.5277900000000  0.4420290000000  0.4624840000000 1.0
C      1  0.4950990000000  0.4140150000000  0.5409810000000 1.0
C      1  0.5887990000000  0.4574070000000  0.5134550000000 1.0
C      1  0.5316440000000  0.5932220000000  0.5125610000000 1.0
C      1  0.4557420000000  0.4962070000000  0.4959390000000 1.0
C      1  0.4517950000000  0.3966110000000  0.5244920000000 1.0
C      1  0.4986680000000  0.5630050000000  0.4873950000000 1.0
C      1  0.4546960000000  0.4413790000000  0.4301410000000 1.0
C      1  0.4052740000000  0.5254300000000  0.4485550000000 1.0
C      1  0.5562060000000  0.4568120000000  0.5823450000000 1.0
C      1  0.4256030000000  0.5123580000000  0.5654080000000 1.0
C      1  0.5060170000000  0.4730420000000  0.4245250000000 1.0
C      1  0.4933150000000  0.4975340000000  0.4241770000000 1.0
C      1  0.5046800000000  0.5411930000000  0.3919950000000 1.0
C      1  0.5253680000000  0.5274530000000  0.5292950000000 1.0
C      1  0.4906100000000  0.4159490000000  0.4779900000000 1.0
C      1  0.5406270000000  0.4348600000000  0.5902420000000 1.0
C      1  0.4313710000000  0.5156980000000  0.5929790000000 1.0
C      1  0.4885880000000  0.5502920000000  0.5088440000000 1.0
C      1  0.4858770000000  0.6147060000000  0.5075290000000 1.0
C      1  0.5050730000000  0.5220060000000  0.6059920000000 1.0
C      1  0.4521610000000  0.5202670000000  0.5106580000000 1.0
C      1  0.4811440000000  0.4814300000000  0.4992540000000 1.0
C      1  0.4921990000000  0.5175190000000  0.4659970000000 1.0
C      1  0.5225940000000  0.5217470000000  0.3866620000000 1.0
C      1  0.4337690000000  0.4383970000000  0.4493120000000 1.0
C      1  0.4027910000000  0.5085730000000  0.5489560000000 1.0
C      1  0.5480220000000  0.5133750000000  0.4632800000000 1.0
C      1  0.4436850000000  0.5123950000000  0.4145280000000 1.0
C      1  0.5336380000000  0.4655850000000  0.5098470000000 1.0
C      1  0.4307160000000  0.4631780000000  0.5357410000000 1.0
C      1  0.5633210000000  0.5605590000000  0.4155510000000 1.0
C      1  0.5125720000000  0.6010430000000  0.4516480000000 1.0
C      1  0.5287200000000  0.3833800000000  0.4901700000000 1.0
C      1  0.5257230000000  0.4155540000000  0.5792090000000 1.0
C      1  0.5622740000000  0.5457900000000  0.5028070000000 1.0
C      1  0.5511580000000  0.5255490000000  0.5834240000000 1.0
C      1  0.5216510000000  0.6003520000000  0.4259620000000 1.0
C      1  0.4900760000000  0.4410170000000  0.5321030000000 1.0
C      1  0.5491300000000  0.4257910000000  0.4530010000000 1.0
C      1  0.4498810000000  0.5030220000000  0.5533070000000 1.0
C      1  0.5626400000000  0.4064460000000  0.4660120000000 1.0
C      1  0.5466470000000  0.5256990000000  0.4882250000000 1.0
C      1  0.5540310000000  0.3962120000000  0.4908240000000 1.0
C      1  0.6074320000000  0.4667470000000  0.5874510000000 1.0
C      1  0.4212070000000  0.5215560000000  0.4268390000000 1.0
C      1  0.5445150000000  0.5025490000000  0.5669890000000 1.0
C      1  0.5206960000000  0.4086050000000  0.5523900000000 1.0
C      1  0.5317750000000  0.5541690000000  0.5358970000000 1.0
C      1  0.5238620000000  0.5166670000000  0.5033550000000 1.0
C      1  0.4985610000000  0.4606410000000  0.5511940000000 1.0
C      1  0.4799350000000  0.4523970000000  0.5071600000000 1.0
C      1  0.4583850000000  0.5113950000000  0.6016890000000 1.0
C      1  0.5782840000000  0.4326900000000  0.5144960000000 1.0
C      1  0.4093580000000  0.4579620000000  0.4921780000000 1.0
C      1  0.5820210000000  0.4604820000000  0.5923980000000 1.0
C      1  0.4487160000000  0.5698240000000  0.5447710000000 1.0
C      1  0.4748710000000  0.5308660000000  0.5239050000000 1.0
C      1  0.4338390000000  0.4856100000000  0.4538120000000 1.0
C      1  0.4871810000000  0.4695080000000  0.3761620000000 1.0
C      1  0.5075750000000  0.5778510000000  0.4669610000000 1.0
C      1  0.5328570000000  0.5260540000000  0.4424360000000 1.0
C      1  0.5038830000000  0.3922940000000  0.4850410000000 1.0
C      1  0.4298120000000  0.4405730000000  0.3881390000000 1.0
C      1  0.4487590000000  0.5019830000000  0.4689740000000 1.0
C      1  0.5069390000000  0.6256480000000  0.4641510000000 1.0
C      1  0.4061480000000  0.5222630000000  0.5024610000000 1.0
C      1  0.4494670000000  0.4131060000000  0.5031910000000 1.0
C      1  0.4674120000000  0.4969220000000  0.4107500000000 1.0
C      1  0.5840010000000  0.5419990000000  0.5477910000000 1.0
C      1  0.4696730000000  0.5583490000000  0.4275210000000 1.0
END
