TITL C-3866669-3764-757 -9.50357434382148e-07 125000 -669.064841876677 0 0 110 (C1) n - 1
REM
REM in /home/nfs/bkarasulu/CARBON/AIRSS/Generating-Clusters/LCBOP/Only-C1/SD-CG/FIRE-CG
REM
REM
REM
REM
REM
REM ./C.cell (11c1c37f851c82e70ff6c80c92926a4b)
REM AIRSS Version 0.9.1 bugfix July 2018 build 013d7b7c2542+ Fri, 06 Jul 2018 19:26:36 +0100
REM compiler GCC version 9.2.1 20190827 (Red Hat 9.2.1-1)
REM options -cpp -mtune=generic -march=x86-64 -g -O0 -fpre-include=/usr/include/finclude/math-vector-fortran.h
REM seed 569628989 -574725574 847686567 1073921387 -1093387253 106994378 -2006120318 -738257405 1757292467 -1286789358 1840699427 1008317240 1994522834 -1209973070 872834023 -78195061 948065129 -1738731142 -2058296892 -95422676 -1734344624 -1994441759 -213512336 -1120974980 -1853739760 958587381 -926282546 -628900195 -1144384070 -756902214 -987977422 802790900 -2064575886
REM
CELL 1.54180   50.00000   50.00000   50.00000   90.00000   90.00000   90.00000
LATT -1
SFAC C  
C      1  0.5813840000000  0.4254470000000  0.4916600000000 1.0
C      1  0.4332980000000  0.4849950000000  0.4522380000000 1.0
C      1  0.5871560000000  0.5338250000000  0.5439150000000 1.0
C      1  0.4749650000000  0.4698760000000  0.5297290000000 1.0
C      1  0.5208970000000  0.5142270000000  0.6021900000000 1.0
C      1  0.5023580000000  0.5378480000000  0.5527860000000 1.0
C      1  0.4874890000000  0.5556320000000  0.5347950000000 1.0
C      1  0.4506280000000  0.4411840000000  0.4353160000000 1.0
C      1  0.5885810000000  0.4390710000000  0.5151330000000 1.0
C      1  0.4138810000000  0.5601400000000  0.4728510000000 1.0
C      1  0.4583600000000  0.5472260000000  0.4668330000000 1.0
C      1  0.4620010000000  0.5394030000000  0.4216260000000 1.0
C      1  0.5470990000000  0.4370540000000  0.4027140000000 1.0
C      1  0.4576500000000  0.5099520000000  0.5190450000000 1.0
C      1  0.4407320000000  0.5679990000000  0.4724300000000 1.0
C      1  0.4587070000000  0.5179510000000  0.5462000000000 1.0
C      1  0.4833910000000  0.4639430000000  0.5760510000000 1.0
C      1  0.4727320000000  0.4390620000000  0.5751360000000 1.0
C      1  0.5383710000000  0.5250370000000  0.4747880000000 1.0
C      1  0.5638960000000  0.4270960000000  0.3836510000000 1.0
C      1  0.4701690000000  0.5183200000000  0.4048060000000 1.0
C      1  0.3895770000000  0.5296400000000  0.5343670000000 1.0
C      1  0.4660560000000  0.5343760000000  0.6005810000000 1.0
C      1  0.5975060000000  0.4873600000000  0.5328060000000 1.0
C      1  0.6173390000000  0.4151550000000  0.4528040000000 1.0
C      1  0.4515050000000  0.5846400000000  0.5452860000000 1.0
C      1  0.5461080000000  0.5152400000000  0.5864480000000 1.0
C      1  0.4431770000000  0.4689430000000  0.4295040000000 1.0
C      1  0.5263600000000  0.4003180000000  0.4526930000000 1.0
C      1  0.4570760000000  0.5622690000000  0.5964090000000 1.0
C      1  0.4385680000000  0.5092330000000  0.5647460000000 1.0
C      1  0.5739470000000  0.5493700000000  0.5638560000000 1.0
C      1  0.5145720000000  0.4413490000000  0.5290070000000 1.0
C      1  0.4619340000000  0.4843080000000  0.4108380000000 1.0
C      1  0.5475970000000  0.5721130000000  0.4846340000000 1.0
C      1  0.5282170000000  0.5516110000000  0.4757240000000 1.0
C      1  0.4192380000000  0.4918880000000  0.5517350000000 1.0
C      1  0.4994310000000  0.5684880000000  0.5135900000000 1.0
C      1  0.4157570000000  0.5656660000000  0.5196670000000 1.0
C      1  0.5355570000000  0.5113690000000  0.5274450000000 1.0
C      1  0.4777630000000  0.5965680000000  0.4727730000000 1.0
C      1  0.4976520000000  0.4701120000000  0.4665490000000 1.0
C      1  0.5377180000000  0.4858370000000  0.5392620000000 1.0
C      1  0.5397190000000  0.4462790000000  0.4493660000000 1.0
C      1  0.5851700000000  0.5207360000000  0.4696960000000 1.0
C      1  0.5542690000000  0.4982800000000  0.4361790000000 1.0
C      1  0.5569640000000  0.4500750000000  0.4262710000000 1.0
C      1  0.4756150000000  0.5865900000000  0.4442230000000 1.0
C      1  0.5314830000000  0.5370500000000  0.5438620000000 1.0
C      1  0.5328560000000  0.4595540000000  0.5399230000000 1.0
C      1  0.5598280000000  0.5161020000000  0.4578070000000 1.0
C      1  0.5480600000000  0.5388520000000  0.5695060000000 1.0
C      1  0.4469660000000  0.4186480000000  0.4848780000000 1.0
C      1  0.4544290000000  0.5746300000000  0.5704830000000 1.0
C      1  0.5033190000000  0.5497950000000  0.5799840000000 1.0
C      1  0.4508010000000  0.5771370000000  0.6187200000000 1.0
C      1  0.5267600000000  0.4896650000000  0.4328950000000 1.0
C      1  0.4925200000000  0.4531920000000  0.5155960000000 1.0
C      1  0.4703520000000  0.4075500000000  0.5328140000000 1.0
C      1  0.5693300000000  0.4994420000000  0.5761040000000 1.0
C      1  0.5294850000000  0.5948530000000  0.4938820000000 1.0
C      1  0.4855780000000  0.4821190000000  0.5544500000000 1.0
C      1  0.5208790000000  0.4678380000000  0.4512620000000 1.0
C      1  0.6007030000000  0.4196250000000  0.4723590000000 1.0
C      1  0.4405810000000  0.5820140000000  0.5186650000000 1.0
C      1  0.5187610000000  0.4348930000000  0.4004340000000 1.0
C      1  0.5096160000000  0.4923040000000  0.4105420000000 1.0
C      1  0.4886480000000  0.4723130000000  0.4069550000000 1.0
C      1  0.4959700000000  0.5309500000000  0.6006960000000 1.0
C      1  0.4745040000000  0.5193830000000  0.4999900000000 1.0
C      1  0.4065090000000  0.5485110000000  0.4970160000000 1.0
C      1  0.4010130000000  0.5539480000000  0.5418040000000 1.0
C      1  0.5544070000000  0.4176320000000  0.4876020000000 1.0
C      1  0.4797430000000  0.5399730000000  0.4827480000000 1.0
C      1  0.4797080000000  0.4908760000000  0.4616770000000 1.0
C      1  0.6061040000000  0.5003920000000  0.5089230000000 1.0
C      1  0.4083290000000  0.4958800000000  0.5010760000000 1.0
C      1  0.5837750000000  0.5418950000000  0.5154120000000 1.0
C      1  0.5348200000000  0.5114680000000  0.4992680000000 1.0
C      1  0.5415730000000  0.5632010000000  0.5292100000000 1.0
C      1  0.5021190000000  0.5550230000000  0.4882040000000 1.0
C      1  0.4863440000000  0.5114760000000  0.5542680000000 1.0
C      1  0.5181670000000  0.4135160000000  0.5250210000000 1.0
C      1  0.5944270000000  0.5229390000000  0.4963720000000 1.0
C      1  0.4715600000000  0.4304060000000  0.4190930000000 1.0
C      1  0.5402210000000  0.4216090000000  0.4631860000000 1.0
C      1  0.4545110000000  0.4112370000000  0.5095890000000 1.0
C      1  0.4532580000000  0.5876760000000  0.4906130000000 1.0
C      1  0.4651580000000  0.4199800000000  0.5577280000000 1.0
C      1  0.4927990000000  0.4533920000000  0.4879550000000 1.0
C      1  0.4511220000000  0.4816640000000  0.5189500000000 1.0
C      1  0.4930020000000  0.4443540000000  0.4069730000000 1.0
C      1  0.5000510000000  0.3688430000000  0.5327450000000 1.0
C      1  0.5868680000000  0.5052270000000  0.5525290000000 1.0
C      1  0.4145210000000  0.4865620000000  0.4740490000000 1.0
C      1  0.4225630000000  0.4830770000000  0.5237650000000 1.0
C      1  0.5699910000000  0.4758380000000  0.4267370000000 1.0
C      1  0.5939650000000  0.4597210000000  0.5310880000000 1.0
C      1  0.4708280000000  0.5672320000000  0.4248570000000 1.0
C      1  0.4446540000000  0.4286590000000  0.4600480000000 1.0
C      1  0.3975370000000  0.5221940000000  0.5070540000000 1.0
C      1  0.4983710000000  0.5163470000000  0.4002320000000 1.0
C      1  0.5051730000000  0.6042160000000  0.4804810000000 1.0
C      1  0.5627820000000  0.5606480000000  0.5086910000000 1.0
C      1  0.5226220000000  0.5836880000000  0.5204090000000 1.0
C      1  0.4552760000000  0.5028890000000  0.4551500000000 1.0
C      1  0.4534480000000  0.5293270000000  0.4465800000000 1.0
C      1  0.5400580000000  0.4065690000000  0.5090910000000 1.0
C      1  0.4964340000000  0.3958090000000  0.5301450000000 1.0
C      1  0.4466230000000  0.5150980000000  0.5914990000000 1.0
END
