TITL C-3866673-4222-337 0.121319645210971 125000 -1050.45761068316 0 0 170 (C1) n - 1
REM
REM in /home/nfs/bkarasulu/CARBON/AIRSS/Generating-Clusters/LCBOP/Only-C1/SD-CG/FIRE-CG
REM
REM
REM
REM
REM
REM ./C.cell (11c1c37f851c82e70ff6c80c92926a4b)
REM AIRSS Version 0.9.1 bugfix July 2018 build 013d7b7c2542+ Fri, 06 Jul 2018 19:26:36 +0100
REM compiler GCC version 9.2.1 20190827 (Red Hat 9.2.1-1)
REM options -cpp -mtune=generic -march=x86-64 -g -O0 -fpre-include=/usr/include/finclude/math-vector-fortran.h
REM seed 2067588743 291076106 -1848292516 -1635328214 -546756507 -985772139 -1155660921 1867710278 -513451916 -1377945734 1395902162 -1497285371 1070402341 1750275677 534192965 1151885767 -2117690159 494805171 -755718705 146549006 -203533034 -985466070 -103162909 -122901676 1308243562 1367103534 -1465313508 -1432207392 900437135 -1944459344 -1803845587 1518104700 -1090088788
REM
CELL 1.54180   50.00000   50.00000   50.00000   90.00000   90.00000   90.00000
LATT -1
SFAC C  
C      1  0.6148620000000  0.4365310000000  0.5081570000000 1.0
C      1  0.5267580000000  0.4307360000000  0.4188800000000 1.0
C      1  0.5252760000000  0.4530700000000  0.6301540000000 1.0
C      1  0.4647840000000  0.4650550000000  0.4123560000000 1.0
C      1  0.5222540000000  0.4202620000000  0.5592030000000 1.0
C      1  0.6225340000000  0.5065290000000  0.5306800000000 1.0
C      1  0.5123610000000  0.4908380000000  0.5245920000000 1.0
C      1  0.4201690000000  0.4735920000000  0.5581840000000 1.0
C      1  0.5755910000000  0.5818780000000  0.4935920000000 1.0
C      1  0.4806250000000  0.5800000000000  0.4993870000000 1.0
C      1  0.5979650000000  0.4988810000000  0.5773670000000 1.0
C      1  0.5703080000000  0.4210100000000  0.4374310000000 1.0
C      1  0.4325450000000  0.5449430000000  0.5839590000000 1.0
C      1  0.4614270000000  0.5071510000000  0.5993420000000 1.0
C      1  0.5391520000000  0.5823290000000  0.4529090000000 1.0
C      1  0.4440380000000  0.5955890000000  0.3869780000000 1.0
C      1  0.5285470000000  0.5663300000000  0.6020380000000 1.0
C      1  0.4651680000000  0.4643970000000  0.5676020000000 1.0
C      1  0.5794200000000  0.5174170000000  0.4710770000000 1.0
C      1  0.4954050000000  0.5904950000000  0.3981860000000 1.0
C      1  0.5334290000000  0.4359950000000  0.5820690000000 1.0
C      1  0.5555170000000  0.5244150000000  0.4046560000000 1.0
C      1  0.4092480000000  0.5687580000000  0.5494020000000 1.0
C      1  0.5153900000000  0.4376150000000  0.5084320000000 1.0
C      1  0.5304500000000  0.3978310000000  0.4870400000000 1.0
C      1  0.5420670000000  0.3931370000000  0.5140190000000 1.0
C      1  0.5660650000000  0.5213490000000  0.5404300000000 1.0
C      1  0.4561580000000  0.5722580000000  0.5503630000000 1.0
C      1  0.5558980000000  0.4337350000000  0.4163030000000 1.0
C      1  0.4161490000000  0.5816820000000  0.4552330000000 1.0
C      1  0.4838980000000  0.4006860000000  0.4979610000000 1.0
C      1  0.5222710000000  0.5456110000000  0.5195590000000 1.0
C      1  0.3985460000000  0.5259800000000  0.3773490000000 1.0
C      1  0.5426770000000  0.4051180000000  0.5415900000000 1.0
C      1  0.5563790000000  0.5125070000000  0.3579550000000 1.0
C      1  0.4913180000000  0.5853790000000  0.4740280000000 1.0
C      1  0.5646900000000  0.4641290000000  0.4544880000000 1.0
C      1  0.5051120000000  0.5709640000000  0.5844140000000 1.0
C      1  0.4195850000000  0.4852050000000  0.4334170000000 1.0
C      1  0.4102310000000  0.5914780000000  0.5328520000000 1.0
C      1  0.4928760000000  0.5174720000000  0.5615000000000 1.0
C      1  0.4851400000000  0.4207720000000  0.4457030000000 1.0
C      1  0.5569930000000  0.5040290000000  0.3848780000000 1.0
C      1  0.4545650000000  0.3849780000000  0.4391580000000 1.0
C      1  0.4089810000000  0.5571170000000  0.4477350000000 1.0
C      1  0.4339400000000  0.6042190000000  0.5223790000000 1.0
C      1  0.5492690000000  0.5471990000000  0.4175000000000 1.0
C      1  0.4031250000000  0.5191930000000  0.4020890000000 1.0
C      1  0.4509100000000  0.4619020000000  0.6117750000000 1.0
C      1  0.4833660000000  0.5503060000000  0.5916240000000 1.0
C      1  0.6129650000000  0.5333240000000  0.5258340000000 1.0
C      1  0.3990970000000  0.5410970000000  0.5496090000000 1.0
C      1  0.5763120000000  0.5872190000000  0.5426560000000 1.0
C      1  0.4060230000000  0.5292880000000  0.4500840000000 1.0
C      1  0.5715740000000  0.4368970000000  0.4595330000000 1.0
C      1  0.4590140000000  0.5971720000000  0.5360340000000 1.0
C      1  0.5189690000000  0.5027560000000  0.6314210000000 1.0
C      1  0.5419980000000  0.4777860000000  0.4647810000000 1.0
C      1  0.4953980000000  0.5037800000000  0.5030620000000 1.0
C      1  0.5279400000000  0.4636360000000  0.3833130000000 1.0
C      1  0.5628180000000  0.5912240000000  0.5185220000000 1.0
C      1  0.4582990000000  0.4149120000000  0.5764850000000 1.0
C      1  0.5144930000000  0.5753170000000  0.5563590000000 1.0
C      1  0.4936940000000  0.4418040000000  0.5256210000000 1.0
C      1  0.4140590000000  0.4521400000000  0.5760180000000 1.0
C      1  0.5748090000000  0.4976700000000  0.4906930000000 1.0
C      1  0.5604240000000  0.5870510000000  0.4705160000000 1.0
C      1  0.5116640000000  0.5293730000000  0.3474450000000 1.0
C      1  0.4693060000000  0.4489720000000  0.5140590000000 1.0
C      1  0.5364770000000  0.5706820000000  0.4271110000000 1.0
C      1  0.5698180000000  0.5016550000000  0.5844300000000 1.0
C      1  0.4954480000000  0.5280750000000  0.3686240000000 1.0
C      1  0.6050070000000  0.5122980000000  0.4589970000000 1.0
C      1  0.4926720000000  0.4663010000000  0.4153480000000 1.0
C      1  0.4146110000000  0.4172270000000  0.5112640000000 1.0
C      1  0.5033090000000  0.4888230000000  0.4295680000000 1.0
C      1  0.5122660000000  0.4501010000000  0.4030540000000 1.0
C      1  0.5877550000000  0.5646130000000  0.5513350000000 1.0
C      1  0.4607710000000  0.4702330000000  0.4982480000000 1.0
C      1  0.3938340000000  0.5252370000000  0.5264870000000 1.0
C      1  0.5401160000000  0.4506660000000  0.5137050000000 1.0
C      1  0.6159370000000  0.4968770000000  0.5567970000000 1.0
C      1  0.5525540000000  0.4762890000000  0.3900790000000 1.0
C      1  0.4963660000000  0.4305160000000  0.5510630000000 1.0
C      1  0.5352360000000  0.6002110000000  0.5163450000000 1.0
C      1  0.3876320000000  0.4972680000000  0.5262370000000 1.0
C      1  0.4186250000000  0.4443590000000  0.4597030000000 1.0
C      1  0.5083030000000  0.4965240000000  0.5517990000000 1.0
C      1  0.4562080000000  0.5414060000000  0.4848410000000 1.0
C      1  0.4736560000000  0.4363230000000  0.5667570000000 1.0
C      1  0.5607100000000  0.5355410000000  0.4642250000000 1.0
C      1  0.4468940000000  0.4802880000000  0.5519810000000 1.0
C      1  0.4568040000000  0.5014240000000  0.5354280000000 1.0
C      1  0.4697590000000  0.5244490000000  0.5462020000000 1.0
C      1  0.4708780000000  0.3637430000000  0.4365730000000 1.0
C      1  0.4849270000000  0.5972750000000  0.5225140000000 1.0
C      1  0.4702230000000  0.5943210000000  0.3908600000000 1.0
C      1  0.4569780000000  0.5365110000000  0.5957140000000 1.0
C      1  0.5695810000000  0.4106610000000  0.5509950000000 1.0
C      1  0.4924250000000  0.5140370000000  0.4211310000000 1.0
C      1  0.4095390000000  0.5114120000000  0.4280850000000 1.0
C      1  0.5063990000000  0.5313490000000  0.5037280000000 1.0
C      1  0.4582280000000  0.4684420000000  0.4713660000000 1.0
C      1  0.3915160000000  0.5964890000000  0.3851620000000 1.0
C      1  0.5137460000000  0.4161120000000  0.4410750000000 1.0
C      1  0.6223820000000  0.5174410000000  0.4823440000000 1.0
C      1  0.5082350000000  0.4141760000000  0.4943090000000 1.0
C      1  0.6205730000000  0.4954340000000  0.5035850000000 1.0
C      1  0.4965950000000  0.3570090000000  0.4403650000000 1.0
C      1  0.5893010000000  0.5390720000000  0.5393740000000 1.0
C      1  0.4323140000000  0.4083010000000  0.5741540000000 1.0
C      1  0.5485810000000  0.4886840000000  0.4905870000000 1.0
C      1  0.5485170000000  0.5362230000000  0.5584930000000 1.0
C      1  0.5390220000000  0.4805280000000  0.5172920000000 1.0
C      1  0.5672510000000  0.4609340000000  0.4091520000000 1.0
C      1  0.5930440000000  0.4529280000000  0.5061530000000 1.0
C      1  0.4577380000000  0.4116900000000  0.4485380000000 1.0
C      1  0.5000710000000  0.4935310000000  0.4760420000000 1.0
C      1  0.5299940000000  0.6067110000000  0.4893500000000 1.0
C      1  0.4009510000000  0.4886670000000  0.4787690000000 1.0
C      1  0.4723030000000  0.4770800000000  0.5947180000000 1.0
C      1  0.5525290000000  0.4806720000000  0.5690740000000 1.0
C      1  0.4251050000000  0.6009920000000  0.4713120000000 1.0
C      1  0.5169520000000  0.5942310000000  0.4680320000000 1.0
C      1  0.3946210000000  0.5129190000000  0.5912340000000 1.0
C      1  0.4401230000000  0.4738000000000  0.4178340000000 1.0
C      1  0.5572930000000  0.4924910000000  0.5394650000000 1.0
C      1  0.4921770000000  0.5218320000000  0.3942470000000 1.0
C      1  0.4994310000000  0.5258450000000  0.5882090000000 1.0
C      1  0.5179820000000  0.4484480000000  0.6032420000000 1.0
C      1  0.5116610000000  0.5953430000000  0.5345650000000 1.0
C      1  0.5391590000000  0.5394350000000  0.6051620000000 1.0
C      1  0.4326510000000  0.6107550000000  0.4950450000000 1.0
C      1  0.4360850000000  0.4226040000000  0.4653300000000 1.0
C      1  0.5575680000000  0.4509820000000  0.5743800000000 1.0
C      1  0.3917100000000  0.4809760000000  0.5046180000000 1.0
C      1  0.5561150000000  0.5281840000000  0.5852960000000 1.0
C      1  0.4085270000000  0.5303590000000  0.5756140000000 1.0
C      1  0.4063840000000  0.4224040000000  0.5362960000000 1.0
C      1  0.5993410000000  0.5655390000000  0.4921130000000 1.0
C      1  0.5163440000000  0.4854850000000  0.4548480000000 1.0
C      1  0.5214310000000  0.4830650000000  0.5725170000000 1.0
C      1  0.5797190000000  0.4747700000000  0.4318080000000 1.0
C      1  0.4111690000000  0.4718000000000  0.4576150000000 1.0
C      1  0.6153110000000  0.5424270000000  0.4982330000000 1.0
C      1  0.4664010000000  0.5559690000000  0.5062040000000 1.0
C      1  0.5372280000000  0.5230610000000  0.3423900000000 1.0
C      1  0.5669690000000  0.4424850000000  0.5099660000000 1.0
C      1  0.4130030000000  0.4261170000000  0.5635460000000 1.0
C      1  0.5175460000000  0.5209900000000  0.6102460000000 1.0
C      1  0.4613150000000  0.5339240000000  0.4598970000000 1.0
C      1  0.4175810000000  0.5961000000000  0.3854430000000 1.0
C      1  0.5263370000000  0.3942950000000  0.4578420000000 1.0
C      1  0.4646960000000  0.5497720000000  0.5344290000000 1.0
C      1  0.4671080000000  0.4951880000000  0.5098070000000 1.0
C      1  0.5196370000000  0.3682150000000  0.4486230000000 1.0
C      1  0.4018370000000  0.5177620000000  0.4757030000000 1.0
C      1  0.5290630000000  0.5524280000000  0.5460360000000 1.0
C      1  0.4261330000000  0.4546660000000  0.6022030000000 1.0
C      1  0.4333980000000  0.5673370000000  0.5660110000000 1.0
C      1  0.5244440000000  0.4780820000000  0.6407750000000 1.0
C      1  0.5962190000000  0.4805610000000  0.4999650000000 1.0
C      1  0.5179740000000  0.5827840000000  0.4097340000000 1.0
C      1  0.4343040000000  0.4113570000000  0.4919530000000 1.0
C      1  0.6011460000000  0.4931350000000  0.4377630000000 1.0
C      1  0.5771870000000  0.4336120000000  0.5636800000000 1.0
C      1  0.5036640000000  0.4714880000000  0.5929750000000 1.0
C      1  0.4575500000000  0.3978190000000  0.5001310000000 1.0
C      1  0.3990070000000  0.5334700000000  0.4995370000000 1.0
C      1  0.4765030000000  0.5284020000000  0.4389750000000 1.0
END
