TITL C-3866671-3735-484 0.0029102643298297 125000 -649.308234861853 0 0 107 (C1) n - 1
REM
REM in /home/nfs/bkarasulu/CARBON/AIRSS/Generating-Clusters/LCBOP/Only-C1/SD-CG/FIRE-CG
REM
REM
REM
REM
REM
REM ./C.cell (11c1c37f851c82e70ff6c80c92926a4b)
REM AIRSS Version 0.9.1 bugfix July 2018 build 013d7b7c2542+ Fri, 06 Jul 2018 19:26:36 +0100
REM compiler GCC version 9.2.1 20190827 (Red Hat 9.2.1-1)
REM options -cpp -mtune=generic -march=x86-64 -g -O0 -fpre-include=/usr/include/finclude/math-vector-fortran.h
REM seed -1304059375 -1532991225 1609227629 666888829 948440512 -569148366 932580360 -1400361167 -1592870965 -949925100 608276630 1955958312 -2098260038 122496377 -253404317 -1265608501 -1151944131 437428340 -313436489 -474492320 180725497 -1885372255 67150861 -1402444700 1124563545 -1606235670 891970964 1264300727 -1138405188 1934264588 1808778910 -1763859480 -124515293
REM
CELL 1.54180   50.00000   50.00000   50.00000   90.00000   90.00000   90.00000
LATT -1
SFAC C  
C      1  0.5542220000000  0.5139550000000  0.5203530000000 1.0
C      1  0.5184370000000  0.3984880000000  0.4582560000000 1.0
C      1  0.4837160000000  0.4432800000000  0.5939060000000 1.0
C      1  0.4114030000000  0.5096460000000  0.5717510000000 1.0
C      1  0.5840270000000  0.4818860000000  0.5372950000000 1.0
C      1  0.4445010000000  0.5527250000000  0.5641110000000 1.0
C      1  0.4385020000000  0.5462610000000  0.4741110000000 1.0
C      1  0.5223020000000  0.4190000000000  0.5138530000000 1.0
C      1  0.4200030000000  0.4519370000000  0.4705790000000 1.0
C      1  0.4470340000000  0.4426780000000  0.5435730000000 1.0
C      1  0.5273240000000  0.4425460000000  0.4982500000000 1.0
C      1  0.4615950000000  0.4674460000000  0.5057550000000 1.0
C      1  0.4487620000000  0.4858970000000  0.4181210000000 1.0
C      1  0.5789020000000  0.4386120000000  0.4740520000000 1.0
C      1  0.4539690000000  0.5670930000000  0.5406550000000 1.0
C      1  0.5033530000000  0.4771930000000  0.5350600000000 1.0
C      1  0.5242870000000  0.5761030000000  0.4416610000000 1.0
C      1  0.5346250000000  0.4737840000000  0.5448440000000 1.0
C      1  0.4161360000000  0.5408420000000  0.4579680000000 1.0
C      1  0.4965760000000  0.4946250000000  0.4650160000000 1.0
C      1  0.5285220000000  0.4169590000000  0.5411900000000 1.0
C      1  0.4229600000000  0.5115020000000  0.5149290000000 1.0
C      1  0.6114980000000  0.5019540000000  0.5736650000000 1.0
C      1  0.3858230000000  0.5086410000000  0.5816890000000 1.0
C      1  0.3982360000000  0.4688920000000  0.4639880000000 1.0
C      1  0.5140860000000  0.5519040000000  0.4862580000000 1.0
C      1  0.5460440000000  0.5109130000000  0.5737180000000 1.0
C      1  0.4776210000000  0.4077130000000  0.5257910000000 1.0
C      1  0.5007010000000  0.4612190000000  0.6057670000000 1.0
C      1  0.5596970000000  0.4639030000000  0.4365840000000 1.0
C      1  0.4647440000000  0.5686550000000  0.5130920000000 1.0
C      1  0.5128450000000  0.5088390000000  0.4265480000000 1.0
C      1  0.4620610000000  0.5322640000000  0.4646070000000 1.0
C      1  0.5325990000000  0.6428700000000  0.4732970000000 1.0
C      1  0.5477300000000  0.4615630000000  0.5026560000000 1.0
C      1  0.4467590000000  0.5315120000000  0.4113630000000 1.0
C      1  0.4617440000000  0.5476040000000  0.5861860000000 1.0
C      1  0.4023290000000  0.4968200000000  0.4669890000000 1.0
C      1  0.4783260000000  0.5266820000000  0.5912240000000 1.0
C      1  0.4745250000000  0.5252740000000  0.4042860000000 1.0
C      1  0.5783680000000  0.4373790000000  0.5255730000000 1.0
C      1  0.5139700000000  0.5566310000000  0.4233260000000 1.0
C      1  0.5335010000000  0.6462270000000  0.4466150000000 1.0
C      1  0.4443400000000  0.4636170000000  0.4611140000000 1.0
C      1  0.5463380000000  0.3983460000000  0.4635190000000 1.0
C      1  0.4999610000000  0.3949010000000  0.4796670000000 1.0
C      1  0.4893940000000  0.4656410000000  0.5116960000000 1.0
C      1  0.5435930000000  0.4493920000000  0.4207270000000 1.0
C      1  0.4889260000000  0.4301640000000  0.5690300000000 1.0
C      1  0.5124290000000  0.4108810000000  0.4335590000000 1.0
C      1  0.5172420000000  0.4313690000000  0.5624650000000 1.0
C      1  0.4423580000000  0.4492100000000  0.5161320000000 1.0
C      1  0.6114830000000  0.5287160000000  0.5736670000000 1.0
C      1  0.6009290000000  0.4815800000000  0.5596560000000 1.0
C      1  0.5014130000000  0.5329180000000  0.4142170000000 1.0
C      1  0.5326020000000  0.6001190000000  0.4293150000000 1.0
C      1  0.5755050000000  0.5766700000000  0.5252950000000 1.0
C      1  0.4983870000000  0.4662760000000  0.4631580000000 1.0
C      1  0.4756490000000  0.5178930000000  0.5298970000000 1.0
C      1  0.5253340000000  0.4297670000000  0.4192770000000 1.0
C      1  0.5396470000000  0.5930210000000  0.4876640000000 1.0
C      1  0.4709440000000  0.5768060000000  0.4395000000000 1.0
C      1  0.4358600000000  0.4611960000000  0.5620380000000 1.0
C      1  0.5893390000000  0.4348340000000  0.5004840000000 1.0
C      1  0.4696490000000  0.4247880000000  0.5479960000000 1.0
C      1  0.5039480000000  0.4550130000000  0.4888280000000 1.0
C      1  0.5594100000000  0.5833350000000  0.5051920000000 1.0
C      1  0.4314470000000  0.5090980000000  0.4243880000000 1.0
C      1  0.4554770000000  0.4808850000000  0.4809640000000 1.0
C      1  0.4068350000000  0.5053870000000  0.4942090000000 1.0
C      1  0.5164810000000  0.5116790000000  0.4551900000000 1.0
C      1  0.5424280000000  0.5039890000000  0.5459520000000 1.0
C      1  0.4634890000000  0.6004390000000  0.4313900000000 1.0
C      1  0.5249920000000  0.5744920000000  0.4710930000000 1.0
C      1  0.4869900000000  0.4629560000000  0.4366210000000 1.0
C      1  0.5548820000000  0.4816230000000  0.4833730000000 1.0
C      1  0.4954740000000  0.5418150000000  0.5325060000000 1.0
C      1  0.5342940000000  0.6267560000000  0.4280990000000 1.0
C      1  0.4448110000000  0.5659820000000  0.4930220000000 1.0
C      1  0.4716370000000  0.5061200000000  0.4757710000000 1.0
C      1  0.5817560000000  0.5068230000000  0.5238500000000 1.0
C      1  0.4734650000000  0.4954270000000  0.4044830000000 1.0
C      1  0.5675540000000  0.4147860000000  0.4634190000000 1.0
C      1  0.5607160000000  0.4620480000000  0.5298740000000 1.0
C      1  0.4890520000000  0.4984570000000  0.5495670000000 1.0
C      1  0.5380010000000  0.4954980000000  0.5949080000000 1.0
C      1  0.5276430000000  0.5258990000000  0.4778630000000 1.0
C      1  0.5338850000000  0.6204810000000  0.4879240000000 1.0
C      1  0.4455790000000  0.5161940000000  0.5290260000000 1.0
C      1  0.5084250000000  0.5392790000000  0.5573240000000 1.0
C      1  0.4229100000000  0.4408330000000  0.4969600000000 1.0
C      1  0.4132650000000  0.5145240000000  0.4466660000000 1.0
C      1  0.4571870000000  0.4647680000000  0.4361020000000 1.0
C      1  0.4930860000000  0.5581930000000  0.5086880000000 1.0
C      1  0.6031400000000  0.5515050000000  0.5625860000000 1.0
C      1  0.4963470000000  0.5169680000000  0.5718680000000 1.0
C      1  0.5902750000000  0.5671540000000  0.5452920000000 1.0
C      1  0.4813830000000  0.5117700000000  0.5023870000000 1.0
C      1  0.5300830000000  0.4562090000000  0.5691850000000 1.0
C      1  0.4258010000000  0.4851710000000  0.5691250000000 1.0
C      1  0.4220470000000  0.5351380000000  0.5645920000000 1.0
C      1  0.5461140000000  0.5090430000000  0.4928310000000 1.0
C      1  0.5247360000000  0.4703860000000  0.5936170000000 1.0
C      1  0.4748980000000  0.5521540000000  0.4491650000000 1.0
C      1  0.4971930000000  0.4843850000000  0.4178390000000 1.0
C      1  0.5687490000000  0.4647340000000  0.4633910000000 1.0
C      1  0.4984300000000  0.4045820000000  0.5062860000000 1.0
END
