TITL C-3866672-3872-759 0.278802886961213 125000 -174.7449091133 0 0 30 (C1) n - 1
REM
REM in /home/nfs/bkarasulu/CARBON/AIRSS/Generating-Clusters/LCBOP/Only-C1/SD-CG/FIRE-CG
REM
REM
REM
REM
REM
REM ./C.cell (11c1c37f851c82e70ff6c80c92926a4b)
REM AIRSS Version 0.9.1 bugfix July 2018 build 013d7b7c2542+ Fri, 06 Jul 2018 19:26:36 +0100
REM compiler GCC version 9.2.1 20190827 (Red Hat 9.2.1-1)
REM options -cpp -mtune=generic -march=x86-64 -g -O0 -fpre-include=/usr/include/finclude/math-vector-fortran.h
REM seed -1018664935 -817470163 1752591022 -1166280612 -565364300 -249167380 818289846 -324658591 2137957635 -1730053123 -442033196 198093208 764266878 -1055169610 -472259242 407449978 1691461659 -111645817 1722861480 -1841276697 -391885303 -1769697428 447457793 1792665521 -1706155995 1110281051 -1392002927 -1580614112 -1023116056 1247553976 -815510046 1807423566 -107507764
REM
CELL 1.54180   50.00000   50.00000   50.00000   90.00000   90.00000   90.00000
LATT -1
SFAC C  
C      1  0.5187360000000  0.4343850000000  0.4777000000000 1.0
C      1  0.4999620000000  0.4277770000000  0.4601580000000 1.0
C      1  0.5446630000000  0.5385850000000  0.5055340000000 1.0
C      1  0.4344210000000  0.4570660000000  0.4364540000000 1.0
C      1  0.3904280000000  0.5157050000000  0.4505270000000 1.0
C      1  0.6100710000000  0.5855950000000  0.5131680000000 1.0
C      1  0.5886260000000  0.5702260000000  0.5106200000000 1.0
C      1  0.4137180000000  0.5024130000000  0.4557690000000 1.0
C      1  0.5671970000000  0.5548660000000  0.5080770000000 1.0
C      1  0.5002490000000  0.5479100000000  0.4763710000000 1.0
C      1  0.4753510000000  0.5428850000000  0.4687240000000 1.0
C      1  0.5235200000000  0.5463190000000  0.4889700000000 1.0
C      1  0.4433600000000  0.4928080000000  0.5235160000000 1.0
C      1  0.5318140000000  0.4480280000000  0.4963110000000 1.0
C      1  0.4775370000000  0.4295550000000  0.4460860000000 1.0
C      1  0.4516370000000  0.5310300000000  0.4677990000000 1.0
C      1  0.4608580000000  0.4857120000000  0.5421380000000 1.0
C      1  0.5383090000000  0.4666650000000  0.5140070000000 1.0
C      1  0.5078530000000  0.4715140000000  0.5650370000000 1.0
C      1  0.5431140000000  0.5144650000000  0.5195520000000 1.0
C      1  0.4321610000000  0.5122930000000  0.4749800000000 1.0
C      1  0.4202080000000  0.4786310000000  0.4425080000000 1.0
C      1  0.4545340000000  0.4398020000000  0.4377140000000 1.0
C      1  0.5105310000000  0.4490490000000  0.5804400000000 1.0
C      1  0.4328250000000  0.5016190000000  0.5008280000000 1.0
C      1  0.4826650000000  0.4794800000000  0.5558510000000 1.0
C      1  0.6311630000000  0.6007110000000  0.5156730000000 1.0
C      1  0.5459650000000  0.4988390000000  0.5772110000000 1.0
C      1  0.5377350000000  0.4892910000000  0.5304050000000 1.0
C      1  0.5307900000000  0.4867770000000  0.5578710000000 1.0
END
