TITL C-3866669-3764-123 0.429839415465964 125000 -190.986723770567 0 0 35 (C1) n - 1
REM
REM in /home/nfs/bkarasulu/CARBON/AIRSS/Generating-Clusters/LCBOP/Only-C1/SD-CG/HFTN-CG/FIRE-CG
REM
REM
REM
REM
REM
REM ./C.cell (11c1c37f851c82e70ff6c80c92926a4b)
REM AIRSS Version 0.9.1 bugfix July 2018 build 013d7b7c2542+ Fri, 06 Jul 2018 19:26:36 +0100
REM compiler GCC version 9.2.1 20190827 (Red Hat 9.2.1-1)
REM options -cpp -mtune=generic -march=x86-64 -g -O0 -fpre-include=/usr/include/finclude/math-vector-fortran.h
REM seed 418642167 -1290527504 -157775567 2139890700 -615861151 -383411993 -368930786 52931596 1025071986 -1488170514 1849743597 -1678059463 -1278521494 1174386496 493813231 338847375 -1634476978 -282494914 -94784095 -460028239 1153299363 656210387 -1406423696 -1847557014 1650618055 -490032146 1798629496 1549985543 -1698543114 -1428968983 -908864280 387211000 -1074077030
REM
CELL 1.54180   50.00000   50.00000   50.00000   90.00000   90.00000   90.00000
LATT -1
SFAC C  
C      1  0.4824260000000  0.5160210000000  0.5126970000000 1.0
C      1  0.4951350000000  0.5492280000000  0.4547710000000 1.0
C      1  0.4369490000000  0.4550240000000  0.4674960000000 1.0
C      1  0.4685500000000  0.5346220000000  0.5272530000000 1.0
C      1  0.5286810000000  0.5089940000000  0.5273030000000 1.0
C      1  0.3820080000000  0.5018840000000  0.4708380000000 1.0
C      1  0.4254780000000  0.4738300000000  0.5484380000000 1.0
C      1  0.5277670000000  0.5747790000000  0.4761250000000 1.0
C      1  0.5591870000000  0.5247690000000  0.4937630000000 1.0
C      1  0.4960220000000  0.5227920000000  0.4663290000000 1.0
C      1  0.6340680000000  0.5165730000000  0.5926310000000 1.0
C      1  0.6533330000000  0.5164930000000  0.6101950000000 1.0
C      1  0.4288940000000  0.4347930000000  0.5113530000000 1.0
C      1  0.4999270000000  0.5711620000000  0.4740000000000 1.0
C      1  0.4953670000000  0.4753790000000  0.5354780000000 1.0
C      1  0.4771500000000  0.5128750000000  0.4848270000000 1.0
C      1  0.4463590000000  0.4395720000000  0.4894300000000 1.0
C      1  0.5445220000000  0.5290970000000  0.4703760000000 1.0
C      1  0.5948990000000  0.5167330000000  0.5569190000000 1.0
C      1  0.5263980000000  0.4839250000000  0.4592810000000 1.0
C      1  0.5547140000000  0.5168560000000  0.5203480000000 1.0
C      1  0.5753240000000  0.5168130000000  0.5390740000000 1.0
C      1  0.5407430000000  0.5550320000000  0.4583190000000 1.0
C      1  0.5193950000000  0.5526510000000  0.4371650000000 1.0
C      1  0.5290720000000  0.4583120000000  0.4553070000000 1.0
C      1  0.4065140000000  0.4930210000000  0.4706830000000 1.0
C      1  0.4718920000000  0.4297170000000  0.4895810000000 1.0
C      1  0.5224620000000  0.5108180000000  0.4651960000000 1.0
C      1  0.4541670000000  0.4997360000000  0.4761670000000 1.0
C      1  0.6144810000000  0.5166530000000  0.5747730000000 1.0
C      1  0.4322670000000  0.4433360000000  0.4432000000000 1.0
C      1  0.5022310000000  0.4998710000000  0.5253460000000 1.0
C      1  0.4269180000000  0.4540460000000  0.5315350000000 1.0
C      1  0.4325060000000  0.4828400000000  0.4712920000000 1.0
C      1  0.4141940000000  0.4117510000000  0.5125110000000 1.0
END
