TITL C-3866669-3764-491 -0.000695238611754595 125000 -1046.41750517142 0 0 168 (C1) n - 1
REM
REM in /home/nfs/bkarasulu/CARBON/AIRSS/Generating-Clusters/LCBOP/Only-C1/SD-CG/FIRE-CG
REM
REM
REM
REM
REM
REM ./C.cell (11c1c37f851c82e70ff6c80c92926a4b)
REM AIRSS Version 0.9.1 bugfix July 2018 build 013d7b7c2542+ Fri, 06 Jul 2018 19:26:36 +0100
REM compiler GCC version 9.2.1 20190827 (Red Hat 9.2.1-1)
REM options -cpp -mtune=generic -march=x86-64 -g -O0 -fpre-include=/usr/include/finclude/math-vector-fortran.h
REM seed 1579327485 -1136344079 -158096570 1720096526 488164594 889590504 2051419593 -284286520 219863295 818016737 -40294596 763484930 -1391999269 1478254122 13345497 725079202 -416920696 -1789672545 -103589784 844750296 1968412074 -725446355 266038249 -1892903828 1026243400 -1677261306 -1268881527 1531011309 2086289334 215206510 1570918402 1399336114 299969790
REM
CELL 1.54180   50.00000   50.00000   50.00000   90.00000   90.00000   90.00000
LATT -1
SFAC C  
C      1  0.4082790000000  0.4094070000000  0.4981650000000 1.0
C      1  0.5082820000000  0.5430620000000  0.3775210000000 1.0
C      1  0.5745320000000  0.4769170000000  0.4771860000000 1.0
C      1  0.4471000000000  0.5229390000000  0.5140460000000 1.0
C      1  0.4091700000000  0.3973790000000  0.5796140000000 1.0
C      1  0.4320250000000  0.5667020000000  0.6234270000000 1.0
C      1  0.3871270000000  0.4780300000000  0.4577240000000 1.0
C      1  0.4707450000000  0.5302850000000  0.6145380000000 1.0
C      1  0.5428480000000  0.4419930000000  0.5896090000000 1.0
C      1  0.4544080000000  0.3642840000000  0.5609800000000 1.0
C      1  0.4920370000000  0.4231010000000  0.4004990000000 1.0
C      1  0.5796270000000  0.4957160000000  0.3942080000000 1.0
C      1  0.4963900000000  0.5679490000000  0.4932700000000 1.0
C      1  0.5438790000000  0.5414790000000  0.4183770000000 1.0
C      1  0.3852790000000  0.4619300000000  0.5458050000000 1.0
C      1  0.5520660000000  0.4884980000000  0.4623680000000 1.0
C      1  0.4638080000000  0.5514560000000  0.4269240000000 1.0
C      1  0.5650670000000  0.4093400000000  0.5251330000000 1.0
C      1  0.6185790000000  0.5250230000000  0.5623470000000 1.0
C      1  0.5033560000000  0.4701640000000  0.3928550000000 1.0
C      1  0.5245700000000  0.5290290000000  0.4340940000000 1.0
C      1  0.6077900000000  0.5236100000000  0.4425520000000 1.0
C      1  0.6349820000000  0.4491390000000  0.4960960000000 1.0
C      1  0.4796390000000  0.5071240000000  0.4834590000000 1.0
C      1  0.5037710000000  0.5154370000000  0.3742000000000 1.0
C      1  0.5840850000000  0.4035790000000  0.5065010000000 1.0
C      1  0.6083600000000  0.4493110000000  0.4558080000000 1.0
C      1  0.4085250000000  0.3861470000000  0.5110650000000 1.0
C      1  0.5605670000000  0.4303830000000  0.5701190000000 1.0
C      1  0.5252200000000  0.5317440000000  0.4626300000000 1.0
C      1  0.5584710000000  0.4349170000000  0.5400020000000 1.0
C      1  0.3892290000000  0.5137520000000  0.4887120000000 1.0
C      1  0.5753750000000  0.4390820000000  0.4192560000000 1.0
C      1  0.4865360000000  0.5676280000000  0.4187220000000 1.0
C      1  0.5384460000000  0.4698800000000  0.5852650000000 1.0
C      1  0.5157040000000  0.5852800000000  0.5602510000000 1.0
C      1  0.3808950000000  0.4712470000000  0.5192300000000 1.0
C      1  0.5319870000000  0.4918050000000  0.6019900000000 1.0
C      1  0.5938170000000  0.5113770000000  0.4993670000000 1.0
C      1  0.4744140000000  0.5993930000000  0.5810630000000 1.0
C      1  0.5319080000000  0.5185250000000  0.5931020000000 1.0
C      1  0.4319880000000  0.4628460000000  0.3951580000000 1.0
C      1  0.5547120000000  0.4802680000000  0.4341840000000 1.0
C      1  0.5334380000000  0.4368460000000  0.4420140000000 1.0
C      1  0.4559700000000  0.5102930000000  0.3722970000000 1.0
C      1  0.5328900000000  0.4531340000000  0.5395660000000 1.0
C      1  0.5271440000000  0.5054210000000  0.5026250000000 1.0
C      1  0.5126310000000  0.6181420000000  0.4689120000000 1.0
C      1  0.4433310000000  0.5786600000000  0.4930680000000 1.0
C      1  0.5003800000000  0.3512120000000  0.3962050000000 1.0
C      1  0.3990190000000  0.3840220000000  0.5584390000000 1.0
C      1  0.6162890000000  0.4990730000000  0.5681760000000 1.0
C      1  0.5987370000000  0.4968990000000  0.4400850000000 1.0
C      1  0.4363010000000  0.3594780000000  0.5414890000000 1.0
C      1  0.4421440000000  0.4993700000000  0.5910650000000 1.0
C      1  0.5008970000000  0.6057610000000  0.5732760000000 1.0
C      1  0.4126730000000  0.4796390000000  0.4026760000000 1.0
C      1  0.4443620000000  0.4310730000000  0.5849470000000 1.0
C      1  0.4354940000000  0.5874310000000  0.4452110000000 1.0
C      1  0.4514190000000  0.5147320000000  0.3984350000000 1.0
C      1  0.4595740000000  0.5838340000000  0.5631670000000 1.0
C      1  0.5491340000000  0.5963790000000  0.4457670000000 1.0
C      1  0.5743250000000  0.5881300000000  0.4505260000000 1.0
C      1  0.4255980000000  0.5441080000000  0.6077390000000 1.0
C      1  0.4890840000000  0.4715230000000  0.5447890000000 1.0
C      1  0.5773250000000  0.4925460000000  0.4211800000000 1.0
C      1  0.4937400000000  0.5430060000000  0.6109010000000 1.0
C      1  0.5433790000000  0.5635550000000  0.4951430000000 1.0
C      1  0.4168870000000  0.5433420000000  0.4370630000000 1.0
C      1  0.4382120000000  0.5617290000000  0.4344220000000 1.0
C      1  0.4846030000000  0.4036940000000  0.4437000000000 1.0
C      1  0.3797130000000  0.5174710000000  0.5351690000000 1.0
C      1  0.4222940000000  0.5719890000000  0.5105790000000 1.0
C      1  0.5259170000000  0.5633180000000  0.5756050000000 1.0
C      1  0.4720510000000  0.4392830000000  0.5831410000000 1.0
C      1  0.5450900000000  0.5020020000000  0.5487300000000 1.0
C      1  0.4038030000000  0.5010140000000  0.4160480000000 1.0
C      1  0.5097790000000  0.4975150000000  0.3960500000000 1.0
C      1  0.5826900000000  0.5435550000000  0.5318010000000 1.0
C      1  0.6559780000000  0.4945620000000  0.4800140000000 1.0
C      1  0.4828630000000  0.5051990000000  0.4352180000000 1.0
C      1  0.6031440000000  0.4598750000000  0.5361580000000 1.0
C      1  0.4123900000000  0.3735390000000  0.5356760000000 1.0
C      1  0.5332550000000  0.6783120000000  0.5856110000000 1.0
C      1  0.4272220000000  0.4532110000000  0.5773850000000 1.0
C      1  0.5198440000000  0.5541450000000  0.4811030000000 1.0
C      1  0.5683640000000  0.4581110000000  0.4975430000000 1.0
C      1  0.6067780000000  0.5426330000000  0.5460380000000 1.0
C      1  0.4942680000000  0.4276640000000  0.5952660000000 1.0
C      1  0.5226650000000  0.6547950000000  0.5818160000000 1.0
C      1  0.4845110000000  0.4492570000000  0.3940090000000 1.0
C      1  0.4569950000000  0.4545010000000  0.3913600000000 1.0
C      1  0.4048930000000  0.5467480000000  0.5892520000000 1.0
C      1  0.5207130000000  0.4277050000000  0.5993590000000 1.0
C      1  0.5386770000000  0.4759750000000  0.5571100000000 1.0
C      1  0.4637960000000  0.5227600000000  0.4225610000000 1.0
C      1  0.4546190000000  0.3832130000000  0.5802700000000 1.0
C      1  0.4684430000000  0.5655450000000  0.4918250000000 1.0
C      1  0.4976780000000  0.5619670000000  0.3932970000000 1.0
C      1  0.3908880000000  0.5433700000000  0.5389120000000 1.0
C      1  0.6469300000000  0.5185680000000  0.4726820000000 1.0
C      1  0.5776970000000  0.4541820000000  0.5248240000000 1.0
C      1  0.5453240000000  0.5730120000000  0.5219230000000 1.0
C      1  0.5487590000000  0.5090170000000  0.5215430000000 1.0
C      1  0.6027590000000  0.4128020000000  0.4892620000000 1.0
C      1  0.5951630000000  0.5692850000000  0.4502280000000 1.0
C      1  0.4575380000000  0.5064290000000  0.5341030000000 1.0
C      1  0.4981680000000  0.5040840000000  0.5065330000000 1.0
C      1  0.4417690000000  0.4684350000000  0.4772520000000 1.0
C      1  0.6525250000000  0.4689560000000  0.4867370000000 1.0
C      1  0.5614790000000  0.5596360000000  0.5404090000000 1.0
C      1  0.4404480000000  0.4858130000000  0.5430620000000 1.0
C      1  0.4325620000000  0.4958560000000  0.4753240000000 1.0
C      1  0.4800060000000  0.5091260000000  0.3599410000000 1.0
C      1  0.5481870000000  0.5499480000000  0.5629250000000 1.0
C      1  0.4045000000000  0.5020790000000  0.4651690000000 1.0
C      1  0.4064410000000  0.5173450000000  0.4390790000000 1.0
C      1  0.4515160000000  0.5142640000000  0.4877210000000 1.0
C      1  0.6270020000000  0.5344690000000  0.4616550000000 1.0
C      1  0.5350530000000  0.5075860000000  0.4751930000000 1.0
C      1  0.5012320000000  0.5860990000000  0.4344190000000 1.0
C      1  0.4846420000000  0.4969050000000  0.5312120000000 1.0
C      1  0.5212050000000  0.6011430000000  0.4479420000000 1.0
C      1  0.4908120000000  0.4002020000000  0.4166040000000 1.0
C      1  0.3817760000000  0.4994960000000  0.5131980000000 1.0
C      1  0.4372290000000  0.5949920000000  0.4709000000000 1.0
C      1  0.4012360000000  0.4541620000000  0.5660780000000 1.0
C      1  0.3900330000000  0.5420430000000  0.4915740000000 1.0
C      1  0.5055840000000  0.6151610000000  0.4947400000000 1.0
C      1  0.4078510000000  0.4371780000000  0.4973790000000 1.0
C      1  0.4528740000000  0.5611710000000  0.5523400000000 1.0
C      1  0.6176440000000  0.4346190000000  0.4784760000000 1.0
C      1  0.4690840000000  0.4650110000000  0.4681880000000 1.0
C      1  0.5170320000000  0.5436840000000  0.5959180000000 1.0
C      1  0.4810910000000  0.4904810000000  0.4597750000000 1.0
C      1  0.4449500000000  0.4774920000000  0.5712800000000 1.0
C      1  0.5119230000000  0.6308970000000  0.5778980000000 1.0
C      1  0.3835420000000  0.4522620000000  0.4977970000000 1.0
C      1  0.5699820000000  0.5454760000000  0.4156800000000 1.0
C      1  0.4350550000000  0.4653570000000  0.5244890000000 1.0
C      1  0.4469070000000  0.5889470000000  0.6228490000000 1.0
C      1  0.5984830000000  0.4761020000000  0.4606330000000 1.0
C      1  0.4361310000000  0.4041980000000  0.5852430000000 1.0
C      1  0.3953580000000  0.5516730000000  0.5649900000000 1.0
C      1  0.3998330000000  0.5556410000000  0.5145880000000 1.0
C      1  0.6259750000000  0.4508510000000  0.5225780000000 1.0
C      1  0.4834390000000  0.4429300000000  0.4795910000000 1.0
C      1  0.5060540000000  0.4531830000000  0.5300630000000 1.0
C      1  0.4956890000000  0.3748790000000  0.4060590000000 1.0
C      1  0.5083320000000  0.5084910000000  0.4226220000000 1.0
C      1  0.5745630000000  0.5212090000000  0.5158560000000 1.0
C      1  0.4307720000000  0.4538520000000  0.4992100000000 1.0
C      1  0.5916310000000  0.5458610000000  0.4329950000000 1.0
C      1  0.4962710000000  0.4443550000000  0.5049680000000 1.0
C      1  0.4639240000000  0.6021810000000  0.6069400000000 1.0
C      1  0.5990830000000  0.4370990000000  0.4320910000000 1.0
C      1  0.3742440000000  0.4595800000000  0.4723410000000 1.0
C      1  0.5467270000000  0.5222120000000  0.5684470000000 1.0
C      1  0.4824510000000  0.4186720000000  0.4655400000000 1.0
C      1  0.4451700000000  0.5233840000000  0.6053800000000 1.0
C      1  0.5041280000000  0.5912300000000  0.5096410000000 1.0
C      1  0.5213530000000  0.5857810000000  0.5317280000000 1.0
C      1  0.6070650000000  0.4759850000000  0.5586260000000 1.0
C      1  0.5490990000000  0.4391640000000  0.4886630000000 1.0
C      1  0.6182530000000  0.5618670000000  0.4661920000000 1.0
C      1  0.5515390000000  0.4523930000000  0.4273790000000 1.0
C      1  0.4734690000000  0.4644040000000  0.5683660000000 1.0
C      1  0.5355490000000  0.4297270000000  0.4677590000000 1.0
END
