TITL C-3866669-3764-200 6.42922105073031 125000 -1213.40366976642 0 0 195 (C1) n - 1
REM
REM in /home/nfs/bkarasulu/CARBON/AIRSS/Generating-Clusters/LCBOP/Only-C1/SD-CG/HFTN-CG/FIRE-CG
REM
REM
REM
REM
REM
REM ./C.cell (11c1c37f851c82e70ff6c80c92926a4b)
REM AIRSS Version 0.9.1 bugfix July 2018 build 013d7b7c2542+ Fri, 06 Jul 2018 19:26:36 +0100
REM compiler GCC version 9.2.1 20190827 (Red Hat 9.2.1-1)
REM options -cpp -mtune=generic -march=x86-64 -g -O0 -fpre-include=/usr/include/finclude/math-vector-fortran.h
REM seed 1337771153 1044977342 1972846216 -1847414194 282041603 1661902460 -1089276827 1680870942 442604447 1213082653 -137245984 633067217 2002939426 374929908 -1229554468 -883513835 -227529303 1724113158 -627645117 -1888590686 -795718922 1468498943 -1029205012 1712380669 -575607258 -345151952 -163397307 1422892493 1269389003 -2141329588 1137461183 -761660679 -1400375350
REM
CELL 1.54180   50.00000   50.00000   50.00000   90.00000   90.00000   90.00000
LATT -1
SFAC C  
C      1  0.6223470000000  0.5884610000000  0.4899050000000 1.0
C      1  0.6166490000000  0.4907240000000  0.4641490000000 1.0
C      1  0.4020000000000  0.4342460000000  0.5115690000000 1.0
C      1  0.5669270000000  0.4420740000000  0.4188120000000 1.0
C      1  0.3994700000000  0.5213500000000  0.5309890000000 1.0
C      1  0.4654240000000  0.4888240000000  0.5022090000000 1.0
C      1  0.5741620000000  0.5683110000000  0.4511650000000 1.0
C      1  0.6184570000000  0.5117590000000  0.4843060000000 1.0
C      1  0.5683080000000  0.4815350000000  0.6137620000000 1.0
C      1  0.4316610000000  0.6074410000000  0.4862930000000 1.0
C      1  0.5602710000000  0.4016940000000  0.4698460000000 1.0
C      1  0.4100040000000  0.5255570000000  0.3943420000000 1.0
C      1  0.4624910000000  0.5584010000000  0.5366020000000 1.0
C      1  0.4901460000000  0.4669010000000  0.4660370000000 1.0
C      1  0.5620800000000  0.4218430000000  0.5695260000000 1.0
C      1  0.5083180000000  0.6156420000000  0.5289830000000 1.0
C      1  0.4556840000000  0.5730400000000  0.4633240000000 1.0
C      1  0.4573000000000  0.5328460000000  0.4057820000000 1.0
C      1  0.4297950000000  0.5185620000000  0.5911120000000 1.0
C      1  0.4474030000000  0.4388340000000  0.6003200000000 1.0
C      1  0.5625520000000  0.3964480000000  0.5789650000000 1.0
C      1  0.5863300000000  0.4279200000000  0.4343320000000 1.0
C      1  0.5271200000000  0.5244330000000  0.6021220000000 1.0
C      1  0.5486140000000  0.4965420000000  0.3413860000000 1.0
C      1  0.4389610000000  0.5957360000000  0.4628470000000 1.0
C      1  0.6131310000000  0.5396650000000  0.4755580000000 1.0
C      1  0.4853020000000  0.5197930000000  0.5718310000000 1.0
C      1  0.4410870000000  0.5182020000000  0.6176810000000 1.0
C      1  0.4616090000000  0.6165000000000  0.5244140000000 1.0
C      1  0.5087050000000  0.5889930000000  0.5712380000000 1.0
C      1  0.5564120000000  0.5985140000000  0.6077880000000 1.0
C      1  0.3746400000000  0.5474960000000  0.5624300000000 1.0
C      1  0.5146240000000  0.5164730000000  0.5772760000000 1.0
C      1  0.5479710000000  0.4708270000000  0.6275790000000 1.0
C      1  0.5929480000000  0.4440410000000  0.4791950000000 1.0
C      1  0.4867590000000  0.4430250000000  0.4510110000000 1.0
C      1  0.4139690000000  0.4507630000000  0.4287110000000 1.0
C      1  0.4094250000000  0.4705630000000  0.5434790000000 1.0
C      1  0.4537700000000  0.5125000000000  0.5400520000000 1.0
C      1  0.5275310000000  0.5044260000000  0.4906170000000 1.0
C      1  0.5391280000000  0.4021370000000  0.4910440000000 1.0
C      1  0.5566340000000  0.4464100000000  0.5139300000000 1.0
C      1  0.5544080000000  0.5184050000000  0.5454830000000 1.0
C      1  0.3835230000000  0.4893540000000  0.4186140000000 1.0
C      1  0.5209830000000  0.5889090000000  0.4929650000000 1.0
C      1  0.5559150000000  0.5263960000000  0.6037870000000 1.0
C      1  0.4738660000000  0.3987740000000  0.4609170000000 1.0
C      1  0.6134040000000  0.4626530000000  0.4701120000000 1.0
C      1  0.5745890000000  0.6077380000000  0.4864440000000 1.0
C      1  0.5997080000000  0.5444220000000  0.5437840000000 1.0
C      1  0.4970310000000  0.4238340000000  0.5326010000000 1.0
C      1  0.5825510000000  0.4219020000000  0.4629330000000 1.0
C      1  0.5121030000000  0.5630880000000  0.4920490000000 1.0
C      1  0.4823620000000  0.3859840000000  0.4860430000000 1.0
C      1  0.4435800000000  0.5997070000000  0.5107990000000 1.0
C      1  0.5834700000000  0.4404700000000  0.5685550000000 1.0
C      1  0.5433420000000  0.5350420000000  0.4335810000000 1.0
C      1  0.5576330000000  0.4875340000000  0.4290240000000 1.0
C      1  0.4864390000000  0.4484190000000  0.5239790000000 1.0
C      1  0.4560480000000  0.5595890000000  0.4884390000000 1.0
C      1  0.4508320000000  0.5719130000000  0.5135490000000 1.0
C      1  0.4767930000000  0.4668760000000  0.5424480000000 1.0
C      1  0.4689140000000  0.4954040000000  0.5777360000000 1.0
C      1  0.4675320000000  0.4464400000000  0.4062800000000 1.0
C      1  0.5524110000000  0.5618230000000  0.4322590000000 1.0
C      1  0.4646020000000  0.5055800000000  0.6288320000000 1.0
C      1  0.3951340000000  0.4819860000000  0.4969850000000 1.0
C      1  0.4866030000000  0.6240800000000  0.5100860000000 1.0
C      1  0.4975190000000  0.5623940000000  0.3952200000000 1.0
C      1  0.4344760000000  0.4008880000000  0.5476360000000 1.0
C      1  0.6026000000000  0.6066620000000  0.4899370000000 1.0
C      1  0.4661400000000  0.4179320000000  0.5955470000000 1.0
C      1  0.4814050000000  0.4299700000000  0.4263570000000 1.0
C      1  0.4231550000000  0.4079980000000  0.4475580000000 1.0
C      1  0.5331130000000  0.5047590000000  0.5584410000000 1.0
C      1  0.5291070000000  0.4133510000000  0.4173750000000 1.0
C      1  0.4136210000000  0.4106010000000  0.5066830000000 1.0
C      1  0.4666170000000  0.6070220000000  0.5520540000000 1.0
C      1  0.4248870000000  0.4707040000000  0.5677210000000 1.0
C      1  0.5530180000000  0.4754760000000  0.4548320000000 1.0
C      1  0.4406900000000  0.4096290000000  0.4244030000000 1.0
C      1  0.5120850000000  0.3885410000000  0.4900260000000 1.0
C      1  0.5920590000000  0.5065300000000  0.5761150000000 1.0
C      1  0.6203800000000  0.5031150000000  0.5111470000000 1.0
C      1  0.3608640000000  0.4842580000000  0.4033970000000 1.0
C      1  0.5657890000000  0.5203580000000  0.5187560000000 1.0
C      1  0.5337200000000  0.5836420000000  0.4277150000000 1.0
C      1  0.5376890000000  0.4357620000000  0.5578720000000 1.0
C      1  0.5520840000000  0.5121020000000  0.3207590000000 1.0
C      1  0.5281990000000  0.4842430000000  0.5383580000000 1.0
C      1  0.5731990000000  0.4578810000000  0.4944110000000 1.0
C      1  0.4992220000000  0.4603810000000  0.5886250000000 1.0
C      1  0.5156750000000  0.6064590000000  0.4704100000000 1.0
C      1  0.5895230000000  0.5225460000000  0.4369630000000 1.0
C      1  0.4810620000000  0.4053340000000  0.5469390000000 1.0
C      1  0.4512130000000  0.4575710000000  0.6210300000000 1.0
C      1  0.5564980000000  0.5048980000000  0.4952220000000 1.0
C      1  0.4046230000000  0.5082770000000  0.5058930000000 1.0
C      1  0.4763570000000  0.5653430000000  0.4462470000000 1.0
C      1  0.5104020000000  0.5287400000000  0.6242530000000 1.0
C      1  0.5178850000000  0.4230850000000  0.3933450000000 1.0
C      1  0.4949670000000  0.6240780000000  0.4818860000000 1.0
C      1  0.4555680000000  0.4437710000000  0.4845290000000 1.0
C      1  0.5642770000000  0.5754650000000  0.5936630000000 1.0
C      1  0.4481020000000  0.5901890000000  0.5671010000000 1.0
C      1  0.4393780000000  0.4943070000000  0.5781990000000 1.0
C      1  0.5162200000000  0.5014070000000  0.5170650000000 1.0
C      1  0.4890560000000  0.4632540000000  0.3947770000000 1.0
C      1  0.5417040000000  0.4343020000000  0.4317850000000 1.0
C      1  0.5148880000000  0.5087470000000  0.4649180000000 1.0
C      1  0.6086850000000  0.5015890000000  0.4391580000000 1.0
C      1  0.5261880000000  0.5692520000000  0.5599580000000 1.0
C      1  0.4980110000000  0.5496280000000  0.4449110000000 1.0
C      1  0.5143110000000  0.5796440000000  0.4075660000000 1.0
C      1  0.3936170000000  0.4707280000000  0.4379720000000 1.0
C      1  0.4281440000000  0.5165190000000  0.4929600000000 1.0
C      1  0.5196960000000  0.4442940000000  0.5791810000000 1.0
C      1  0.3892400000000  0.4758870000000  0.4679660000000 1.0
C      1  0.3985810000000  0.5132090000000  0.4167210000000 1.0
C      1  0.4761580000000  0.4639690000000  0.4925670000000 1.0
C      1  0.4339420000000  0.4540880000000  0.4697860000000 1.0
C      1  0.4248870000000  0.3879820000000  0.4669560000000 1.0
C      1  0.3397240000000  0.4794640000000  0.3889310000000 1.0
C      1  0.4365970000000  0.4808900000000  0.4589660000000 1.0
C      1  0.5394440000000  0.4670300000000  0.3861740000000 1.0
C      1  0.5214140000000  0.4688120000000  0.6304800000000 1.0
C      1  0.5193690000000  0.5314400000000  0.4482710000000 1.0
C      1  0.4209530000000  0.5411140000000  0.5743560000000 1.0
C      1  0.5308230000000  0.6046390000000  0.5148090000000 1.0
C      1  0.5530120000000  0.3840610000000  0.4481880000000 1.0
C      1  0.4817950000000  0.4974470000000  0.4292350000000 1.0
C      1  0.4685750000000  0.4033890000000  0.4317620000000 1.0
C      1  0.4338630000000  0.5629720000000  0.3756350000000 1.0
C      1  0.4832890000000  0.5379430000000  0.3934070000000 1.0
C      1  0.4241490000000  0.4210180000000  0.5624090000000 1.0
C      1  0.5174840000000  0.5483780000000  0.5428400000000 1.0
C      1  0.4316180000000  0.3923820000000  0.4939700000000 1.0
C      1  0.5757920000000  0.5652950000000  0.5074150000000 1.0
C      1  0.4956910000000  0.4910970000000  0.4534560000000 1.0
C      1  0.3872650000000  0.5592140000000  0.4680200000000 1.0
C      1  0.5946600000000  0.4864610000000  0.5555790000000 1.0
C      1  0.5571200000000  0.6137030000000  0.5086560000000 1.0
C      1  0.5494090000000  0.4611090000000  0.5405410000000 1.0
C      1  0.5647490000000  0.4816280000000  0.4807780000000 1.0
C      1  0.4909480000000  0.4903500000000  0.4029950000000 1.0
C      1  0.4298570000000  0.4440430000000  0.5782850000000 1.0
C      1  0.4796190000000  0.4062790000000  0.5753070000000 1.0
C      1  0.4626580000000  0.4883080000000  0.5298910000000 1.0
C      1  0.6121870000000  0.4913280000000  0.5337990000000 1.0
C      1  0.4970580000000  0.5415300000000  0.5008080000000 1.0
C      1  0.5307410000000  0.6061640000000  0.6106670000000 1.0
C      1  0.5376110000000  0.4510760000000  0.4541090000000 1.0
C      1  0.5640630000000  0.5944810000000  0.4628940000000 1.0
C      1  0.6266390000000  0.5622950000000  0.4856890000000 1.0
C      1  0.4579960000000  0.5135050000000  0.4279970000000 1.0
C      1  0.5590720000000  0.4678750000000  0.4077800000000 1.0
C      1  0.5769360000000  0.4648240000000  0.5548700000000 1.0
C      1  0.4337550000000  0.5406630000000  0.3915040000000 1.0
C      1  0.4004410000000  0.4617810000000  0.5174880000000 1.0
C      1  0.5734990000000  0.5043320000000  0.5981100000000 1.0
C      1  0.5630390000000  0.5151510000000  0.4292790000000 1.0
C      1  0.4710230000000  0.4773680000000  0.6252560000000 1.0
C      1  0.5423340000000  0.4210050000000  0.5123170000000 1.0
C      1  0.4361800000000  0.5055640000000  0.4444330000000 1.0
C      1  0.5446490000000  0.4812370000000  0.3626410000000 1.0
C      1  0.4713880000000  0.5361530000000  0.4907600000000 1.0
C      1  0.3989520000000  0.5363150000000  0.5555340000000 1.0
C      1  0.4560730000000  0.5127140000000  0.4910820000000 1.0
C      1  0.4584860000000  0.3875720000000  0.5054820000000 1.0
C      1  0.4957400000000  0.6060300000000  0.5533100000000 1.0
C      1  0.6020300000000  0.5317730000000  0.5675470000000 1.0
C      1  0.4686560000000  0.5343870000000  0.5511140000000 1.0
C      1  0.4866440000000  0.5222430000000  0.6347000000000 1.0
C      1  0.5531680000000  0.5723420000000  0.5677680000000 1.0
C      1  0.4719000000000  0.4259000000000  0.4698410000000 1.0
C      1  0.5366160000000  0.3879630000000  0.4268830000000 1.0
C      1  0.4184070000000  0.4355780000000  0.4540420000000 1.0
C      1  0.5147930000000  0.4510900000000  0.3880620000000 1.0
C      1  0.4337160000000  0.5676900000000  0.5742800000000 1.0
C      1  0.5081420000000  0.5290570000000  0.5235850000000 1.0
C      1  0.5241130000000  0.4440020000000  0.4763580000000 1.0
C      1  0.4816020000000  0.4713660000000  0.5697440000000 1.0
C      1  0.4586340000000  0.3944450000000  0.5336260000000 1.0
C      1  0.4018760000000  0.5410490000000  0.4563410000000 1.0
C      1  0.4851590000000  0.5903520000000  0.6140970000000 1.0
C      1  0.5678550000000  0.5515070000000  0.6076220000000 1.0
C      1  0.5831850000000  0.5430340000000  0.5207760000000 1.0
C      1  0.4379790000000  0.4390510000000  0.4117980000000 1.0
C      1  0.5073990000000  0.5953290000000  0.5990730000000 1.0
C      1  0.4119750000000  0.5202230000000  0.4409660000000 1.0
C      1  0.5930570000000  0.5454460000000  0.4548430000000 1.0
C      1  0.5249100000000  0.4206660000000  0.5350460000000 1.0
C      1  0.4961030000000  0.5132320000000  0.3869400000000 1.0
C      1  0.5366520000000  0.6013630000000  0.4510230000000 1.0
C      1  0.4973040000000  0.4689470000000  0.6160900000000 1.0
END
