TITL C-3866669-3764-357 149.826072629805 125000 -1134.53136174725 0 0 185 (C1) n - 1
REM
REM in /home/nfs/bkarasulu/CARBON/AIRSS/Generating-Clusters/LCBOP/Only-C1/SD-CG/FIRE-CG
REM
REM
REM
REM
REM
REM ./C.cell (11c1c37f851c82e70ff6c80c92926a4b)
REM AIRSS Version 0.9.1 bugfix July 2018 build 013d7b7c2542+ Fri, 06 Jul 2018 19:26:36 +0100
REM compiler GCC version 9.2.1 20190827 (Red Hat 9.2.1-1)
REM options -cpp -mtune=generic -march=x86-64 -g -O0 -fpre-include=/usr/include/finclude/math-vector-fortran.h
REM seed 440044741 535102741 -105447204 1194760477 1073371144 -165915118 -962906319 679417983 -729809478 -112718942 1818304530 -252784935 743246452 -539198256 1157265168 2117692688 265229842 451734069 1796732721 -604767081 -1136528830 505959933 819149188 342409584 -44496909 -2106682178 -1359808992 1318446715 -1849472990 1317760435 555609656 -1525590425 52870774
REM
CELL 1.54180   50.00000   50.00000   50.00000   90.00000   90.00000   90.00000
LATT -1
SFAC C  
C      1  0.4246940000000  0.5953830000000  0.5188360000000 1.0
C      1  0.5363610000000  0.5135670000000  0.4626380000000 1.0
C      1  0.5482980000000  0.4425810000000  0.5283620000000 1.0
C      1  0.5219300000000  0.4514570000000  0.5217300000000 1.0
C      1  0.4349380000000  0.5002280000000  0.5513660000000 1.0
C      1  0.5005570000000  0.4461940000000  0.5381560000000 1.0
C      1  0.5123770000000  0.6000620000000  0.5676450000000 1.0
C      1  0.5132860000000  0.4509870000000  0.4416270000000 1.0
C      1  0.5028250000000  0.4024020000000  0.5184470000000 1.0
C      1  0.5646760000000  0.6213710000000  0.5050270000000 1.0
C      1  0.4405890000000  0.5228730000000  0.5677610000000 1.0
C      1  0.3865190000000  0.4581840000000  0.5214000000000 1.0
C      1  0.3804770000000  0.5031300000000  0.5772200000000 1.0
C      1  0.4286760000000  0.4773940000000  0.5348380000000 1.0
C      1  0.5556800000000  0.4600050000000  0.5886840000000 1.0
C      1  0.6300640000000  0.5128650000000  0.4533560000000 1.0
C      1  0.5839000000000  0.4986780000000  0.4577050000000 1.0
C      1  0.4343710000000  0.4392860000000  0.4504950000000 1.0
C      1  0.4591110000000  0.4670430000000  0.4851650000000 1.0
C      1  0.4693060000000  0.4423410000000  0.4937040000000 1.0
C      1  0.4115710000000  0.4619260000000  0.5829630000000 1.0
C      1  0.5049600000000  0.5733700000000  0.4594620000000 1.0
C      1  0.5346080000000  0.5046190000000  0.6052860000000 1.0
C      1  0.4638830000000  0.4021000000000  0.4380110000000 1.0
C      1  0.4877150000000  0.4365030000000  0.6085070000000 1.0
C      1  0.4052870000000  0.4791000000000  0.5191140000000 1.0
C      1  0.4940240000000  0.6068200000000  0.5236110000000 1.0
C      1  0.5740060000000  0.5569940000000  0.4952730000000 1.0
C      1  0.6135140000000  0.4642470000000  0.5049090000000 1.0
C      1  0.4721790000000  0.6224450000000  0.4833400000000 1.0
C      1  0.4747580000000  0.4845640000000  0.6142570000000 1.0
C      1  0.5066740000000  0.4538380000000  0.3838670000000 1.0
C      1  0.5854440000000  0.4713990000000  0.5041100000000 1.0
C      1  0.3908450000000  0.5701650000000  0.4938880000000 1.0
C      1  0.4698880000000  0.6155560000000  0.5105000000000 1.0
C      1  0.4789960000000  0.5166570000000  0.4400620000000 1.0
C      1  0.5308740000000  0.5656830000000  0.4518610000000 1.0
C      1  0.3914180000000  0.4176320000000  0.4681550000000 1.0
C      1  0.4009660000000  0.5485910000000  0.5653550000000 1.0
C      1  0.4006110000000  0.5008400000000  0.5007930000000 1.0
C      1  0.4863100000000  0.5100550000000  0.4869130000000 1.0
C      1  0.5545650000000  0.3202130000000  0.5329050000000 1.0
C      1  0.5344120000000  0.5373050000000  0.4482380000000 1.0
C      1  0.4291690000000  0.5490210000000  0.5640300000000 1.0
C      1  0.5913240000000  0.5241240000000  0.5728900000000 1.0
C      1  0.4930450000000  0.4644220000000  0.6049740000000 1.0
C      1  0.5904120000000  0.5461030000000  0.4445600000000 1.0
C      1  0.4752850000000  0.5130910000000  0.6095840000000 1.0
C      1  0.5665130000000  0.4646700000000  0.5251840000000 1.0
C      1  0.4723140000000  0.5229990000000  0.4136500000000 1.0
C      1  0.5130400000000  0.5927570000000  0.5093780000000 1.0
C      1  0.4211850000000  0.5193540000000  0.4931080000000 1.0
C      1  0.5878550000000  0.5561710000000  0.4709840000000 1.0
C      1  0.5536970000000  0.4515320000000  0.4637420000000 1.0
C      1  0.5313060000000  0.4503610000000  0.5778390000000 1.0
C      1  0.5087770000000  0.5736640000000  0.4019530000000 1.0
C      1  0.3710110000000  0.4335890000000  0.4810800000000 1.0
C      1  0.5133190000000  0.4061090000000  0.5822110000000 1.0
C      1  0.5976900000000  0.3561010000000  0.4834520000000 1.0
C      1  0.4457660000000  0.5143240000000  0.4050810000000 1.0
C      1  0.4373570000000  0.5733130000000  0.4781610000000 1.0
C      1  0.5549170000000  0.4638960000000  0.6166350000000 1.0
C      1  0.4711400000000  0.4219350000000  0.5650030000000 1.0
C      1  0.5084000000000  0.5167320000000  0.5060240000000 1.0
C      1  0.3907670000000  0.4787730000000  0.5814070000000 1.0
C      1  0.4824300000000  0.5386970000000  0.3924890000000 1.0
C      1  0.4647670000000  0.4730940000000  0.4215920000000 1.0
C      1  0.5382940000000  0.5219480000000  0.5098070000000 1.0
C      1  0.5390630000000  0.4843820000000  0.6248020000000 1.0
C      1  0.5098890000000  0.4787430000000  0.4413300000000 1.0
C      1  0.3755150000000  0.5001070000000  0.4876550000000 1.0
C      1  0.5639880000000  0.4880210000000  0.4371680000000 1.0
C      1  0.4289900000000  0.6003140000000  0.4363960000000 1.0
C      1  0.4756090000000  0.5325020000000  0.4664370000000 1.0
C      1  0.5794570000000  0.4977550000000  0.4884420000000 1.0
C      1  0.5619880000000  0.5879490000000  0.5608510000000 1.0
C      1  0.4596420000000  0.4336430000000  0.5194290000000 1.0
C      1  0.4237130000000  0.5309720000000  0.4654030000000 1.0
C      1  0.5786790000000  0.4897610000000  0.4123750000000 1.0
C      1  0.4246910000000  0.4855200000000  0.4531420000000 1.0
C      1  0.4425090000000  0.5276790000000  0.5124190000000 1.0
C      1  0.4176960000000  0.5767050000000  0.4992410000000 1.0
C      1  0.4488850000000  0.6056100000000  0.5280910000000 1.0
C      1  0.4820160000000  0.5571730000000  0.5057490000000 1.0
C      1  0.5317540000000  0.3885200000000  0.4514250000000 1.0
C      1  0.5309830000000  0.5257750000000  0.4002110000000 1.0
C      1  0.4811110000000  0.6149630000000  0.4589460000000 1.0
C      1  0.6387970000000  0.4920070000000  0.4679700000000 1.0
C      1  0.4875460000000  0.4164370000000  0.5880940000000 1.0
C      1  0.5444980000000  0.4151370000000  0.4058390000000 1.0
C      1  0.4366580000000  0.5958960000000  0.4614910000000 1.0
C      1  0.5320380000000  0.4959280000000  0.3937040000000 1.0
C      1  0.4913850000000  0.5564710000000  0.4779330000000 1.0
C      1  0.5517690000000  0.5443250000000  0.5852410000000 1.0
C      1  0.5354240000000  0.4920630000000  0.4435510000000 1.0
C      1  0.5392050000000  0.3703570000000  0.5294600000000 1.0
C      1  0.4458820000000  0.5720630000000  0.5635420000000 1.0
C      1  0.4081560000000  0.5415440000000  0.4423560000000 1.0
C      1  0.4207890000000  0.5540730000000  0.4185690000000 1.0
C      1  0.5031550000000  0.4084940000000  0.4894760000000 1.0
C      1  0.3756330000000  0.5617580000000  0.4733780000000 1.0
C      1  0.5727930000000  0.4730520000000  0.5704570000000 1.0
C      1  0.5750850000000  0.5833560000000  0.5356120000000 1.0
C      1  0.5367510000000  0.3964760000000  0.4243080000000 1.0
C      1  0.5173400000000  0.4550400000000  0.4944750000000 1.0
C      1  0.4964660000000  0.4364980000000  0.4862050000000 1.0
C      1  0.3726860000000  0.4391970000000  0.5084960000000 1.0
C      1  0.4893670000000  0.6001330000000  0.5515450000000 1.0
C      1  0.5557530000000  0.5234560000000  0.6045830000000 1.0
C      1  0.4905710000000  0.5929030000000  0.4438840000000 1.0
C      1  0.5973850000000  0.5169540000000  0.5046570000000 1.0
C      1  0.4861980000000  0.4677780000000  0.5545800000000 1.0
C      1  0.4861400000000  0.5861090000000  0.4159340000000 1.0
C      1  0.5999460000000  0.5072420000000  0.4139470000000 1.0
C      1  0.4838800000000  0.4881920000000  0.4378700000000 1.0
C      1  0.3670790000000  0.4568390000000  0.4634730000000 1.0
C      1  0.6249390000000  0.4594270000000  0.5301930000000 1.0
C      1  0.5524510000000  0.3756130000000  0.4651490000000 1.0
C      1  0.4019230000000  0.4807770000000  0.4391350000000 1.0
C      1  0.5835130000000  0.5170860000000  0.6002620000000 1.0
C      1  0.4586950000000  0.4515540000000  0.5641410000000 1.0
C      1  0.4473300000000  0.5470140000000  0.4682150000000 1.0
C      1  0.4606070000000  0.5935230000000  0.5523320000000 1.0
C      1  0.5371690000000  0.5797700000000  0.5076910000000 1.0
C      1  0.5534490000000  0.5784240000000  0.4381610000000 1.0
C      1  0.5649780000000  0.5333700000000  0.5609970000000 1.0
C      1  0.5070200000000  0.5516380000000  0.5948320000000 1.0
C      1  0.3833280000000  0.5290520000000  0.5710450000000 1.0
C      1  0.5068640000000  0.4709460000000  0.5785980000000 1.0
C      1  0.4598170000000  0.5799290000000  0.4043650000000 1.0
C      1  0.4693900000000  0.5363360000000  0.5223750000000 1.0
C      1  0.5458090000000  0.5149740000000  0.5415850000000 1.0
C      1  0.5750420000000  0.3654230000000  0.4745210000000 1.0
C      1  0.4926500000000  0.5156220000000  0.5325370000000 1.0
C      1  0.4540910000000  0.4277870000000  0.4332140000000 1.0
C      1  0.5098820000000  0.5456200000000  0.3936240000000 1.0
C      1  0.6227330000000  0.4720830000000  0.5551020000000 1.0
C      1  0.6306580000000  0.4722160000000  0.4840410000000 1.0
C      1  0.6032790000000  0.5186880000000  0.4419450000000 1.0
C      1  0.5183950000000  0.4989770000000  0.5806530000000 1.0
C      1  0.6001050000000  0.4661310000000  0.5707210000000 1.0
C      1  0.5023680000000  0.5423500000000  0.5683540000000 1.0
C      1  0.5488650000000  0.5019300000000  0.4885170000000 1.0
C      1  0.6325250000000  0.4982610000000  0.5587830000000 1.0
C      1  0.4344330000000  0.5395030000000  0.3972040000000 1.0
C      1  0.5137040000000  0.5176940000000  0.5553270000000 1.0
C      1  0.5468250000000  0.3450690000000  0.5315360000000 1.0
C      1  0.4833330000000  0.3887670000000  0.4504210000000 1.0
C      1  0.4713830000000  0.4881400000000  0.5001380000000 1.0
C      1  0.6176200000000  0.5198260000000  0.5648140000000 1.0
C      1  0.5288980000000  0.3962040000000  0.5298980000000 1.0
C      1  0.5410020000000  0.4446190000000  0.4395120000000 1.0
C      1  0.4548760000000  0.5202410000000  0.5914840000000 1.0
C      1  0.3883990000000  0.4563860000000  0.4435950000000 1.0
C      1  0.5621220000000  0.4845330000000  0.5458560000000 1.0
C      1  0.5460210000000  0.5523010000000  0.5021700000000 1.0
C      1  0.3821270000000  0.5500040000000  0.4499460000000 1.0
C      1  0.5590990000000  0.6048240000000  0.4359110000000 1.0
C      1  0.4676490000000  0.4455530000000  0.4154830000000 1.0
C      1  0.4938470000000  0.5348270000000  0.6140610000000 1.0
C      1  0.5310870000000  0.4652440000000  0.3943420000000 1.0
C      1  0.5591800000000  0.5967850000000  0.5152900000000 1.0
C      1  0.5365910000000  0.5873480000000  0.5750620000000 1.0
C      1  0.4064190000000  0.4332150000000  0.4490460000000 1.0
C      1  0.4337830000000  0.5807750000000  0.4173580000000 1.0
C      1  0.4850440000000  0.4409870000000  0.3937750000000 1.0
C      1  0.5426480000000  0.4179060000000  0.5433750000000 1.0
C      1  0.4589030000000  0.5557110000000  0.3877330000000 1.0
C      1  0.5478810000000  0.5358690000000  0.4215430000000 1.0
C      1  0.5329580000000  0.5640350000000  0.5911860000000 1.0
C      1  0.5392630000000  0.4677760000000  0.4826100000000 1.0
C      1  0.6038060000000  0.5376170000000  0.5213640000000 1.0
C      1  0.5453390000000  0.4436890000000  0.4105200000000 1.0
C      1  0.4404490000000  0.4647660000000  0.4639750000000 1.0
C      1  0.4396210000000  0.4598210000000  0.5866680000000 1.0
C      1  0.5694130000000  0.5554060000000  0.4267250000000 1.0
C      1  0.4831360000000  0.4206620000000  0.5356220000000 1.0
C      1  0.4438890000000  0.4525040000000  0.5366800000000 1.0
C      1  0.5886380000000  0.5616930000000  0.5206110000000 1.0
C      1  0.4491690000000  0.4722700000000  0.6103860000000 1.0
C      1  0.3605800000000  0.4821210000000  0.4741960000000 1.0
C      1  0.4441030000000  0.4868570000000  0.4076090000000 1.0
C      1  0.4793640000000  0.4881710000000  0.5305320000000 1.0
C      1  0.5321790000000  0.4230100000000  0.5696310000000 1.0
C      1  0.5068700000000  0.3934500000000  0.4652100000000 1.0
END
