TITL C-3866672-3872-350 -84.9819130227383 125000 -886.05044772409 0 0 147 (C1) n - 1
REM
REM in /home/nfs/bkarasulu/CARBON/AIRSS/Generating-Clusters/LCBOP/Only-C1/SD-CG/FIRE-CG
REM
REM
REM
REM
REM
REM ./C.cell (11c1c37f851c82e70ff6c80c92926a4b)
REM AIRSS Version 0.9.1 bugfix July 2018 build 013d7b7c2542+ Fri, 06 Jul 2018 19:26:36 +0100
REM compiler GCC version 9.2.1 20190827 (Red Hat 9.2.1-1)
REM options -cpp -mtune=generic -march=x86-64 -g -O0 -fpre-include=/usr/include/finclude/math-vector-fortran.h
REM seed 627531046 -620740060 117354318 -1958682360 -225759511 448696481 -1692167010 1096723594 -1112846153 379860396 1620559955 -360569222 -48328095 2123991482 11663751 911096688 -1464684413 -1697392096 -2006139996 188784174 151090169 -1758420399 1676397270 19888981 550668364 1049632493 303164169 -876148181 122262472 1312130378 -798334259 -980999211 1308494023
REM
CELL 1.54180   50.00000   50.00000   50.00000   90.00000   90.00000   90.00000
LATT -1
SFAC C  
C      1  0.5019610000000  0.5662690000000  0.5046170000000 1.0
C      1  0.5666960000000  0.5879620000000  0.5178910000000 1.0
C      1  0.5052550000000  0.5549320000000  0.6011280000000 1.0
C      1  0.4552650000000  0.5635190000000  0.5099900000000 1.0
C      1  0.4106770000000  0.5066190000000  0.4761730000000 1.0
C      1  0.5044050000000  0.4234480000000  0.4495120000000 1.0
C      1  0.4677520000000  0.5249260000000  0.4458260000000 1.0
C      1  0.5175100000000  0.4814560000000  0.4113780000000 1.0
C      1  0.5709910000000  0.5647980000000  0.5593910000000 1.0
C      1  0.4630640000000  0.4549920000000  0.5447320000000 1.0
C      1  0.5300970000000  0.3908600000000  0.4801230000000 1.0
C      1  0.5450770000000  0.4938220000000  0.4026280000000 1.0
C      1  0.4806080000000  0.5594770000000  0.5219230000000 1.0
C      1  0.5232170000000  0.5137690000000  0.4527150000000 1.0
C      1  0.4298240000000  0.4565640000000  0.4186340000000 1.0
C      1  0.5693130000000  0.5016770000000  0.5213300000000 1.0
C      1  0.4194640000000  0.5551340000000  0.4790440000000 1.0
C      1  0.4119190000000  0.4689910000000  0.5483230000000 1.0
C      1  0.4875150000000  0.4780820000000  0.4500660000000 1.0
C      1  0.5250750000000  0.5543260000000  0.4141660000000 1.0
C      1  0.4638910000000  0.4351510000000  0.5655070000000 1.0
C      1  0.4296460000000  0.5704630000000  0.5214760000000 1.0
C      1  0.4889920000000  0.4865440000000  0.3981890000000 1.0
C      1  0.5705950000000  0.5748850000000  0.4686040000000 1.0
C      1  0.4676180000000  0.4982130000000  0.4557000000000 1.0
C      1  0.6124760000000  0.5050730000000  0.4879450000000 1.0
C      1  0.5222350000000  0.5089000000000  0.5197310000000 1.0
C      1  0.4388490000000  0.4704170000000  0.5388020000000 1.0
C      1  0.4617760000000  0.4891540000000  0.4025430000000 1.0
C      1  0.5630770000000  0.4784440000000  0.5055030000000 1.0
C      1  0.5121410000000  0.3989350000000  0.5226940000000 1.0
C      1  0.5994950000000  0.5190690000000  0.5588550000000 1.0
C      1  0.4611310000000  0.3927420000000  0.5338360000000 1.0
C      1  0.5727910000000  0.4544540000000  0.5166270000000 1.0
C      1  0.4356170000000  0.4839740000000  0.4147130000000 1.0
C      1  0.3872030000000  0.6619100000000  0.5306340000000 1.0
C      1  0.5242560000000  0.5715100000000  0.3940200000000 1.0
C      1  0.5441370000000  0.6004620000000  0.5298880000000 1.0
C      1  0.4311590000000  0.4981020000000  0.4938100000000 1.0
C      1  0.5738430000000  0.5238150000000  0.5038830000000 1.0
C      1  0.5227010000000  0.4497970000000  0.5381320000000 1.0
C      1  0.4770490000000  0.4200770000000  0.4088080000000 1.0
C      1  0.4574290000000  0.4971270000000  0.4815660000000 1.0
C      1  0.5514350000000  0.4765780000000  0.4772370000000 1.0
C      1  0.5203170000000  0.6054950000000  0.5411780000000 1.0
C      1  0.5801800000000  0.4067500000000  0.4997610000000 1.0
C      1  0.5266810000000  0.4604680000000  0.4840520000000 1.0
C      1  0.4337510000000  0.5045710000000  0.6061410000000 1.0
C      1  0.5130470000000  0.5406720000000  0.5559680000000 1.0
C      1  0.3540100000000  0.4992500000000  0.5807080000000 1.0
C      1  0.5479910000000  0.5049860000000  0.4672720000000 1.0
C      1  0.6109410000000  0.4428220000000  0.4553320000000 1.0
C      1  0.4824180000000  0.4661490000000  0.5055290000000 1.0
C      1  0.4725630000000  0.4487680000000  0.4844780000000 1.0
C      1  0.4142690000000  0.5286900000000  0.4353080000000 1.0
C      1  0.3793450000000  0.4951240000000  0.5741580000000 1.0
C      1  0.5726380000000  0.4663950000000  0.5848270000000 1.0
C      1  0.6022790000000  0.5301190000000  0.5029700000000 1.0
C      1  0.5108990000000  0.4901410000000  0.4397110000000 1.0
C      1  0.6142400000000  0.4796570000000  0.5031430000000 1.0
C      1  0.5017660000000  0.3976910000000  0.4695390000000 1.0
C      1  0.5270410000000  0.5352680000000  0.4324570000000 1.0
C      1  0.5833950000000  0.5383180000000  0.4378790000000 1.0
C      1  0.5577150000000  0.4086210000000  0.5174020000000 1.0
C      1  0.4533690000000  0.4163740000000  0.4213270000000 1.0
C      1  0.4612320000000  0.4086980000000  0.5558030000000 1.0
C      1  0.4354980000000  0.4339170000000  0.4343390000000 1.0
C      1  0.5505930000000  0.5611780000000  0.5766740000000 1.0
C      1  0.5239920000000  0.5874150000000  0.3728280000000 1.0
C      1  0.5815160000000  0.4995410000000  0.5487280000000 1.0
C      1  0.5861660000000  0.4743440000000  0.5619910000000 1.0
C      1  0.4038420000000  0.4436990000000  0.4750700000000 1.0
C      1  0.5229350000000  0.4515500000000  0.4154350000000 1.0
C      1  0.5705510000000  0.5901390000000  0.4903670000000 1.0
C      1  0.5617980000000  0.5272800000000  0.4787510000000 1.0
C      1  0.5350940000000  0.4235260000000  0.4484150000000 1.0
C      1  0.6018900000000  0.4588500000000  0.5198550000000 1.0
C      1  0.5022490000000  0.4216860000000  0.5120190000000 1.0
C      1  0.3961060000000  0.4544510000000  0.5287120000000 1.0
C      1  0.4841930000000  0.5733710000000  0.5973700000000 1.0
C      1  0.4283540000000  0.6336530000000  0.5471320000000 1.0
C      1  0.5886360000000  0.5101990000000  0.4362850000000 1.0
C      1  0.4783540000000  0.5195300000000  0.6276000000000 1.0
C      1  0.5819630000000  0.5688440000000  0.5329290000000 1.0
C      1  0.4168050000000  0.5003870000000  0.4293100000000 1.0
C      1  0.5280870000000  0.5214120000000  0.5424600000000 1.0
C      1  0.3915550000000  0.4645990000000  0.4608320000000 1.0
C      1  0.4954850000000  0.6053050000000  0.5513380000000 1.0
C      1  0.4293050000000  0.4344590000000  0.4622090000000 1.0
C      1  0.4264410000000  0.5086500000000  0.5788710000000 1.0
C      1  0.5446990000000  0.4470290000000  0.4352500000000 1.0
C      1  0.4871570000000  0.4507830000000  0.4604220000000 1.0
C      1  0.5693320000000  0.4963950000000  0.4191540000000 1.0
C      1  0.4992520000000  0.5342420000000  0.6193440000000 1.0
C      1  0.4790810000000  0.4958400000000  0.5028550000000 1.0
C      1  0.5089810000000  0.5263210000000  0.4763250000000 1.0
C      1  0.4743840000000  0.4497900000000  0.5877840000000 1.0
C      1  0.4091350000000  0.5660580000000  0.5035230000000 1.0
C      1  0.5009810000000  0.4305510000000  0.4185070000000 1.0
C      1  0.4485230000000  0.4341390000000  0.4844200000000 1.0
C      1  0.4811870000000  0.4992050000000  0.5722860000000 1.0
C      1  0.5356050000000  0.3916550000000  0.5091260000000 1.0
C      1  0.4635200000000  0.5066040000000  0.5265260000000 1.0
C      1  0.4537960000000  0.5096870000000  0.6232860000000 1.0
C      1  0.5237550000000  0.5526220000000  0.5794040000000 1.0
C      1  0.5385120000000  0.4608500000000  0.6248870000000 1.0
C      1  0.5464560000000  0.5031770000000  0.3761520000000 1.0
C      1  0.4381870000000  0.4939410000000  0.5216240000000 1.0
C      1  0.4865720000000  0.5433080000000  0.5453860000000 1.0
C      1  0.5846630000000  0.4389450000000  0.4616640000000 1.0
C      1  0.6043710000000  0.5505860000000  0.5246540000000 1.0
C      1  0.4055270000000  0.4412440000000  0.5048870000000 1.0
C      1  0.5208520000000  0.4603630000000  0.6440580000000 1.0
C      1  0.4322550000000  0.4299250000000  0.5076280000000 1.0
C      1  0.4792180000000  0.3880420000000  0.4842640000000 1.0
C      1  0.4040790000000  0.4886040000000  0.4538980000000 1.0
C      1  0.5707420000000  0.5482050000000  0.4610440000000 1.0
C      1  0.5238450000000  0.6029850000000  0.3513860000000 1.0
C      1  0.5042190000000  0.5094780000000  0.4985120000000 1.0
C      1  0.4817920000000  0.4760980000000  0.5864130000000 1.0
C      1  0.4633500000000  0.5480850000000  0.4591940000000 1.0
C      1  0.4662410000000  0.3858440000000  0.5080650000000 1.0
C      1  0.6150380000000  0.5382940000000  0.5480840000000 1.0
C      1  0.5237010000000  0.6185270000000  0.3299150000000 1.0
C      1  0.5751670000000  0.4140570000000  0.4728460000000 1.0
C      1  0.4686430000000  0.5195740000000  0.5527120000000 1.0
C      1  0.5638320000000  0.4581280000000  0.4548970000000 1.0
C      1  0.3290690000000  0.5032810000000  0.5871350000000 1.0
C      1  0.5494090000000  0.4051460000000  0.4638680000000 1.0
C      1  0.4076390000000  0.6479750000000  0.5388700000000 1.0
C      1  0.5466660000000  0.5134910000000  0.3522220000000 1.0
C      1  0.5235560000000  0.6338140000000  0.3087980000000 1.0
C      1  0.4061240000000  0.4907210000000  0.5670440000000 1.0
C      1  0.4107410000000  0.5334540000000  0.4638540000000 1.0
C      1  0.4691560000000  0.6005080000000  0.5609470000000 1.0
C      1  0.6056960000000  0.4589230000000  0.5481600000000 1.0
C      1  0.4488620000000  0.5575280000000  0.4814220000000 1.0
C      1  0.5525920000000  0.4362180000000  0.5270580000000 1.0
C      1  0.5148580000000  0.4397850000000  0.4960540000000 1.0
C      1  0.6055300000000  0.5022360000000  0.4590780000000 1.0
C      1  0.5104910000000  0.5538040000000  0.4824000000000 1.0
C      1  0.4485760000000  0.6182240000000  0.5545200000000 1.0
C      1  0.4430660000000  0.5294150000000  0.5664590000000 1.0
C      1  0.4894940000000  0.4581340000000  0.5318450000000 1.0
C      1  0.4449080000000  0.5572350000000  0.5737250000000 1.0
C      1  0.5561740000000  0.4623250000000  0.6051770000000 1.0
C      1  0.4640200000000  0.5781680000000  0.5782260000000 1.0
END
