TITL C-3866672-3872-282 5.32550993685299e-07 125000 -421.847948101833 0 0 69 (C1) n - 1
REM
REM in /home/nfs/bkarasulu/CARBON/AIRSS/Generating-Clusters/LCBOP/Only-C1/SD-CG/FIRE-CG
REM
REM
REM
REM
REM
REM ./C.cell (11c1c37f851c82e70ff6c80c92926a4b)
REM AIRSS Version 0.9.1 bugfix July 2018 build 013d7b7c2542+ Fri, 06 Jul 2018 19:26:36 +0100
REM compiler GCC version 9.2.1 20190827 (Red Hat 9.2.1-1)
REM options -cpp -mtune=generic -march=x86-64 -g -O0 -fpre-include=/usr/include/finclude/math-vector-fortran.h
REM seed -1501878506 -412631426 -1960740590 580052508 1382509431 1600041616 808682805 1937235447 122372767 225776291 -1003750040 -1252638019 -107681330 1109029382 1932613475 -2079458669 -302470831 -1183363764 1565161180 1096841677 -677962732 556048882 1120191778 1200803637 -919257013 335950173 -88269142 -730887992 1899305902 -965211988 -1522699794 -1102060210 952694549
REM
CELL 1.54180   50.00000   50.00000   50.00000   90.00000   90.00000   90.00000
LATT -1
SFAC C  
C      1  0.4984990000000  0.4592850000000  0.5539030000000 1.0
C      1  0.4737510000000  0.5463940000000  0.5708710000000 1.0
C      1  0.4796700000000  0.4708880000000  0.5363500000000 1.0
C      1  0.5160940000000  0.4724490000000  0.5024790000000 1.0
C      1  0.5845490000000  0.5178770000000  0.4736710000000 1.0
C      1  0.4337370000000  0.4835420000000  0.4382150000000 1.0
C      1  0.4412190000000  0.5147110000000  0.5149220000000 1.0
C      1  0.4234280000000  0.5098890000000  0.4342870000000 1.0
C      1  0.5009790000000  0.4329760000000  0.4552810000000 1.0
C      1  0.5254300000000  0.4510670000000  0.5560190000000 1.0
C      1  0.5375070000000  0.5105070000000  0.4634840000000 1.0
C      1  0.4339550000000  0.4898190000000  0.5265530000000 1.0
C      1  0.5407170000000  0.4362550000000  0.4837560000000 1.0
C      1  0.4603260000000  0.5109020000000  0.4925200000000 1.0
C      1  0.4418780000000  0.5631330000000  0.5326410000000 1.0
C      1  0.4770350000000  0.4993060000000  0.4174890000000 1.0
C      1  0.5794120000000  0.4895970000000  0.4721640000000 1.0
C      1  0.5049910000000  0.3952270000000  0.5172910000000 1.0
C      1  0.5329800000000  0.4254740000000  0.5458170000000 1.0
C      1  0.5136830000000  0.4054680000000  0.5406240000000 1.0
C      1  0.6401220000000  0.5625100000000  0.4876100000000 1.0
C      1  0.4716590000000  0.4851850000000  0.4899520000000 1.0
C      1  0.5513290000000  0.4839410000000  0.4708340000000 1.0
C      1  0.5788460000000  0.5058050000000  0.5399430000000 1.0
C      1  0.5042040000000  0.4928000000000  0.4226050000000 1.0
C      1  0.5064710000000  0.5381490000000  0.5299680000000 1.0
C      1  0.5211140000000  0.5083450000000  0.4389280000000 1.0
C      1  0.5181870000000  0.4208720000000  0.4744430000000 1.0
C      1  0.5140260000000  0.5879550000000  0.4736420000000 1.0
C      1  0.4871070000000  0.5509430000000  0.4867190000000 1.0
C      1  0.6206160000000  0.5456880000000  0.4915780000000 1.0
C      1  0.4343660000000  0.4703720000000  0.4633590000000 1.0
C      1  0.4616400000000  0.5148090000000  0.6048890000000 1.0
C      1  0.5120770000000  0.4660550000000  0.4180720000000 1.0
C      1  0.4894860000000  0.4764660000000  0.5100880000000 1.0
C      1  0.4474770000000  0.4788440000000  0.5721860000000 1.0
C      1  0.4161700000000  0.4745290000000  0.5105140000000 1.0
C      1  0.4635450000000  0.5369400000000  0.4798230000000 1.0
C      1  0.5609860000000  0.5311240000000  0.4627320000000 1.0
C      1  0.4610950000000  0.4653710000000  0.4724890000000 1.0
C      1  0.5084740000000  0.4003700000000  0.4911800000000 1.0
C      1  0.5918730000000  0.5194440000000  0.5211460000000 1.0
C      1  0.5545730000000  0.5583230000000  0.4603540000000 1.0
C      1  0.5586840000000  0.4256590000000  0.5027920000000 1.0
C      1  0.5630410000000  0.4891520000000  0.5534250000000 1.0
C      1  0.5374630000000  0.5785190000000  0.4645310000000 1.0
C      1  0.5452720000000  0.4705350000000  0.5602890000000 1.0
C      1  0.5562050000000  0.4235970000000  0.5295940000000 1.0
C      1  0.4513530000000  0.4924320000000  0.5947550000000 1.0
C      1  0.4723120000000  0.5932300000000  0.5027170000000 1.0
C      1  0.4529810000000  0.4781340000000  0.5447010000000 1.0
C      1  0.4328800000000  0.5429760000000  0.5144460000000 1.0
C      1  0.4652860000000  0.5252570000000  0.4161030000000 1.0
C      1  0.4763460000000  0.4434840000000  0.4640960000000 1.0
C      1  0.4568870000000  0.4791110000000  0.4215230000000 1.0
C      1  0.5994470000000  0.5280250000000  0.4954190000000 1.0
C      1  0.5106730000000  0.4424650000000  0.4306790000000 1.0
C      1  0.4903300000000  0.5792650000000  0.4860510000000 1.0
C      1  0.5367060000000  0.4644450000000  0.4850170000000 1.0
C      1  0.4957520000000  0.5412220000000  0.5541610000000 1.0
C      1  0.4735410000000  0.5393570000000  0.5983780000000 1.0
C      1  0.4505640000000  0.5562840000000  0.5583770000000 1.0
C      1  0.4383420000000  0.5501490000000  0.4863040000000 1.0
C      1  0.5062620000000  0.5365590000000  0.5020500000000 1.0
C      1  0.4843040000000  0.5556890000000  0.6174090000000 1.0
C      1  0.4393660000000  0.5295380000000  0.4237980000000 1.0
C      1  0.5223380000000  0.5196540000000  0.4873260000000 1.0
C      1  0.4533490000000  0.5864190000000  0.5207240000000 1.0
C      1  0.4150340000000  0.4692370000000  0.4839440000000 1.0
END
