TITL C-3866674-3872-256 1.54401884580562 125000 -335.927697013469 0 0 57 (C1) n - 1
REM
REM in /home/nfs/bkarasulu/CARBON/AIRSS/Generating-Clusters/LCBOP/Only-C1/SD-CG/HFTN-CG/FIRE-CG
REM
REM
REM
REM
REM
REM ./C.cell (11c1c37f851c82e70ff6c80c92926a4b)
REM AIRSS Version 0.9.1 bugfix July 2018 build 013d7b7c2542+ Fri, 06 Jul 2018 19:26:36 +0100
REM compiler GCC version 9.2.1 20190827 (Red Hat 9.2.1-1)
REM options -cpp -mtune=generic -march=x86-64 -g -O0 -fpre-include=/usr/include/finclude/math-vector-fortran.h
REM seed -1547597972 -1618953069 -633885725 16945513 908418588 -1229226759 -1358195523 -1871600949 1078110444 -1214648982 1099196193 384009804 1883460917 -1354594431 340110805 537112079 -291379622 304187088 977334645 -527250771 -1657421488 750018280 -1221591726 -109373995 146289950 -421433384 -1827975826 1844522303 -1179890984 -732132203 -1426618540 -88308275 -2054940255
REM
CELL 1.54180   50.00000   50.00000   50.00000   90.00000   90.00000   90.00000
LATT -1
SFAC C  
C      1  0.5534830000000  0.4908980000000  0.5246530000000 1.0
C      1  0.5190470000000  0.4808340000000  0.4930800000000 1.0
C      1  0.4544220000000  0.4699880000000  0.4773520000000 1.0
C      1  0.5656820000000  0.4033720000000  0.5060550000000 1.0
C      1  0.5477820000000  0.5318970000000  0.4463470000000 1.0
C      1  0.2865160000000  0.5506250000000  0.5178850000000 1.0
C      1  0.5310060000000  0.4387410000000  0.5651000000000 1.0
C      1  0.6019480000000  0.5409580000000  0.5118190000000 1.0
C      1  0.4075610000000  0.4994250000000  0.4932910000000 1.0
C      1  0.5455510000000  0.5386210000000  0.5432370000000 1.0
C      1  0.5163480000000  0.5720520000000  0.5243400000000 1.0
C      1  0.4638470000000  0.4725600000000  0.5257210000000 1.0
C      1  0.5468070000000  0.5183430000000  0.5235550000000 1.0
C      1  0.5266160000000  0.4210140000000  0.4351810000000 1.0
C      1  0.4741250000000  0.4577900000000  0.4599950000000 1.0
C      1  0.5196480000000  0.5512910000000  0.5433390000000 1.0
C      1  0.3345020000000  0.5303300000000  0.5081320000000 1.0
C      1  0.5741290000000  0.4650930000000  0.4680410000000 1.0
C      1  0.5607800000000  0.4549630000000  0.4911910000000 1.0
C      1  0.5638910000000  0.4284550000000  0.4992220000000 1.0
C      1  0.5698290000000  0.5494780000000  0.5529200000000 1.0
C      1  0.4776570000000  0.4845190000000  0.5471250000000 1.0
C      1  0.5654370000000  0.5107290000000  0.4524250000000 1.0
C      1  0.5391530000000  0.4699910000000  0.4349290000000 1.0
C      1  0.3824710000000  0.5100430000000  0.4983830000000 1.0
C      1  0.5596150000000  0.4827020000000  0.4503590000000 1.0
C      1  0.4750810000000  0.5038580000000  0.4548780000000 1.0
C      1  0.5719810000000  0.5602720000000  0.5784700000000 1.0
C      1  0.5917280000000  0.5485680000000  0.5352440000000 1.0
C      1  0.4840430000000  0.5119550000000  0.5482170000000 1.0
C      1  0.4857340000000  0.4679350000000  0.5688520000000 1.0
C      1  0.5733410000000  0.5704610000000  0.6024180000000 1.0
C      1  0.5318870000000  0.5248950000000  0.5003160000000 1.0
C      1  0.4189590000000  0.4779690000000  0.5081020000000 1.0
C      1  0.5272410000000  0.5714890000000  0.4734820000000 1.0
C      1  0.4702890000000  0.4663070000000  0.5913800000000 1.0
C      1  0.3584920000000  0.5201840000000  0.5032560000000 1.0
C      1  0.4248090000000  0.5087580000000  0.4726890000000 1.0
C      1  0.5364510000000  0.5547420000000  0.4546930000000 1.0
C      1  0.4827850000000  0.4314460000000  0.4573090000000 1.0
C      1  0.4493830000000  0.4971380000000  0.4658510000000 1.0
C      1  0.5435590000000  0.4724380000000  0.5052120000000 1.0
C      1  0.5127220000000  0.4795600000000  0.4333640000000 1.0
C      1  0.4457750000000  0.4687760000000  0.5045640000000 1.0
C      1  0.4871730000000  0.4793110000000  0.4446160000000 1.0
C      1  0.3105120000000  0.5404760000000  0.5130080000000 1.0
C      1  0.5999840000000  0.4580110000000  0.4624360000000 1.0
C      1  0.4928940000000  0.5180500000000  0.4712770000000 1.0
C      1  0.5417410000000  0.4423760000000  0.4290050000000 1.0
C      1  0.5029680000000  0.4170220000000  0.4472070000000 1.0
C      1  0.6006580000000  0.5297150000000  0.4877000000000 1.0
C      1  0.5885450000000  0.5184480000000  0.4668180000000 1.0
C      1  0.4977840000000  0.5348180000000  0.5504080000000 1.0
C      1  0.2629150000000  0.5606070000000  0.5226820000000 1.0
C      1  0.5095130000000  0.4533890000000  0.5667420000000 1.0
C      1  0.5133060000000  0.5082500000000  0.4877250000000 1.0
C      1  0.5198930000000  0.5780640000000  0.4984060000000 1.0
END
