TITL C-3866672-3872-544 -0.10119170999882 125000 -961.206275795877 0 0 159 (C1) n - 1
REM
REM in /home/nfs/bkarasulu/CARBON/AIRSS/Generating-Clusters/LCBOP/Only-C1/SD-CG/FIRE-CG
REM
REM
REM
REM
REM
REM ./C.cell (11c1c37f851c82e70ff6c80c92926a4b)
REM AIRSS Version 0.9.1 bugfix July 2018 build 013d7b7c2542+ Fri, 06 Jul 2018 19:26:36 +0100
REM compiler GCC version 9.2.1 20190827 (Red Hat 9.2.1-1)
REM options -cpp -mtune=generic -march=x86-64 -g -O0 -fpre-include=/usr/include/finclude/math-vector-fortran.h
REM seed 1052752442 1473689138 -718338109 471624052 -2083607989 519356635 -1825395240 -1770166403 1799285581 245792606 2120480478 52640717 -621750395 1147173925 -233457745 1742662916 1567050129 881491692 -1554883640 -115752328 1825155188 1498147654 -608365653 1133793254 1041187773 -606551687 -354971030 871251093 -1650279727 32681573 1268656080 702916098 233405144
REM
CELL 1.54180   50.00000   50.00000   50.00000   90.00000   90.00000   90.00000
LATT -1
SFAC C  
C      1  0.5030050000000  0.4080880000000  0.5574360000000 1.0
C      1  0.4903040000000  0.5919140000000  0.5498730000000 1.0
C      1  0.5496610000000  0.4908570000000  0.5197750000000 1.0
C      1  0.4540880000000  0.4233770000000  0.4153480000000 1.0
C      1  0.3965040000000  0.5449200000000  0.4137480000000 1.0
C      1  0.4678500000000  0.4894030000000  0.4772390000000 1.0
C      1  0.5188090000000  0.5121860000000  0.5904380000000 1.0
C      1  0.5675300000000  0.4629030000000  0.4176360000000 1.0
C      1  0.5604040000000  0.4399530000000  0.5159160000000 1.0
C      1  0.5756290000000  0.5163670000000  0.4373910000000 1.0
C      1  0.5454160000000  0.6128700000000  0.4564380000000 1.0
C      1  0.4652850000000  0.5636190000000  0.4291660000000 1.0
C      1  0.4351050000000  0.5410440000000  0.3856850000000 1.0
C      1  0.6815840000000  0.4523000000000  0.5288470000000 1.0
C      1  0.5362290000000  0.3887210000000  0.5210900000000 1.0
C      1  0.4598640000000  0.4726290000000  0.5210610000000 1.0
C      1  0.5437700000000  0.5293770000000  0.5859420000000 1.0
C      1  0.5171800000000  0.5522470000000  0.6152060000000 1.0
C      1  0.3978070000000  0.4719100000000  0.5676310000000 1.0
C      1  0.5013630000000  0.6228580000000  0.5000090000000 1.0
C      1  0.4568460000000  0.6230600000000  0.4881980000000 1.0
C      1  0.4454440000000  0.4491160000000  0.5603920000000 1.0
C      1  0.4520150000000  0.5100220000000  0.5729220000000 1.0
C      1  0.5267540000000  0.3811420000000  0.4637400000000 1.0
C      1  0.5367920000000  0.4055100000000  0.4745280000000 1.0
C      1  0.4622290000000  0.4596760000000  0.5822610000000 1.0
C      1  0.4275970000000  0.5590640000000  0.5432290000000 1.0
C      1  0.4508690000000  0.4213310000000  0.5558270000000 1.0
C      1  0.3706940000000  0.5439650000000  0.4172370000000 1.0
C      1  0.5217790000000  0.4836540000000  0.4832810000000 1.0
C      1  0.4999960000000  0.6262410000000  0.4707370000000 1.0
C      1  0.4156460000000  0.4632360000000  0.4599090000000 1.0
C      1  0.4153420000000  0.5157520000000  0.4636090000000 1.0
C      1  0.6036270000000  0.5877140000000  0.5001380000000 1.0
C      1  0.4510250000000  0.4039910000000  0.5101480000000 1.0
C      1  0.4487520000000  0.5726510000000  0.5260760000000 1.0
C      1  0.5375620000000  0.3938950000000  0.4170220000000 1.0
C      1  0.4580740000000  0.5497520000000  0.5093080000000 1.0
C      1  0.5414870000000  0.4475490000000  0.5847300000000 1.0
C      1  0.4413030000000  0.5494950000000  0.4330530000000 1.0
C      1  0.4510450000000  0.4154970000000  0.4851070000000 1.0
C      1  0.5285970000000  0.5318420000000  0.4401150000000 1.0
C      1  0.5689050000000  0.5343580000000  0.5006490000000 1.0
C      1  0.4716010000000  0.6301420000000  0.4658780000000 1.0
C      1  0.5125420000000  0.4262870000000  0.5124240000000 1.0
C      1  0.5364510000000  0.5579430000000  0.5942350000000 1.0
C      1  0.5710840000000  0.5076720000000  0.5086840000000 1.0
C      1  0.4801560000000  0.4404810000000  0.6243610000000 1.0
C      1  0.4526280000000  0.4013410000000  0.4607790000000 1.0
C      1  0.4097420000000  0.4852980000000  0.5444200000000 1.0
C      1  0.4599610000000  0.4487750000000  0.6084590000000 1.0
C      1  0.5688220000000  0.4820440000000  0.3963620000000 1.0
C      1  0.5914270000000  0.4948390000000  0.4480990000000 1.0
C      1  0.5163130000000  0.5680130000000  0.4991490000000 1.0
C      1  0.5445960000000  0.4458800000000  0.4146810000000 1.0
C      1  0.5538580000000  0.5876580000000  0.5272870000000 1.0
C      1  0.4941650000000  0.3965690000000  0.4389730000000 1.0
C      1  0.4531270000000  0.5397700000000  0.4824470000000 1.0
C      1  0.5807800000000  0.4682450000000  0.4430750000000 1.0
C      1  0.5090080000000  0.5436960000000  0.4582100000000 1.0
C      1  0.4936360000000  0.4552060000000  0.4033370000000 1.0
C      1  0.4817310000000  0.4796680000000  0.3938360000000 1.0
C      1  0.5068170000000  0.4380560000000  0.6224930000000 1.0
C      1  0.4770130000000  0.4891230000000  0.5356660000000 1.0
C      1  0.6328130000000  0.4717530000000  0.5264500000000 1.0
C      1  0.5664310000000  0.5255530000000  0.5681730000000 1.0
C      1  0.4645610000000  0.4153220000000  0.5314560000000 1.0
C      1  0.4743350000000  0.6148130000000  0.5097610000000 1.0
C      1  0.4904070000000  0.5454430000000  0.5479570000000 1.0
C      1  0.5248690000000  0.5056630000000  0.3974200000000 1.0
C      1  0.4133420000000  0.5668680000000  0.4688960000000 1.0
C      1  0.5911020000000  0.5989180000000  0.4792460000000 1.0
C      1  0.4870930000000  0.4734100000000  0.5791120000000 1.0
C      1  0.5160660000000  0.4794330000000  0.4364240000000 1.0
C      1  0.4794910000000  0.4352260000000  0.4168040000000 1.0
C      1  0.5437490000000  0.4985120000000  0.4713500000000 1.0
C      1  0.4869140000000  0.3992410000000  0.5776670000000 1.0
C      1  0.5035070000000  0.3738490000000  0.4810520000000 1.0
C      1  0.5963600000000  0.4953890000000  0.5017840000000 1.0
C      1  0.4097090000000  0.5383090000000  0.5291170000000 1.0
C      1  0.5814760000000  0.5015920000000  0.5634510000000 1.0
C      1  0.4939480000000  0.4251850000000  0.4392760000000 1.0
C      1  0.5191270000000  0.5061150000000  0.4264210000000 1.0
C      1  0.5368230000000  0.5455060000000  0.5372370000000 1.0
C      1  0.6037040000000  0.4972690000000  0.4742130000000 1.0
C      1  0.6070320000000  0.4816760000000  0.5244620000000 1.0
C      1  0.5175630000000  0.6134200000000  0.4526560000000 1.0
C      1  0.5637520000000  0.4111270000000  0.4784810000000 1.0
C      1  0.4212270000000  0.4386900000000  0.4460140000000 1.0
C      1  0.4775390000000  0.3856610000000  0.4596580000000 1.0
C      1  0.4092450000000  0.4590740000000  0.4872230000000 1.0
C      1  0.5606670000000  0.4656380000000  0.5347770000000 1.0
C      1  0.4326840000000  0.4654900000000  0.5349510000000 1.0
C      1  0.4105030000000  0.5252610000000  0.5732130000000 1.0
C      1  0.4930810000000  0.4184370000000  0.5322160000000 1.0
C      1  0.5758530000000  0.5710430000000  0.5377480000000 1.0
C      1  0.5025530000000  0.5228550000000  0.5026760000000 1.0
C      1  0.3978350000000  0.5394860000000  0.5035720000000 1.0
C      1  0.5067570000000  0.5451980000000  0.4861160000000 1.0
C      1  0.5046690000000  0.4400320000000  0.4622190000000 1.0
C      1  0.5193680000000  0.4593550000000  0.4157320000000 1.0
C      1  0.5015010000000  0.4978020000000  0.3830940000000 1.0
C      1  0.5319880000000  0.5821760000000  0.5790060000000 1.0
C      1  0.5789690000000  0.4532990000000  0.4673200000000 1.0
C      1  0.4601050000000  0.4047010000000  0.5771820000000 1.0
C      1  0.5080610000000  0.4979950000000  0.5420890000000 1.0
C      1  0.5081530000000  0.4915220000000  0.5725680000000 1.0
C      1  0.4720090000000  0.5334330000000  0.5290580000000 1.0
C      1  0.4263290000000  0.5029040000000  0.5851110000000 1.0
C      1  0.5107310000000  0.4680950000000  0.4622050000000 1.0
C      1  0.4387250000000  0.4907170000000  0.4258380000000 1.0
C      1  0.4221600000000  0.4901890000000  0.4494220000000 1.0
C      1  0.4618230000000  0.5108550000000  0.5456580000000 1.0
C      1  0.5653670000000  0.5270540000000  0.4116180000000 1.0
C      1  0.5542100000000  0.5063560000000  0.3945890000000 1.0
C      1  0.4694030000000  0.5950450000000  0.5293950000000 1.0
C      1  0.5155500000000  0.3744030000000  0.5079990000000 1.0
C      1  0.4574380000000  0.4877150000000  0.4065510000000 1.0
C      1  0.4854610000000  0.5807050000000  0.4262830000000 1.0
C      1  0.5197740000000  0.3841480000000  0.4361920000000 1.0
C      1  0.4242980000000  0.5448050000000  0.4105840000000 1.0
C      1  0.5470180000000  0.4570220000000  0.5604280000000 1.0
C      1  0.4664310000000  0.5156800000000  0.4751990000000 1.0
C      1  0.5444120000000  0.5468160000000  0.4182940000000 1.0
C      1  0.4836930000000  0.5678020000000  0.5638500000000 1.0
C      1  0.4057860000000  0.5146630000000  0.5455020000000 1.0
C      1  0.5715370000000  0.4364730000000  0.4887490000000 1.0
C      1  0.5474890000000  0.6144570000000  0.5231080000000 1.0
C      1  0.5332140000000  0.5688110000000  0.5210310000000 1.0
C      1  0.4544390000000  0.5366750000000  0.5849860000000 1.0
C      1  0.5013440000000  0.5290170000000  0.6083480000000 1.0
C      1  0.4752650000000  0.5743580000000  0.5891740000000 1.0
C      1  0.5619850000000  0.5430630000000  0.4762160000000 1.0
C      1  0.5701220000000  0.6072880000000  0.4649270000000 1.0
C      1  0.5870180000000  0.4791680000000  0.5454040000000 1.0
C      1  0.4589340000000  0.4422570000000  0.4839840000000 1.0
C      1  0.5051850000000  0.5971980000000  0.4332770000000 1.0
C      1  0.5196150000000  0.4960060000000  0.5121770000000 1.0
C      1  0.4737140000000  0.5339120000000  0.6055620000000 1.0
C      1  0.4311530000000  0.5438470000000  0.4609400000000 1.0
C      1  0.6000430000000  0.5759650000000  0.5241840000000 1.0
C      1  0.4300670000000  0.5494220000000  0.5719010000000 1.0
C      1  0.5398260000000  0.4183880000000  0.5218310000000 1.0
C      1  0.5159440000000  0.5980000000000  0.5626720000000 1.0
C      1  0.5529030000000  0.5228660000000  0.4570560000000 1.0
C      1  0.4634190000000  0.4676270000000  0.4937380000000 1.0
C      1  0.4394400000000  0.4173640000000  0.4391210000000 1.0
C      1  0.5143990000000  0.5308370000000  0.5456040000000 1.0
C      1  0.3970110000000  0.5644340000000  0.4903060000000 1.0
C      1  0.5642880000000  0.5457140000000  0.5479440000000 1.0
C      1  0.6573940000000  0.4619500000000  0.5276820000000 1.0
C      1  0.5159780000000  0.4246670000000  0.4833350000000 1.0
C      1  0.5253030000000  0.6264630000000  0.5139400000000 1.0
C      1  0.5465260000000  0.4182860000000  0.4105230000000 1.0
C      1  0.5284760000000  0.4409450000000  0.6070810000000 1.0
C      1  0.4104420000000  0.4802360000000  0.5904680000000 1.0
C      1  0.3738260000000  0.5005500000000  0.4863600000000 1.0
C      1  0.3957340000000  0.5169550000000  0.4854120000000 1.0
C      1  0.4171890000000  0.4523230000000  0.5120030000000 1.0
END
