TITL C-3866670-4165-80 -3.51298262818848e-07 125000 -803.36473909137 0 0 132 (C1) n - 1
REM
REM in /home/nfs/bkarasulu/CARBON/AIRSS/Generating-Clusters/LCBOP/Only-C1/SD-CG/HFTN-CG/FIRE-CG
REM
REM
REM
REM
REM
REM ./C.cell (11c1c37f851c82e70ff6c80c92926a4b)
REM AIRSS Version 0.9.1 bugfix July 2018 build 013d7b7c2542+ Fri, 06 Jul 2018 19:26:36 +0100
REM compiler GCC version 9.2.1 20190827 (Red Hat 9.2.1-1)
REM options -cpp -mtune=generic -march=x86-64 -g -O0 -fpre-include=/usr/include/finclude/math-vector-fortran.h
REM seed -104154561 164741849 -958014014 -394608572 1375242060 427424141 1545677636 78193606 -475716132 -1767794671 -1985116819 -344305826 -1700772613 -263000897 19383407 1091509928 -1232514061 50878773 -1737335572 -1226054774 1966863660 175885302 2113277380 1689649677 -1485155840 1440649328 1255662404 317187532 -541610082 -1377774076 -775189474 431372878 693838831
REM
CELL 1.54180   50.00000   50.00000   50.00000   90.00000   90.00000   90.00000
LATT -1
SFAC C  
C      1  0.5382390000000  0.5176450000000  0.6069520000000 1.0
C      1  0.4722490000000  0.5001870000000  0.4284310000000 1.0
C      1  0.5182870000000  0.3876760000000  0.5482010000000 1.0
C      1  0.4821360000000  0.5706780000000  0.4655550000000 1.0
C      1  0.4918280000000  0.5938690000000  0.5384670000000 1.0
C      1  0.4019300000000  0.5438640000000  0.5555480000000 1.0
C      1  0.4871470000000  0.4942850000000  0.5662340000000 1.0
C      1  0.4698490000000  0.4970840000000  0.5888980000000 1.0
C      1  0.4963480000000  0.4464100000000  0.5433230000000 1.0
C      1  0.5360950000000  0.4099210000000  0.5056160000000 1.0
C      1  0.5408420000000  0.4980690000000  0.4724130000000 1.0
C      1  0.5311140000000  0.5647860000000  0.5942300000000 1.0
C      1  0.4582160000000  0.4238700000000  0.5574990000000 1.0
C      1  0.4425310000000  0.5744290000000  0.5494680000000 1.0
C      1  0.5013630000000  0.5213710000000  0.5617040000000 1.0
C      1  0.5431110000000  0.4412220000000  0.4250460000000 1.0
C      1  0.5394060000000  0.3990940000000  0.5328420000000 1.0
C      1  0.6056620000000  0.5425430000000  0.5724800000000 1.0
C      1  0.4236820000000  0.5552440000000  0.5407420000000 1.0
C      1  0.4962900000000  0.5336190000000  0.5895100000000 1.0
C      1  0.4854990000000  0.5421130000000  0.4669390000000 1.0
C      1  0.5368780000000  0.5567040000000  0.5078450000000 1.0
C      1  0.4872490000000  0.4942760000000  0.3773820000000 1.0
C      1  0.5109460000000  0.5483760000000  0.5194300000000 1.0
C      1  0.4342310000000  0.5176790000000  0.4494640000000 1.0
C      1  0.5321820000000  0.5004110000000  0.5304140000000 1.0
C      1  0.3999650000000  0.5485590000000  0.5835180000000 1.0
C      1  0.4838840000000  0.5030320000000  0.4993850000000 1.0
C      1  0.4083830000000  0.4752440000000  0.4878390000000 1.0
C      1  0.4713330000000  0.4010160000000  0.5687690000000 1.0
C      1  0.3831750000000  0.5029270000000  0.5227340000000 1.0
C      1  0.4637070000000  0.6002100000000  0.4987600000000 1.0
C      1  0.4490160000000  0.4646760000000  0.3909260000000 1.0
C      1  0.4241240000000  0.5639680000000  0.4471820000000 1.0
C      1  0.5194630000000  0.4367380000000  0.4364400000000 1.0
C      1  0.4745450000000  0.4305310000000  0.5341720000000 1.0
C      1  0.4487820000000  0.5594680000000  0.3931080000000 1.0
C      1  0.6094340000000  0.5151510000000  0.5325430000000 1.0
C      1  0.4776900000000  0.4094000000000  0.4899050000000 1.0
C      1  0.5511770000000  0.4968160000000  0.5956790000000 1.0
C      1  0.6134350000000  0.5501040000000  0.5961760000000 1.0
C      1  0.5197670000000  0.5299170000000  0.3939590000000 1.0
C      1  0.4273700000000  0.5396010000000  0.4321790000000 1.0
C      1  0.4669670000000  0.5856650000000  0.5501930000000 1.0
C      1  0.6012680000000  0.4625200000000  0.4867940000000 1.0
C      1  0.5331920000000  0.3758410000000  0.4705380000000 1.0
C      1  0.5823520000000  0.5484320000000  0.4919410000000 1.0
C      1  0.5696080000000  0.5422060000000  0.5397910000000 1.0
C      1  0.5300060000000  0.5186190000000  0.5527850000000 1.0
C      1  0.4329320000000  0.4686500000000  0.5496870000000 1.0
C      1  0.5512250000000  0.4344480000000  0.5035360000000 1.0
C      1  0.4352680000000  0.4550470000000  0.4163840000000 1.0
C      1  0.5612370000000  0.4176070000000  0.5437700000000 1.0
C      1  0.5460180000000  0.5425790000000  0.5552750000000 1.0
C      1  0.5936570000000  0.4768770000000  0.5841140000000 1.0
C      1  0.5204730000000  0.5558240000000  0.4374890000000 1.0
C      1  0.5425560000000  0.3547950000000  0.4583540000000 1.0
C      1  0.4229000000000  0.5448210000000  0.5994060000000 1.0
C      1  0.5631290000000  0.5297120000000  0.4254960000000 1.0
C      1  0.4486390000000  0.4413550000000  0.3733480000000 1.0
C      1  0.5663400000000  0.4544440000000  0.4256780000000 1.0
C      1  0.4340470000000  0.5683670000000  0.4740310000000 1.0
C      1  0.5755560000000  0.4282060000000  0.5197860000000 1.0
C      1  0.4806950000000  0.4760850000000  0.4868780000000 1.0
C      1  0.4314230000000  0.5447490000000  0.4911020000000 1.0
C      1  0.4717770000000  0.5154450000000  0.5240030000000 1.0
C      1  0.5387350000000  0.5780830000000  0.4898330000000 1.0
C      1  0.5373810000000  0.5236040000000  0.4706260000000 1.0
C      1  0.4311410000000  0.5389830000000  0.5188300000000 1.0
C      1  0.5874220000000  0.5513630000000  0.4659020000000 1.0
C      1  0.3870930000000  0.5235760000000  0.5420560000000 1.0
C      1  0.4901560000000  0.4728220000000  0.5494430000000 1.0
C      1  0.5559440000000  0.4658300000000  0.5558520000000 1.0
C      1  0.4412120000000  0.5126360000000  0.3905530000000 1.0
C      1  0.4477570000000  0.5376450000000  0.6057950000000 1.0
C      1  0.4289730000000  0.4895950000000  0.5305910000000 1.0
C      1  0.5086700000000  0.5796150000000  0.4541550000000 1.0
C      1  0.5163530000000  0.5851830000000  0.5513480000000 1.0
C      1  0.5713490000000  0.5022250000000  0.4281220000000 1.0
C      1  0.5130480000000  0.5019610000000  0.5091460000000 1.0
C      1  0.5022860000000  0.4357690000000  0.4584330000000 1.0
C      1  0.4891660000000  0.4584140000000  0.4687440000000 1.0
C      1  0.5373690000000  0.5405450000000  0.4162540000000 1.0
C      1  0.4174820000000  0.4669630000000  0.4637030000000 1.0
C      1  0.4095730000000  0.4161190000000  0.5056640000000 1.0
C      1  0.3763980000000  0.5567720000000  0.5946750000000 1.0
C      1  0.4927040000000  0.5393810000000  0.4002940000000 1.0
C      1  0.3580370000000  0.4974450000000  0.5133840000000 1.0
C      1  0.5085500000000  0.6125540000000  0.4926440000000 1.0
C      1  0.5189150000000  0.4366150000000  0.5571700000000 1.0
C      1  0.4279180000000  0.4274340000000  0.4111550000000 1.0
C      1  0.5127200000000  0.5052440000000  0.3799550000000 1.0
C      1  0.4756540000000  0.5589950000000  0.3903470000000 1.0
C      1  0.4715460000000  0.5218310000000  0.4794220000000 1.0
C      1  0.4628650000000  0.4214970000000  0.5099800000000 1.0
C      1  0.6455180000000  0.4805010000000  0.4778740000000 1.0
C      1  0.5472260000000  0.4386870000000  0.5584080000000 1.0
C      1  0.4361050000000  0.4199430000000  0.3857570000000 1.0
C      1  0.4948000000000  0.3887130000000  0.5618470000000 1.0
C      1  0.6190480000000  0.4729990000000  0.5885150000000 1.0
C      1  0.6187430000000  0.4989480000000  0.5136390000000 1.0
C      1  0.4466070000000  0.4949820000000  0.4385270000000 1.0
C      1  0.5793660000000  0.5473280000000  0.4407210000000 1.0
C      1  0.5219670000000  0.5944580000000  0.4751100000000 1.0
C      1  0.4710540000000  0.5236940000000  0.5999960000000 1.0
C      1  0.5487490000000  0.4627560000000  0.5051300000000 1.0
C      1  0.5637170000000  0.5471760000000  0.5128630000000 1.0
C      1  0.4392980000000  0.4448170000000  0.5613770000000 1.0
C      1  0.4327240000000  0.4705160000000  0.4398150000000 1.0
C      1  0.5235880000000  0.3986390000000  0.4832240000000 1.0
C      1  0.4589110000000  0.5824230000000  0.4774380000000 1.0
C      1  0.5803650000000  0.4716650000000  0.4685380000000 1.0
C      1  0.6224630000000  0.4807680000000  0.4925330000000 1.0
C      1  0.4348070000000  0.5373450000000  0.4041700000000 1.0
C      1  0.5009180000000  0.5347820000000  0.4449960000000 1.0
C      1  0.4432880000000  0.5235810000000  0.4756240000000 1.0
C      1  0.4868460000000  0.5234950000000  0.4236740000000 1.0
C      1  0.5206850000000  0.5398430000000  0.6031140000000 1.0
C      1  0.5664090000000  0.4801500000000  0.5783610000000 1.0
C      1  0.4904450000000  0.5338530000000  0.5361000000000 1.0
C      1  0.4886250000000  0.6054340000000  0.5117740000000 1.0
C      1  0.5971010000000  0.4410340000000  0.5060240000000 1.0
C      1  0.5338390000000  0.5671310000000  0.5658610000000 1.0
C      1  0.5950120000000  0.5333220000000  0.5483840000000 1.0
C      1  0.4590430000000  0.4906290000000  0.3843990000000 1.0
C      1  0.5005340000000  0.4123030000000  0.4743480000000 1.0
C      1  0.5481620000000  0.4771640000000  0.5304870000000 1.0
C      1  0.5557730000000  0.4770430000000  0.4820270000000 1.0
C      1  0.4058730000000  0.4878430000000  0.5133170000000 1.0
C      1  0.4438980000000  0.5140370000000  0.5269170000000 1.0
C      1  0.4349870000000  0.4218020000000  0.5069580000000 1.0
C      1  0.5772600000000  0.4764270000000  0.4397840000000 1.0
END
