TITL C-3866673-4222-469 0.0211978960769054 125000 -907.22864400411 0 0 149 (C1) n - 1
REM
REM in /home/nfs/bkarasulu/CARBON/AIRSS/Generating-Clusters/LCBOP/Only-C1/SD-CG/FIRE-CG
REM
REM
REM
REM
REM
REM ./C.cell (11c1c37f851c82e70ff6c80c92926a4b)
REM AIRSS Version 0.9.1 bugfix July 2018 build 013d7b7c2542+ Fri, 06 Jul 2018 19:26:36 +0100
REM compiler GCC version 9.2.1 20190827 (Red Hat 9.2.1-1)
REM options -cpp -mtune=generic -march=x86-64 -g -O0 -fpre-include=/usr/include/finclude/math-vector-fortran.h
REM seed -1446786954 818114972 77806375 -759051921 1647238426 1893997876 -1489872735 -2015059143 -1768911036 1184940369 2134955136 103483458 1413753784 442301073 1968469225 2068174056 393667323 -1500921641 -854634303 775393298 1542791568 -631479628 843110894 -884408164 135228871 -529235279 638088835 -1329403448 187665643 1533304607 880487780 -372596078 -230298773
REM
CELL 1.54180   50.00000   50.00000   50.00000   90.00000   90.00000   90.00000
LATT -1
SFAC C  
C      1  0.5501710000000  0.4581090000000  0.4192150000000 1.0
C      1  0.4095270000000  0.4696760000000  0.4710630000000 1.0
C      1  0.5398810000000  0.5703960000000  0.5469260000000 1.0
C      1  0.4839780000000  0.5447760000000  0.5941810000000 1.0
C      1  0.4832510000000  0.4258520000000  0.4899600000000 1.0
C      1  0.4399220000000  0.6232720000000  0.5433300000000 1.0
C      1  0.5834710000000  0.4523990000000  0.5090030000000 1.0
C      1  0.5876040000000  0.5114400000000  0.4199940000000 1.0
C      1  0.4013140000000  0.5802000000000  0.4786590000000 1.0
C      1  0.4334630000000  0.4353790000000  0.4962110000000 1.0
C      1  0.4753570000000  0.5100140000000  0.5007920000000 1.0
C      1  0.4578970000000  0.4076490000000  0.4258860000000 1.0
C      1  0.4795890000000  0.5213300000000  0.5270810000000 1.0
C      1  0.4784280000000  0.5851770000000  0.4669910000000 1.0
C      1  0.5564910000000  0.4773050000000  0.4763860000000 1.0
C      1  0.5316750000000  0.5373970000000  0.4841220000000 1.0
C      1  0.4749310000000  0.5961090000000  0.5659980000000 1.0
C      1  0.5132960000000  0.4656390000000  0.5295250000000 1.0
C      1  0.5064760000000  0.3621780000000  0.5142630000000 1.0
C      1  0.3732560000000  0.5573780000000  0.5164560000000 1.0
C      1  0.4761570000000  0.4875150000000  0.4564210000000 1.0
C      1  0.4768470000000  0.4527430000000  0.4235750000000 1.0
C      1  0.3776000000000  0.5381240000000  0.5348930000000 1.0
C      1  0.4662290000000  0.3753470000000  0.5350660000000 1.0
C      1  0.4644530000000  0.5402800000000  0.4591730000000 1.0
C      1  0.5433740000000  0.5920290000000  0.4691060000000 1.0
C      1  0.6030110000000  0.5013380000000  0.5048480000000 1.0
C      1  0.4607090000000  0.4410730000000  0.4995940000000 1.0
C      1  0.4622620000000  0.5316860000000  0.4318610000000 1.0
C      1  0.5427020000000  0.4745310000000  0.5669990000000 1.0
C      1  0.4535060000000  0.4350180000000  0.4236140000000 1.0
C      1  0.4520700000000  0.6179720000000  0.4932180000000 1.0
C      1  0.4418710000000  0.5123940000000  0.4303460000000 1.0
C      1  0.5083810000000  0.4784000000000  0.6016870000000 1.0
C      1  0.4781170000000  0.5899700000000  0.5361930000000 1.0
C      1  0.4311800000000  0.5314010000000  0.4919270000000 1.0
C      1  0.5161270000000  0.5748330000000  0.5087940000000 1.0
C      1  0.5264210000000  0.5254510000000  0.3931160000000 1.0
C      1  0.5027820000000  0.5909270000000  0.5758590000000 1.0
C      1  0.4852280000000  0.5263780000000  0.4144960000000 1.0
C      1  0.3875240000000  0.4880500000000  0.4717590000000 1.0
C      1  0.5211050000000  0.4986130000000  0.4445190000000 1.0
C      1  0.4221200000000  0.6010190000000  0.5465410000000 1.0
C      1  0.4435320000000  0.4453950000000  0.6157230000000 1.0
C      1  0.6446720000000  0.4898260000000  0.6073890000000 1.0
C      1  0.5610330000000  0.5343730000000  0.4813230000000 1.0
C      1  0.5958870000000  0.5709330000000  0.4702140000000 1.0
C      1  0.5401460000000  0.5875320000000  0.5207500000000 1.0
C      1  0.4459430000000  0.6298760000000  0.5165200000000 1.0
C      1  0.4615900000000  0.5409870000000  0.5351330000000 1.0
C      1  0.5098310000000  0.5428180000000  0.5812400000000 1.0
C      1  0.5444360000000  0.3776300000000  0.4625060000000 1.0
C      1  0.4953740000000  0.4370440000000  0.4654380000000 1.0
C      1  0.5495240000000  0.4980360000000  0.5263610000000 1.0
C      1  0.5742480000000  0.4571340000000  0.4345200000000 1.0
C      1  0.5576150000000  0.5900610000000  0.4954380000000 1.0
C      1  0.3967640000000  0.4959120000000  0.5219650000000 1.0
C      1  0.4423720000000  0.4751900000000  0.4024730000000 1.0
C      1  0.3715770000000  0.4929630000000  0.4502220000000 1.0
C      1  0.5381040000000  0.4572930000000  0.4894810000000 1.0
C      1  0.4911880000000  0.5842640000000  0.5142870000000 1.0
C      1  0.4677500000000  0.4282480000000  0.5776970000000 1.0
C      1  0.4266460000000  0.5846690000000  0.4707540000000 1.0
C      1  0.5565100000000  0.5221050000000  0.5398720000000 1.0
C      1  0.4281790000000  0.4697610000000  0.4493320000000 1.0
C      1  0.4863970000000  0.4602260000000  0.5371910000000 1.0
C      1  0.4361670000000  0.5302350000000  0.5804480000000 1.0
C      1  0.4531900000000  0.5756600000000  0.5739390000000 1.0
C      1  0.4657830000000  0.4454990000000  0.5998470000000 1.0
C      1  0.6189050000000  0.4900900000000  0.4844910000000 1.0
C      1  0.4064810000000  0.4396040000000  0.5660370000000 1.0
C      1  0.5144060000000  0.3893490000000  0.5102730000000 1.0
C      1  0.4523990000000  0.5950900000000  0.4761100000000 1.0
C      1  0.6007440000000  0.5809780000000  0.5174560000000 1.0
C      1  0.5106860000000  0.5421330000000  0.4110840000000 1.0
C      1  0.4924570000000  0.4077560000000  0.5108340000000 1.0
C      1  0.4329630000000  0.5502040000000  0.5383740000000 1.0
C      1  0.4753850000000  0.3878710000000  0.4303390000000 1.0
C      1  0.5943250000000  0.4729500000000  0.5251770000000 1.0
C      1  0.5189400000000  0.4962630000000  0.3967220000000 1.0
C      1  0.5669510000000  0.5036080000000  0.4025300000000 1.0
C      1  0.4318710000000  0.5756060000000  0.5539850000000 1.0
C      1  0.5451220000000  0.4825290000000  0.4042160000000 1.0
C      1  0.5233540000000  0.3732060000000  0.4465880000000 1.0
C      1  0.5541080000000  0.3873240000000  0.4857040000000 1.0
C      1  0.5999310000000  0.5452930000000  0.5533210000000 1.0
C      1  0.4570810000000  0.5500190000000  0.5867600000000 1.0
C      1  0.5178350000000  0.4289300000000  0.4496220000000 1.0
C      1  0.6071360000000  0.5667420000000  0.5390940000000 1.0
C      1  0.5598810000000  0.4950980000000  0.5004150000000 1.0
C      1  0.4321960000000  0.4553010000000  0.4236740000000 1.0
C      1  0.5130960000000  0.4691420000000  0.5003350000000 1.0
C      1  0.4841310000000  0.4599160000000  0.4505960000000 1.0
C      1  0.5229300000000  0.6116370000000  0.4676060000000 1.0
C      1  0.5978380000000  0.5309670000000  0.4353750000000 1.0
C      1  0.5342000000000  0.4796920000000  0.5403790000000 1.0
C      1  0.5543850000000  0.5259050000000  0.3889690000000 1.0
C      1  0.4320360000000  0.5014840000000  0.4062670000000 1.0
C      1  0.4972650000000  0.6057230000000  0.4625760000000 1.0
C      1  0.5853650000000  0.5823630000000  0.4940410000000 1.0
C      1  0.5137180000000  0.5161190000000  0.5704180000000 1.0
C      1  0.5413640000000  0.3975360000000  0.5089320000000 1.0
C      1  0.5641360000000  0.4547760000000  0.5615810000000 1.0
C      1  0.4162550000000  0.4579770000000  0.4966160000000 1.0
C      1  0.4238810000000  0.4101010000000  0.4925880000000 1.0
C      1  0.4091280000000  0.4701130000000  0.5221590000000 1.0
C      1  0.4725700000000  0.4748070000000  0.4045820000000 1.0
C      1  0.5252950000000  0.5607920000000  0.4276400000000 1.0
C      1  0.4608480000000  0.6229380000000  0.5634720000000 1.0
C      1  0.5312280000000  0.4390180000000  0.4282950000000 1.0
C      1  0.6002430000000  0.5526050000000  0.4510730000000 1.0
C      1  0.4762590000000  0.4022410000000  0.5351460000000 1.0
C      1  0.5406190000000  0.5733890000000  0.4466940000000 1.0
C      1  0.4986760000000  0.3764310000000  0.4367950000000 1.0
C      1  0.5206330000000  0.5688310000000  0.5701560000000 1.0
C      1  0.5790500000000  0.5154710000000  0.4949030000000 1.0
C      1  0.5897280000000  0.4672450000000  0.5532830000000 1.0
C      1  0.4474090000000  0.4917000000000  0.4502290000000 1.0
C      1  0.6092080000000  0.4731030000000  0.5723930000000 1.0
C      1  0.4691130000000  0.4636410000000  0.5142320000000 1.0
C      1  0.4865990000000  0.5569950000000  0.4650030000000 1.0
C      1  0.5510290000000  0.4207860000000  0.5229520000000 1.0
C      1  0.4838090000000  0.4129190000000  0.5606380000000 1.0
C      1  0.3821080000000  0.5718050000000  0.4955230000000 1.0
C      1  0.4982200000000  0.5081050000000  0.4577300000000 1.0
C      1  0.4567950000000  0.5248530000000  0.4826680000000 1.0
C      1  0.3837250000000  0.5005510000000  0.4968960000000 1.0
C      1  0.4982940000000  0.5128030000000  0.5463760000000 1.0
C      1  0.5073820000000  0.5355040000000  0.4681200000000 1.0
C      1  0.4824610000000  0.3555930000000  0.5254180000000 1.0
C      1  0.5361160000000  0.4142470000000  0.5684060000000 1.0
C      1  0.5537010000000  0.4283580000000  0.5513540000000 1.0
C      1  0.5808690000000  0.4660740000000  0.4607800000000 1.0
C      1  0.5573620000000  0.4417290000000  0.5052500000000 1.0
C      1  0.4901940000000  0.4976720000000  0.4036490000000 1.0
C      1  0.6076210000000  0.4730420000000  0.4667730000000 1.0
C      1  0.5101620000000  0.4082360000000  0.5695310000000 1.0
C      1  0.5249520000000  0.5474580000000  0.5095460000000 1.0
C      1  0.3969590000000  0.5177200000000  0.5413230000000 1.0
C      1  0.5249070000000  0.4915500000000  0.5830090000000 1.0
C      1  0.5402290000000  0.5437420000000  0.5338540000000 1.0
C      1  0.5441580000000  0.4925900000000  0.4550210000000 1.0
C      1  0.4853870000000  0.4828940000000  0.4981040000000 1.0
C      1  0.4230550000000  0.5483500000000  0.5109810000000 1.0
C      1  0.4108550000000  0.4554680000000  0.5458340000000 1.0
C      1  0.5803670000000  0.5270330000000  0.5537110000000 1.0
C      1  0.6271560000000  0.4811990000000  0.5901160000000 1.0
C      1  0.4873510000000  0.4625490000000  0.6057480000000 1.0
C      1  0.4202010000000  0.5281260000000  0.5558380000000 1.0
END
