TITL C-3866670-4165-756 396516.366839101 125000 -676.012054840663 0 0 112 (C1) n - 1
REM
REM in /home/nfs/bkarasulu/CARBON/AIRSS/Generating-Clusters/LCBOP/Only-C1/SD-CG/FIRE-CG
REM
REM
REM
REM
REM
REM ./C.cell (11c1c37f851c82e70ff6c80c92926a4b)
REM AIRSS Version 0.9.1 bugfix July 2018 build 013d7b7c2542+ Fri, 06 Jul 2018 19:26:36 +0100
REM compiler GCC version 9.2.1 20190827 (Red Hat 9.2.1-1)
REM options -cpp -mtune=generic -march=x86-64 -g -O0 -fpre-include=/usr/include/finclude/math-vector-fortran.h
REM seed 898797584 2048204 -1113576947 -1956810979 -897328376 -389670631 1406392893 -466477996 -237632265 978200600 -1111890268 -1213116660 -102009561 -808301461 -1584895862 1070920562 -1352658643 1748153734 1779230437 1558639952 262802414 545320791 748462314 1883411986 460465364 73192762 -127608749 -554393068 1648489023 -1905106055 912471491 -1936133658 -1621920801
REM
CELL 1.54180   50.00000   50.00000   50.00000   90.00000   90.00000   90.00000
LATT -1
SFAC C  
C      1  0.5944170000000  0.5131730000000  0.5076130000000 1.0
C      1  0.5691210000000  0.4851150000000  0.6009430000000 1.0
C      1  0.4788540000000  0.4125800000000  0.4793490000000 1.0
C      1  0.4768550000000  0.4758380000000  0.5136310000000 1.0
C      1  0.4961750000000  0.5175310000000  0.4699540000000 1.0
C      1  0.4194910000000  0.4611810000000  0.5449340000000 1.0
C      1  0.4752930000000  0.4309890000000  0.5014680000000 1.0
C      1  0.5534780000000  0.3518890000000  0.5071620000000 1.0
C      1  0.4484260000000  0.5680160000000  0.5446150000000 1.0
C      1  0.6026450000000  0.4895970000000  0.5210570000000 1.0
C      1  0.5324920000000  0.5939080000000  0.4935620000000 1.0
C      1  0.4088350000000  0.4990560000000  0.4843970000000 1.0
C      1  0.5475920000000  0.5542000000000  0.5700040000000 1.0
C      1  0.5379740000000  0.4587900000000  0.5302990000000 1.0
C      1  0.4520650000000  0.4876020000000  0.5144510000000 1.0
C      1  0.4810790000000  0.4579440000000  0.4928570000000 1.0
C      1  0.5054230000000  0.6484720000000  0.4903020000000 1.0
C      1  0.5512510000000  0.4902020000000  0.5826610000000 1.0
C      1  0.5217730000000  0.5426600000000  0.5779360000000 1.0
C      1  0.5561320000000  0.4274810000000  0.4645570000000 1.0
C      1  0.4984710000000  0.5931630000000  0.5348640000000 1.0
C      1  0.4725320000000  0.4347430000000  0.5518630000000 1.0
C      1  0.4308430000000  0.5417220000000  0.4711960000000 1.0
C      1  0.4302310000000  0.4567170000000  0.4679140000000 1.0
C      1  0.5154450000000  0.5854550000000  0.5561730000000 1.0
C      1  0.5377790000000  0.4654410000000  0.5033000000000 1.0
C      1  0.5417830000000  0.4257120000000  0.5632560000000 1.0
C      1  0.5927560000000  0.4635150000000  0.5140020000000 1.0
C      1  0.4295300000000  0.4761390000000  0.5666520000000 1.0
C      1  0.5164660000000  0.4351490000000  0.5736720000000 1.0
C      1  0.5216440000000  0.4434410000000  0.4252080000000 1.0
C      1  0.4268320000000  0.5671340000000  0.5236750000000 1.0
C      1  0.4658900000000  0.6212290000000  0.4947250000000 1.0
C      1  0.5556280000000  0.4416360000000  0.5435310000000 1.0
C      1  0.4379520000000  0.5004670000000  0.5749380000000 1.0
C      1  0.5437160000000  0.5785720000000  0.5569480000000 1.0
C      1  0.4926650000000  0.5109280000000  0.4966070000000 1.0
C      1  0.5360510000000  0.6005380000000  0.4656170000000 1.0
C      1  0.5544140000000  0.3595320000000  0.5325620000000 1.0
C      1  0.4999390000000  0.4644300000000  0.4723880000000 1.0
C      1  0.5284900000000  0.4257560000000  0.4724370000000 1.0
C      1  0.4903870000000  0.4475450000000  0.5708150000000 1.0
C      1  0.5436510000000  0.5002980000000  0.4704300000000 1.0
C      1  0.5865620000000  0.5319800000000  0.4632710000000 1.0
C      1  0.4794400000000  0.5282490000000  0.4080690000000 1.0
C      1  0.4528310000000  0.5568990000000  0.4692070000000 1.0
C      1  0.5689990000000  0.5558310000000  0.5009930000000 1.0
C      1  0.5044190000000  0.5661530000000  0.5757380000000 1.0
C      1  0.4901260000000  0.5333620000000  0.5161370000000 1.0
C      1  0.5531060000000  0.3754540000000  0.5537670000000 1.0
C      1  0.4417860000000  0.6102390000000  0.4980770000000 1.0
C      1  0.5209630000000  0.4747280000000  0.5454950000000 1.0
C      1  0.4571930000000  0.5417010000000  0.5536700000000 1.0
C      1  0.5280100000000  0.5103250000000  0.5157860000000 1.0
C      1  0.4819990000000  0.5041530000000  0.4495860000000 1.0
C      1  0.5131120000000  0.5249620000000  0.5339660000000 1.0
C      1  0.6205890000000  0.4917710000000  0.5417230000000 1.0
C      1  0.4968840000000  0.4313570000000  0.4363090000000 1.0
C      1  0.4983140000000  0.4804950000000  0.4476100000000 1.0
C      1  0.5544330000000  0.4757610000000  0.4536350000000 1.0
C      1  0.5821980000000  0.4457560000000  0.5341820000000 1.0
C      1  0.3980820000000  0.4748690000000  0.5307960000000 1.0
C      1  0.4596190000000  0.5189470000000  0.5723140000000 1.0
C      1  0.5412350000000  0.4931360000000  0.4986310000000 1.0
C      1  0.5478920000000  0.5364400000000  0.4279480000000 1.0
C      1  0.4330730000000  0.4446320000000  0.5234660000000 1.0
C      1  0.4856420000000  0.4755060000000  0.5795700000000 1.0
C      1  0.4854300000000  0.5052540000000  0.5750380000000 1.0
C      1  0.4538280000000  0.4125540000000  0.4651400000000 1.0
C      1  0.4643830000000  0.5308500000000  0.5284480000000 1.0
C      1  0.4477180000000  0.4379650000000  0.4528680000000 1.0
C      1  0.5882260000000  0.4576810000000  0.4866020000000 1.0
C      1  0.4760920000000  0.5645020000000  0.4801530000000 1.0
C      1  0.4704100000000  0.5867620000000  0.5397280000000 1.0
C      1  0.5158170000000  0.5614910000000  0.4072730000000 1.0
C      1  0.4462520000000  0.5128170000000  0.5184500000000 1.0
C      1  0.5301010000000  0.4934080000000  0.5649860000000 1.0
C      1  0.4593040000000  0.4319890000000  0.5263270000000 1.0
C      1  0.5489390000000  0.3988130000000  0.5657320000000 1.0
C      1  0.5380040000000  0.5644550000000  0.4253990000000 1.0
C      1  0.5195630000000  0.4897290000000  0.4281160000000 1.0
C      1  0.4691520000000  0.4427490000000  0.4326440000000 1.0
C      1  0.4224330000000  0.4539080000000  0.4966370000000 1.0
C      1  0.5851300000000  0.5343770000000  0.4914310000000 1.0
C      1  0.5247900000000  0.5249550000000  0.4689200000000 1.0
C      1  0.4680620000000  0.5093420000000  0.4252830000000 1.0
C      1  0.5513920000000  0.3500350000000  0.4812150000000 1.0
C      1  0.5064640000000  0.5345680000000  0.4062560000000 1.0
C      1  0.4249630000000  0.4917920000000  0.4125410000000 1.0
C      1  0.4952260000000  0.4769900000000  0.5344550000000 1.0
C      1  0.5725500000000  0.5317060000000  0.4404620000000 1.0
C      1  0.5263740000000  0.5167340000000  0.4190930000000 1.0
C      1  0.5121180000000  0.5177870000000  0.5645740000000 1.0
C      1  0.4040110000000  0.4774740000000  0.5032240000000 1.0
C      1  0.4527770000000  0.4884680000000  0.4133120000000 1.0
C      1  0.5026350000000  0.4166340000000  0.4618130000000 1.0
C      1  0.5095090000000  0.6038670000000  0.5097100000000 1.0
C      1  0.4175010000000  0.4832530000000  0.4605880000000 1.0
C      1  0.5236260000000  0.4520160000000  0.4832470000000 1.0
C      1  0.5240040000000  0.5496300000000  0.4853500000000 1.0
C      1  0.5402810000000  0.5865910000000  0.4427080000000 1.0
C      1  0.4101070000000  0.5439980000000  0.5148700000000 1.0
C      1  0.5696130000000  0.4534560000000  0.4657320000000 1.0
C      1  0.5377350000000  0.4676150000000  0.4302890000000 1.0
C      1  0.4097380000000  0.4897260000000  0.4345040000000 1.0
C      1  0.3883730000000  0.5375450000000  0.5307220000000 1.0
C      1  0.4261510000000  0.5908650000000  0.5079430000000 1.0
C      1  0.5436290000000  0.5670120000000  0.4962600000000 1.0
C      1  0.4143390000000  0.5279720000000  0.4899700000000 1.0
C      1  0.4936640000000  0.6249080000000  0.4978570000000 1.0
C      1  0.4971710000000  0.5551810000000  0.4965340000000 1.0
C      1  0.4634450000000  0.4623830000000  0.4131250000000 1.0
END
