TITL C-3866672-3872-157 0.03062714929108 125000 -371.953835304142 0 0 63 (C1) n - 1
REM
REM in /home/nfs/bkarasulu/CARBON/AIRSS/Generating-Clusters/LCBOP/Only-C1/SD-CG/HFTN-CG/FIRE-CG
REM
REM
REM
REM
REM
REM ./C.cell (11c1c37f851c82e70ff6c80c92926a4b)
REM AIRSS Version 0.9.1 bugfix July 2018 build 013d7b7c2542+ Fri, 06 Jul 2018 19:26:36 +0100
REM compiler GCC version 9.2.1 20190827 (Red Hat 9.2.1-1)
REM options -cpp -mtune=generic -march=x86-64 -g -O0 -fpre-include=/usr/include/finclude/math-vector-fortran.h
REM seed 537313196 -36480245 -1448556040 -133839576 1630359628 -1904447159 679472283 -531994334 957463587 2138448347 -1027768233 -1139461301 -2071933677 -1721152077 1068511517 1919849450 1632754826 1598551735 2040764243 -1147960987 749583170 -1367415538 1317643945 -1619909744 -1407410202 88714173 1414416913 -1943101849 -1742643966 994950333 1227576787 1210936221 630912045
REM
CELL 1.54180   50.00000   50.00000   50.00000   90.00000   90.00000   90.00000
LATT -1
SFAC C  
C      1  0.5031210000000  0.4815330000000  0.5060860000000 1.0
C      1  0.4636340000000  0.4840010000000  0.5331490000000 1.0
C      1  0.5108020000000  0.5038050000000  0.5725250000000 1.0
C      1  0.5392670000000  0.4830080000000  0.4251320000000 1.0
C      1  0.4303150000000  0.5646520000000  0.5411990000000 1.0
C      1  0.5115840000000  0.5676790000000  0.6080870000000 1.0
C      1  0.5192490000000  0.5427230000000  0.3587270000000 1.0
C      1  0.4758970000000  0.4750030000000  0.5090400000000 1.0
C      1  0.5024800000000  0.4180110000000  0.4764890000000 1.0
C      1  0.4744480000000  0.5408210000000  0.4703700000000 1.0
C      1  0.5189000000000  0.5188480000000  0.3993300000000 1.0
C      1  0.5551520000000  0.5448190000000  0.5090780000000 1.0
C      1  0.4948070000000  0.5294390000000  0.3602640000000 1.0
C      1  0.5208110000000  0.5888780000000  0.6210220000000 1.0
C      1  0.5053440000000  0.3927680000000  0.3942390000000 1.0
C      1  0.4433650000000  0.5560440000000  0.5182150000000 1.0
C      1  0.5661830000000  0.4799800000000  0.4333780000000 1.0
C      1  0.5211390000000  0.5229980000000  0.4478710000000 1.0
C      1  0.5309460000000  0.4195620000000  0.4740000000000 1.0
C      1  0.4534030000000  0.5547880000000  0.6029020000000 1.0
C      1  0.4742620000000  0.5369230000000  0.5982540000000 1.0
C      1  0.4847470000000  0.4932290000000  0.5758310000000 1.0
C      1  0.4317090000000  0.5701620000000  0.5941980000000 1.0
C      1  0.5340960000000  0.5368360000000  0.3817010000000 1.0
C      1  0.5434520000000  0.4240020000000  0.4486250000000 1.0
C      1  0.4939490000000  0.5150170000000  0.3842250000000 1.0
C      1  0.4635270000000  0.4289310000000  0.5027630000000 1.0
C      1  0.4749670000000  0.4740780000000  0.5575610000000 1.0
C      1  0.4554070000000  0.5742010000000  0.4998570000000 1.0
C      1  0.5448510000000  0.4530910000000  0.5088800000000 1.0
C      1  0.5258310000000  0.4586650000000  0.4199570000000 1.0
C      1  0.4688790000000  0.5096730000000  0.5923860000000 1.0
C      1  0.4939320000000  0.3741760000000  0.3799660000000 1.0
C      1  0.5262830000000  0.5081740000000  0.4240740000000 1.0
C      1  0.4162600000000  0.5848290000000  0.6121570000000 1.0
C      1  0.5621140000000  0.5378930000000  0.4828640000000 1.0
C      1  0.5882010000000  0.5392290000000  0.4747300000000 1.0
C      1  0.4700780000000  0.5678800000000  0.4778410000000 1.0
C      1  0.5422530000000  0.5295070000000  0.4650430000000 1.0
C      1  0.5284370000000  0.4741480000000  0.5099390000000 1.0
C      1  0.4949260000000  0.4250970000000  0.5497940000000 1.0
C      1  0.5279420000000  0.4309790000000  0.4254790000000 1.0
C      1  0.4474780000000  0.5282830000000  0.5119590000000 1.0
C      1  0.5702290000000  0.4334950000000  0.4481820000000 1.0
C      1  0.5013180000000  0.5458610000000  0.5941250000000 1.0
C      1  0.5793580000000  0.4582790000000  0.4425290000000 1.0
C      1  0.5473040000000  0.5469580000000  0.5343240000000 1.0
C      1  0.4584670000000  0.5233670000000  0.4860280000000 1.0
C      1  0.5175260000000  0.5311410000000  0.5755540000000 1.0
C      1  0.4873200000000  0.4334500000000  0.4574150000000 1.0
C      1  0.5297880000000  0.6098010000000  0.6337200000000 1.0
C      1  0.5168170000000  0.4116210000000  0.4088930000000 1.0
C      1  0.4707550000000  0.4540330000000  0.4644590000000 1.0
C      1  0.4261280000000  0.5702660000000  0.5667760000000 1.0
C      1  0.4018490000000  0.5985550000000  0.6289840000000 1.0
C      1  0.4640820000000  0.4555050000000  0.4921280000000 1.0
C      1  0.4992670000000  0.4105650000000  0.5274850000000 1.0
C      1  0.4478830000000  0.5071600000000  0.5304740000000 1.0
C      1  0.5352690000000  0.5429970000000  0.5576470000000 1.0
C      1  0.5451050000000  0.4293350000000  0.4964350000000 1.0
C      1  0.4834400000000  0.4472540000000  0.5595410000000 1.0
C      1  0.4953060000000  0.5317700000000  0.4543600000000 1.0
C      1  0.4883590000000  0.4142220000000  0.5017540000000 1.0
END
