TITL C-3866673-4222-60 0.000722855380037448 125000 -493.840792143124 0 0 83 (C1) n - 1
REM
REM in /home/nfs/bkarasulu/CARBON/AIRSS/Generating-Clusters/LCBOP/Only-C1/SD-CG/HFTN-CG/FIRE-CG
REM
REM
REM
REM
REM
REM ./C.cell (11c1c37f851c82e70ff6c80c92926a4b)
REM AIRSS Version 0.9.1 bugfix July 2018 build 013d7b7c2542+ Fri, 06 Jul 2018 19:26:36 +0100
REM compiler GCC version 9.2.1 20190827 (Red Hat 9.2.1-1)
REM options -cpp -mtune=generic -march=x86-64 -g -O0 -fpre-include=/usr/include/finclude/math-vector-fortran.h
REM seed 436330160 -1067782585 1049519383 11679095 421847772 -1751219692 -287649964 -1197560663 276557540 -741587305 354623379 -1401048212 1859390632 -2097401513 -1242602326 180017420 196606130 -1912712435 -1177732818 523294969 430517795 1569411626 379018180 1648469056 1821672742 199141840 304440015 -740888055 -197597064 1786287686 1362150693 1178004359 -972590193
REM
CELL 1.54180   50.00000   50.00000   50.00000   90.00000   90.00000   90.00000
LATT -1
SFAC C  
C      1  0.4329370000000  0.4874550000000  0.5286100000000 1.0
C      1  0.5069350000000  0.4960520000000  0.4976630000000 1.0
C      1  0.5769740000000  0.4813660000000  0.4553690000000 1.0
C      1  0.4473980000000  0.4281060000000  0.4550920000000 1.0
C      1  0.4051120000000  0.4830770000000  0.5303270000000 1.0
C      1  0.4070410000000  0.4823550000000  0.4253940000000 1.0
C      1  0.4422340000000  0.4962340000000  0.5030150000000 1.0
C      1  0.4420240000000  0.5436550000000  0.5739540000000 1.0
C      1  0.4136610000000  0.5544720000000  0.4256910000000 1.0
C      1  0.6048070000000  0.4586590000000  0.4981700000000 1.0
C      1  0.5141420000000  0.5425610000000  0.4381950000000 1.0
C      1  0.4097270000000  0.4280500000000  0.5474290000000 1.0
C      1  0.4632870000000  0.5487460000000  0.4354150000000 1.0
C      1  0.4368900000000  0.5227940000000  0.4950970000000 1.0
C      1  0.5726570000000  0.5468450000000  0.4514380000000 1.0
C      1  0.5326630000000  0.4315360000000  0.5461910000000 1.0
C      1  0.5500910000000  0.4141670000000  0.5040130000000 1.0
C      1  0.5705030000000  0.5521740000000  0.5517170000000 1.0
C      1  0.5509410000000  0.5506500000000  0.4664120000000 1.0
C      1  0.4765590000000  0.4817970000000  0.4654260000000 1.0
C      1  0.4478290000000  0.4585450000000  0.5668520000000 1.0
C      1  0.5284620000000  0.4749240000000  0.4597940000000 1.0
C      1  0.5422060000000  0.5305610000000  0.5087700000000 1.0
C      1  0.5991340000000  0.4594890000000  0.5454350000000 1.0
C      1  0.4875430000000  0.5417550000000  0.5053880000000 1.0
C      1  0.4810390000000  0.4160530000000  0.4939970000000 1.0
C      1  0.5711770000000  0.5237440000000  0.5125290000000 1.0
C      1  0.5889200000000  0.5278270000000  0.4420930000000 1.0
C      1  0.5602390000000  0.5891240000000  0.5169140000000 1.0
C      1  0.5044610000000  0.4928950000000  0.4663430000000 1.0
C      1  0.5945240000000  0.4355610000000  0.4888960000000 1.0
C      1  0.4329200000000  0.4367840000000  0.5573280000000 1.0
C      1  0.5741290000000  0.4932770000000  0.5189900000000 1.0
C      1  0.3828090000000  0.4660060000000  0.5290210000000 1.0
C      1  0.3977440000000  0.5330260000000  0.4248930000000 1.0
C      1  0.4391020000000  0.5621720000000  0.4292740000000 1.0
C      1  0.4965130000000  0.4974710000000  0.5590390000000 1.0
C      1  0.5975740000000  0.4739790000000  0.5208630000000 1.0
C      1  0.5119120000000  0.5875900000000  0.4647010000000 1.0
C      1  0.5364810000000  0.5810680000000  0.5313520000000 1.0
C      1  0.4522280000000  0.4812290000000  0.4101810000000 1.0
C      1  0.4475210000000  0.5416310000000  0.4793960000000 1.0
C      1  0.5832810000000  0.4412920000000  0.5573570000000 1.0
C      1  0.4492720000000  0.4831820000000  0.5521060000000 1.0
C      1  0.5164650000000  0.4780510000000  0.5637370000000 1.0
C      1  0.5312700000000  0.5418950000000  0.4843400000000 1.0
C      1  0.4704090000000  0.5286330000000  0.4170320000000 1.0
C      1  0.5734820000000  0.4193750000000  0.4922760000000 1.0
C      1  0.5279240000000  0.4196920000000  0.5205550000000 1.0
C      1  0.4600130000000  0.4564600000000  0.5913480000000 1.0
C      1  0.5049980000000  0.5211200000000  0.5424260000000 1.0
C      1  0.5836100000000  0.5468230000000  0.5257740000000 1.0
C      1  0.5539510000000  0.4800980000000  0.4997910000000 1.0
C      1  0.5430070000000  0.4879420000000  0.5649930000000 1.0
C      1  0.5271670000000  0.4800420000000  0.5090940000000 1.0
C      1  0.4565930000000  0.4811790000000  0.4837810000000 1.0
C      1  0.5138970000000  0.5694310000000  0.4442700000000 1.0
C      1  0.4679430000000  0.5025840000000  0.5616170000000 1.0
C      1  0.4859590000000  0.5453090000000  0.5500450000000 1.0
C      1  0.5422240000000  0.5572750000000  0.5478520000000 1.0
C      1  0.5547370000000  0.4761540000000  0.4713690000000 1.0
C      1  0.5101270000000  0.5823950000000  0.5187090000000 1.0
C      1  0.5148830000000  0.4505160000000  0.5575320000000 1.0
C      1  0.4900040000000  0.5621670000000  0.5259880000000 1.0
C      1  0.4635900000000  0.5314330000000  0.5627520000000 1.0
C      1  0.5306140000000  0.5342620000000  0.5354610000000 1.0
C      1  0.5096820000000  0.5170400000000  0.4472780000000 1.0
C      1  0.4658430000000  0.5040240000000  0.4078630000000 1.0
C      1  0.5906020000000  0.5011840000000  0.4437690000000 1.0
C      1  0.5020810000000  0.4163200000000  0.5102620000000 1.0
C      1  0.4952010000000  0.5461350000000  0.4792870000000 1.0
C      1  0.4629630000000  0.4190740000000  0.4747070000000 1.0
C      1  0.4944320000000  0.5152740000000  0.5141320000000 1.0
C      1  0.4705890000000  0.5472010000000  0.4631580000000 1.0
C      1  0.5588240000000  0.4303500000000  0.5569510000000 1.0
C      1  0.3955280000000  0.5064380000000  0.4254420000000 1.0
C      1  0.3880490000000  0.4393570000000  0.5364460000000 1.0
C      1  0.5820210000000  0.5726790000000  0.5124730000000 1.0
C      1  0.3581640000000  0.4745370000000  0.5211800000000 1.0
C      1  0.5094600000000  0.5924020000000  0.4914660000000 1.0
C      1  0.5630410000000  0.4928830000000  0.5480460000000 1.0
C      1  0.4359160000000  0.4443080000000  0.4373590000000 1.0
C      1  0.4311340000000  0.4680240000000  0.4233070000000 1.0
END
