TITL C-3866673-4222-345 9355.54813426684 125000 -1168.50318863955 0 0 190 (C1) n - 1
REM
REM in /home/nfs/bkarasulu/CARBON/AIRSS/Generating-Clusters/LCBOP/Only-C1/SD-CG/FIRE-CG
REM
REM
REM
REM
REM
REM ./C.cell (11c1c37f851c82e70ff6c80c92926a4b)
REM AIRSS Version 0.9.1 bugfix July 2018 build 013d7b7c2542+ Fri, 06 Jul 2018 19:26:36 +0100
REM compiler GCC version 9.2.1 20190827 (Red Hat 9.2.1-1)
REM options -cpp -mtune=generic -march=x86-64 -g -O0 -fpre-include=/usr/include/finclude/math-vector-fortran.h
REM seed -1866523751 -1384935328 1486716902 869857144 -1864142070 -724083230 487988992 2054467706 -1958893815 -1698173417 58277300 2059202750 1276568654 608069500 -59431150 534218909 -1135013814 1053767998 1427667565 22627935 -430782134 -2083818278 277085370 157842940 -1049348066 -100359835 -433033668 -286470987 -698689014 -40940262 -586438161 203435557 -41483869
REM
CELL 1.54180   50.00000   50.00000   50.00000   90.00000   90.00000   90.00000
LATT -1
SFAC C  
C      1  0.5689410000000  0.5792940000000  0.5909770000000 1.0
C      1  0.5860310000000  0.4263950000000  0.4802670000000 1.0
C      1  0.5012800000000  0.6163040000000  0.5359620000000 1.0
C      1  0.4749170000000  0.4854030000000  0.5859650000000 1.0
C      1  0.4419540000000  0.4597660000000  0.3814690000000 1.0
C      1  0.4433200000000  0.4136060000000  0.4675270000000 1.0
C      1  0.4746290000000  0.6001790000000  0.5775800000000 1.0
C      1  0.4333370000000  0.4323400000000  0.4475310000000 1.0
C      1  0.5261010000000  0.3869760000000  0.5054250000000 1.0
C      1  0.4299410000000  0.3910180000000  0.5090310000000 1.0
C      1  0.4873240000000  0.4732150000000  0.4658250000000 1.0
C      1  0.4901480000000  0.5164800000000  0.5097470000000 1.0
C      1  0.4527820000000  0.4440920000000  0.5697190000000 1.0
C      1  0.5496880000000  0.4767810000000  0.4984110000000 1.0
C      1  0.5387800000000  0.5749720000000  0.5251930000000 1.0
C      1  0.6023500000000  0.5706990000000  0.5218870000000 1.0
C      1  0.4661090000000  0.5075860000000  0.4388870000000 1.0
C      1  0.5948100000000  0.5862860000000  0.4992610000000 1.0
C      1  0.3951760000000  0.5426970000000  0.5080070000000 1.0
C      1  0.4627050000000  0.5301650000000  0.5478830000000 1.0
C      1  0.6129400000000  0.5150450000000  0.4109580000000 1.0
C      1  0.5703320000000  0.5335980000000  0.4592510000000 1.0
C      1  0.4957890000000  0.4628520000000  0.5540820000000 1.0
C      1  0.5619000000000  0.5345010000000  0.3981860000000 1.0
C      1  0.5676910000000  0.4023100000000  0.4800800000000 1.0
C      1  0.5411900000000  0.4693250000000  0.5796970000000 1.0
C      1  0.4747050000000  0.5633930000000  0.5112360000000 1.0
C      1  0.3968330000000  0.5338910000000  0.5369590000000 1.0
C      1  0.5005480000000  0.4071760000000  0.3834570000000 1.0
C      1  0.5969450000000  0.5420620000000  0.5600420000000 1.0
C      1  0.5371820000000  0.4063710000000  0.5238110000000 1.0
C      1  0.4356970000000  0.6060650000000  0.4991450000000 1.0
C      1  0.5208440000000  0.5810310000000  0.4366730000000 1.0
C      1  0.5690660000000  0.4555190000000  0.4408590000000 1.0
C      1  0.5019010000000  0.4990340000000  0.5808060000000 1.0
C      1  0.3654380000000  0.5232790000000  0.4748540000000 1.0
C      1  0.6218340000000  0.5386770000000  0.4695400000000 1.0
C      1  0.4735020000000  0.4165780000000  0.4707030000000 1.0
C      1  0.4816430000000  0.4354220000000  0.4946750000000 1.0
C      1  0.4373070000000  0.5354390000000  0.5101910000000 1.0
C      1  0.3985720000000  0.4641990000000  0.5695050000000 1.0
C      1  0.4561130000000  0.4801460000000  0.3713200000000 1.0
C      1  0.4704860000000  0.5115080000000  0.4901880000000 1.0
C      1  0.5330650000000  0.4300900000000  0.4232360000000 1.0
C      1  0.4067120000000  0.4847920000000  0.5186620000000 1.0
C      1  0.3647850000000  0.4759710000000  0.4953400000000 1.0
C      1  0.5599300000000  0.5616790000000  0.4091050000000 1.0
C      1  0.5188090000000  0.5006460000000  0.4387960000000 1.0
C      1  0.6128300000000  0.4661660000000  0.5024950000000 1.0
C      1  0.4667420000000  0.5270160000000  0.5751080000000 1.0
C      1  0.3990780000000  0.5344480000000  0.5889280000000 1.0
C      1  0.5782290000000  0.5064540000000  0.5866750000000 1.0
C      1  0.6212880000000  0.4999760000000  0.5380530000000 1.0
C      1  0.5330120000000  0.4714180000000  0.3730850000000 1.0
C      1  0.4261810000000  0.4879020000000  0.6284450000000 1.0
C      1  0.5312730000000  0.4325650000000  0.5117040000000 1.0
C      1  0.5307070000000  0.4041490000000  0.5516300000000 1.0
C      1  0.4653280000000  0.5497260000000  0.4128690000000 1.0
C      1  0.5813030000000  0.5872040000000  0.5680440000000 1.0
C      1  0.5978210000000  0.4876870000000  0.4919590000000 1.0
C      1  0.4647830000000  0.4058510000000  0.4164410000000 1.0
C      1  0.5388140000000  0.3918170000000  0.4783080000000 1.0
C      1  0.4974130000000  0.5678300000000  0.4935070000000 1.0
C      1  0.4122050000000  0.4819090000000  0.4549930000000 1.0
C      1  0.4915270000000  0.3930360000000  0.4672330000000 1.0
C      1  0.5340020000000  0.5629570000000  0.5496620000000 1.0
C      1  0.4308860000000  0.5012170000000  0.6048370000000 1.0
C      1  0.3685470000000  0.5484780000000  0.4604810000000 1.0
C      1  0.5154500000000  0.5061860000000  0.5129290000000 1.0
C      1  0.3874510000000  0.4649690000000  0.5095800000000 1.0
C      1  0.5978090000000  0.5382310000000  0.4581030000000 1.0
C      1  0.5236410000000  0.5373830000000  0.4673190000000 1.0
C      1  0.5181380000000  0.5405780000000  0.6270690000000 1.0
C      1  0.4992920000000  0.3796310000000  0.5154950000000 1.0
C      1  0.5429610000000  0.5446620000000  0.6161460000000 1.0
C      1  0.4019520000000  0.5672330000000  0.4916500000000 1.0
C      1  0.4679080000000  0.4548500000000  0.4296300000000 1.0
C      1  0.4233800000000  0.4044230000000  0.4853270000000 1.0
C      1  0.5892740000000  0.4434840000000  0.5500870000000 1.0
C      1  0.3922940000000  0.5214400000000  0.4870740000000 1.0
C      1  0.4393250000000  0.5418690000000  0.5376110000000 1.0
C      1  0.4628100000000  0.4174970000000  0.5707250000000 1.0
C      1  0.5231190000000  0.4810070000000  0.4194530000000 1.0
C      1  0.4968670000000  0.5272510000000  0.5776590000000 1.0
C      1  0.5530190000000  0.5995980000000  0.4763330000000 1.0
C      1  0.4936380000000  0.4030860000000  0.4108230000000 1.0
C      1  0.5301450000000  0.5078940000000  0.4650710000000 1.0
C      1  0.5712850000000  0.4903390000000  0.4854730000000 1.0
C      1  0.5687130000000  0.4836780000000  0.4380340000000 1.0
C      1  0.5202580000000  0.4548540000000  0.4305850000000 1.0
C      1  0.6213220000000  0.4724140000000  0.5294420000000 1.0
C      1  0.4986990000000  0.5990810000000  0.5605100000000 1.0
C      1  0.6309930000000  0.5405660000000  0.4945430000000 1.0
C      1  0.5617280000000  0.5042040000000  0.4603280000000 1.0
C      1  0.4890400000000  0.4178390000000  0.5838790000000 1.0
C      1  0.5404100000000  0.5802210000000  0.4588350000000 1.0
C      1  0.5636580000000  0.4855730000000  0.5798410000000 1.0
C      1  0.4479170000000  0.5589610000000  0.4967080000000 1.0
C      1  0.4011320000000  0.4920170000000  0.5666350000000 1.0
C      1  0.4700080000000  0.4658260000000  0.5669070000000 1.0
C      1  0.4587450000000  0.5078430000000  0.5970150000000 1.0
C      1  0.5605920000000  0.4361490000000  0.4217650000000 1.0
C      1  0.4338430000000  0.5706020000000  0.5728840000000 1.0
C      1  0.5329920000000  0.4901500000000  0.3941230000000 1.0
C      1  0.4996040000000  0.4383600000000  0.5420890000000 1.0
C      1  0.6255590000000  0.4951050000000  0.4252820000000 1.0
C      1  0.3925360000000  0.5656070000000  0.4638920000000 1.0
C      1  0.4626310000000  0.5231880000000  0.4161400000000 1.0
C      1  0.6180870000000  0.5460100000000  0.5186010000000 1.0
C      1  0.5175080000000  0.4061740000000  0.4291310000000 1.0
C      1  0.5816210000000  0.5338270000000  0.5831720000000 1.0
C      1  0.4852750000000  0.4572600000000  0.6224720000000 1.0
C      1  0.5211000000000  0.5756110000000  0.5054650000000 1.0
C      1  0.5390480000000  0.5353070000000  0.5494440000000 1.0
C      1  0.4446790000000  0.5100190000000  0.5017270000000 1.0
C      1  0.5421530000000  0.4471400000000  0.5969160000000 1.0
C      1  0.4836200000000  0.4840580000000  0.6306950000000 1.0
C      1  0.5647580000000  0.5521310000000  0.5987080000000 1.0
C      1  0.4645740000000  0.5808320000000  0.5333040000000 1.0
C      1  0.5043630000000  0.4523990000000  0.4540530000000 1.0
C      1  0.4405600000000  0.5756440000000  0.4440250000000 1.0
C      1  0.4726770000000  0.5004640000000  0.3657110000000 1.0
C      1  0.4036930000000  0.4398560000000  0.5597380000000 1.0
C      1  0.4780280000000  0.3865130000000  0.5319350000000 1.0
C      1  0.5155980000000  0.5294190000000  0.3743370000000 1.0
C      1  0.5931260000000  0.5695910000000  0.5494690000000 1.0
C      1  0.4112960000000  0.5746880000000  0.4431520000000 1.0
C      1  0.4001600000000  0.4208290000000  0.4888610000000 1.0
C      1  0.5817210000000  0.5940180000000  0.4749180000000 1.0
C      1  0.5399730000000  0.6158430000000  0.4963280000000 1.0
C      1  0.6132780000000  0.5271130000000  0.5404810000000 1.0
C      1  0.5243690000000  0.6203450000000  0.5185580000000 1.0
C      1  0.5849020000000  0.5174530000000  0.4040100000000 1.0
C      1  0.4821180000000  0.4347510000000  0.4460880000000 1.0
C      1  0.4710120000000  0.4614700000000  0.4868530000000 1.0
C      1  0.5893940000000  0.5870900000000  0.4476400000000 1.0
C      1  0.5249300000000  0.4328570000000  0.6116490000000 1.0
C      1  0.4343050000000  0.4396440000000  0.3975700000000 1.0
C      1  0.4582670000000  0.5779620000000  0.5900680000000 1.0
C      1  0.4279340000000  0.5793440000000  0.4945160000000 1.0
C      1  0.5009980000000  0.5554140000000  0.5827870000000 1.0
C      1  0.4316690000000  0.4852260000000  0.5043480000000 1.0
C      1  0.4966350000000  0.4338810000000  0.6080580000000 1.0
C      1  0.4572630000000  0.4014190000000  0.5470450000000 1.0
C      1  0.6242000000000  0.4522370000000  0.4584530000000 1.0
C      1  0.5167520000000  0.4778760000000  0.5680060000000 1.0
C      1  0.4541770000000  0.6223460000000  0.5101400000000 1.0
C      1  0.5697510000000  0.4454450000000  0.4663660000000 1.0
C      1  0.4003320000000  0.5037630000000  0.5401800000000 1.0
C      1  0.5270620000000  0.4928970000000  0.4913890000000 1.0
C      1  0.5496870000000  0.4537380000000  0.5146650000000 1.0
C      1  0.4819490000000  0.5370370000000  0.5271010000000 1.0
C      1  0.5750060000000  0.4924590000000  0.4126710000000 1.0
C      1  0.3967580000000  0.4372840000000  0.5118510000000 1.0
C      1  0.4405040000000  0.4229330000000  0.4198610000000 1.0
C      1  0.4940820000000  0.5710110000000  0.4449650000000 1.0
C      1  0.5483020000000  0.5520310000000  0.4633090000000 1.0
C      1  0.4108660000000  0.4268240000000  0.5358190000000 1.0
C      1  0.6144710000000  0.4527980000000  0.5484780000000 1.0
C      1  0.5338490000000  0.5738110000000  0.4122180000000 1.0
C      1  0.4071690000000  0.5049490000000  0.4686370000000 1.0
C      1  0.4425780000000  0.4650930000000  0.4864850000000 1.0
C      1  0.4421810000000  0.5696820000000  0.5461920000000 1.0
C      1  0.3997710000000  0.5837510000000  0.4196770000000 1.0
C      1  0.5134320000000  0.5742040000000  0.5656420000000 1.0
C      1  0.4698520000000  0.5200430000000  0.4636340000000 1.0
C      1  0.4887760000000  0.5394290000000  0.6239650000000 1.0
C      1  0.4045700000000  0.5511030000000  0.5676810000000 1.0
C      1  0.4797980000000  0.5604710000000  0.6035870000000 1.0
C      1  0.5808280000000  0.5751530000000  0.4243630000000 1.0
C      1  0.4766830000000  0.6259770000000  0.5245290000000 1.0
C      1  0.3541870000000  0.4976440000000  0.4818940000000 1.0
C      1  0.6278580000000  0.4726430000000  0.4406080000000 1.0
C      1  0.4712640000000  0.4806680000000  0.4413380000000 1.0
C      1  0.5318440000000  0.5148230000000  0.5339610000000 1.0
C      1  0.5243340000000  0.4481180000000  0.3634030000000 1.0
C      1  0.5079680000000  0.4180650000000  0.5611820000000 1.0
C      1  0.5183840000000  0.3947000000000  0.4565590000000 1.0
C      1  0.4088580000000  0.5080980000000  0.5886630000000 1.0
C      1  0.4919800000000  0.5191120000000  0.3662490000000 1.0
C      1  0.5005340000000  0.5549030000000  0.4686030000000 1.0
C      1  0.4279570000000  0.4588340000000  0.4611090000000 1.0
C      1  0.5026230000000  0.4360280000000  0.5138850000000 1.0
C      1  0.4670750000000  0.5690320000000  0.4337160000000 1.0
C      1  0.5377080000000  0.5188900000000  0.3888790000000 1.0
C      1  0.6117280000000  0.4430170000000  0.4836690000000 1.0
C      1  0.4761130000000  0.5124910000000  0.6229730000000 1.0
C      1  0.4317500000000  0.4057440000000  0.5334250000000 1.0
C      1  0.5675520000000  0.4500370000000  0.5359760000000 1.0
C      1  0.5120140000000  0.4246970000000  0.3668370000000 1.0
END
