TITL C-3866673-4222-555 -572.026333010513 125000 -1201.89366746983 0 0 197 (C1) n - 1
REM
REM in /home/nfs/bkarasulu/CARBON/AIRSS/Generating-Clusters/LCBOP/Only-C1/SD-CG/FIRE-CG
REM
REM
REM
REM
REM
REM ./C.cell (11c1c37f851c82e70ff6c80c92926a4b)
REM AIRSS Version 0.9.1 bugfix July 2018 build 013d7b7c2542+ Fri, 06 Jul 2018 19:26:36 +0100
REM compiler GCC version 9.2.1 20190827 (Red Hat 9.2.1-1)
REM options -cpp -mtune=generic -march=x86-64 -g -O0 -fpre-include=/usr/include/finclude/math-vector-fortran.h
REM seed 414990935 -2138066501 1801228035 1214305963 -1770256334 1054905319 1027847958 -2133744422 -1251700302 -654149930 -698227991 -1841715586 471491223 -1896822591 -1827587877 1550097665 -1820777127 -2076097063 -471621623 -642917775 -832375582 -1239082151 -1322177759 -2024708816 1544894572 1568800454 1562771416 -1006305150 -943888095 -1174730465 787686184 -376370837 -471623003
REM
CELL 1.54180   50.00000   50.00000   50.00000   90.00000   90.00000   90.00000
LATT -1
SFAC C  
C      1  0.5148940000000  0.4335060000000  0.6089580000000 1.0
C      1  0.5504210000000  0.4235470000000  0.4446250000000 1.0
C      1  0.5074730000000  0.4523960000000  0.4374570000000 1.0
C      1  0.4678370000000  0.3937310000000  0.5242050000000 1.0
C      1  0.5382020000000  0.4573100000000  0.4733240000000 1.0
C      1  0.4883290000000  0.5063160000000  0.6114280000000 1.0
C      1  0.4911000000000  0.4577350000000  0.5426210000000 1.0
C      1  0.4631840000000  0.5124860000000  0.5960600000000 1.0
C      1  0.5022320000000  0.5338250000000  0.5473770000000 1.0
C      1  0.5610540000000  0.4627810000000  0.5683320000000 1.0
C      1  0.6085640000000  0.5704400000000  0.4886390000000 1.0
C      1  0.4856250000000  0.5244850000000  0.4343940000000 1.0
C      1  0.3580110000000  0.4434660000000  0.4502980000000 1.0
C      1  0.4987470000000  0.5059390000000  0.5526680000000 1.0
C      1  0.4398190000000  0.4800530000000  0.5585450000000 1.0
C      1  0.4238550000000  0.4261740000000  0.5474310000000 1.0
C      1  0.5327100000000  0.6193690000000  0.5187010000000 1.0
C      1  0.5310820000000  0.4433820000000  0.4493690000000 1.0
C      1  0.4626710000000  0.5194520000000  0.4955710000000 1.0
C      1  0.5034510000000  0.5957520000000  0.6240250000000 1.0
C      1  0.5712270000000  0.5640030000000  0.5630990000000 1.0
C      1  0.3618540000000  0.3889530000000  0.5351970000000 1.0
C      1  0.4388650000000  0.4080260000000  0.5646520000000 1.0
C      1  0.5395500000000  0.5195780000000  0.6087990000000 1.0
C      1  0.4645570000000  0.5094880000000  0.4466270000000 1.0
C      1  0.4998530000000  0.4580630000000  0.4098950000000 1.0
C      1  0.5707280000000  0.4220810000000  0.4642320000000 1.0
C      1  0.4866010000000  0.5611740000000  0.4047810000000 1.0
C      1  0.5961730000000  0.5483560000000  0.4515650000000 1.0
C      1  0.5314840000000  0.5374740000000  0.5458940000000 1.0
C      1  0.5287390000000  0.4405100000000  0.3733980000000 1.0
C      1  0.5058750000000  0.4485230000000  0.5664680000000 1.0
C      1  0.5110670000000  0.4514320000000  0.5222960000000 1.0
C      1  0.4304430000000  0.3875800000000  0.4824170000000 1.0
C      1  0.4796400000000  0.4810300000000  0.4137020000000 1.0
C      1  0.6082880000000  0.5194000000000  0.4926650000000 1.0
C      1  0.4439370000000  0.4636110000000  0.4540320000000 1.0
C      1  0.5462580000000  0.5125500000000  0.5490500000000 1.0
C      1  0.4222220000000  0.5832500000000  0.5699270000000 1.0
C      1  0.4898660000000  0.5037120000000  0.4903740000000 1.0
C      1  0.6059960000000  0.4377540000000  0.4893480000000 1.0
C      1  0.5148130000000  0.5845340000000  0.5787130000000 1.0
C      1  0.4394040000000  0.4977680000000  0.5823710000000 1.0
C      1  0.5459620000000  0.4229380000000  0.3648150000000 1.0
C      1  0.5666290000000  0.4683220000000  0.5151340000000 1.0
C      1  0.5780900000000  0.5724420000000  0.4519690000000 1.0
C      1  0.3952680000000  0.5491940000000  0.4817610000000 1.0
C      1  0.5185670000000  0.5720010000000  0.4710610000000 1.0
C      1  0.5944950000000  0.4152640000000  0.5044350000000 1.0
C      1  0.5838670000000  0.5841760000000  0.4804740000000 1.0
C      1  0.4667250000000  0.4791100000000  0.4416460000000 1.0
C      1  0.4441050000000  0.4298220000000  0.4954700000000 1.0
C      1  0.2922260000000  0.3530910000000  0.5460970000000 1.0
C      1  0.5119150000000  0.4598710000000  0.3839970000000 1.0
C      1  0.4893000000000  0.6079250000000  0.4268310000000 1.0
C      1  0.4295290000000  0.5598720000000  0.5570550000000 1.0
C      1  0.5558210000000  0.5651150000000  0.5151870000000 1.0
C      1  0.5047060000000  0.4843870000000  0.3697610000000 1.0
C      1  0.4845340000000  0.3716020000000  0.5170000000000 1.0
C      1  0.4506780000000  0.5193910000000  0.4680190000000 1.0
C      1  0.4862670000000  0.5446360000000  0.3818620000000 1.0
C      1  0.5673740000000  0.5888940000000  0.5037390000000 1.0
C      1  0.4348940000000  0.5020520000000  0.3969060000000 1.0
C      1  0.5820210000000  0.5195060000000  0.5845430000000 1.0
C      1  0.5764410000000  0.5319590000000  0.4077870000000 1.0
C      1  0.5561890000000  0.4575760000000  0.5399000000000 1.0
C      1  0.4601590000000  0.3935020000000  0.5520230000000 1.0
C      1  0.5015490000000  0.5046260000000  0.4212400000000 1.0
C      1  0.6171940000000  0.4972770000000  0.4770860000000 1.0
C      1  0.3850760000000  0.4010440000000  0.5312060000000 1.0
C      1  0.5471820000000  0.5019020000000  0.4494410000000 1.0
C      1  0.4905000000000  0.4675890000000  0.4556790000000 1.0
C      1  0.4993550000000  0.5800650000000  0.6019470000000 1.0
C      1  0.4128160000000  0.4976260000000  0.4374960000000 1.0
C      1  0.5598910000000  0.4981430000000  0.4746520000000 1.0
C      1  0.4382450000000  0.5315930000000  0.4001970000000 1.0
C      1  0.6042370000000  0.4807600000000  0.4287230000000 1.0
C      1  0.5936380000000  0.5798080000000  0.5578270000000 1.0
C      1  0.6172710000000  0.5905370000000  0.5554140000000 1.0
C      1  0.5601000000000  0.4745890000000  0.5953940000000 1.0
C      1  0.3973110000000  0.4234980000000  0.4788570000000 1.0
C      1  0.4762590000000  0.4882080000000  0.3675730000000 1.0
C      1  0.4315120000000  0.5956810000000  0.5133420000000 1.0
C      1  0.4080570000000  0.5451880000000  0.5435050000000 1.0
C      1  0.4547640000000  0.4923090000000  0.5368330000000 1.0
C      1  0.5085550000000  0.5692970000000  0.4438010000000 1.0
C      1  0.5471460000000  0.5636170000000  0.5447840000000 1.0
C      1  0.4168490000000  0.5147960000000  0.5119770000000 1.0
C      1  0.4543490000000  0.5706400000000  0.4794230000000 1.0
C      1  0.4936200000000  0.4747320000000  0.4830470000000 1.0
C      1  0.4103290000000  0.5251330000000  0.4428000000000 1.0
C      1  0.4600930000000  0.4882790000000  0.3914840000000 1.0
C      1  0.4523720000000  0.5895430000000  0.5294010000000 1.0
C      1  0.5710380000000  0.5468080000000  0.5855570000000 1.0
C      1  0.4623460000000  0.6270390000000  0.4614500000000 1.0
C      1  0.5852720000000  0.5160310000000  0.5116910000000 1.0
C      1  0.5098650000000  0.5225350000000  0.4835070000000 1.0
C      1  0.5207300000000  0.4942060000000  0.5665410000000 1.0
C      1  0.5134860000000  0.5342660000000  0.3773060000000 1.0
C      1  0.5218360000000  0.3869650000000  0.4897200000000 1.0
C      1  0.5352750000000  0.4397450000000  0.5314350000000 1.0
C      1  0.4665750000000  0.6050250000000  0.4441590000000 1.0
C      1  0.5297250000000  0.4823080000000  0.6327300000000 1.0
C      1  0.5088550000000  0.3672450000000  0.5058640000000 1.0
C      1  0.5135090000000  0.5934500000000  0.4284260000000 1.0
C      1  0.4670610000000  0.4164140000000  0.5056110000000 1.0
C      1  0.4557070000000  0.5485930000000  0.5634120000000 1.0
C      1  0.6152810000000  0.4860650000000  0.4526400000000 1.0
C      1  0.4208400000000  0.4792050000000  0.4559840000000 1.0
C      1  0.4824680000000  0.4872140000000  0.5405040000000 1.0
C      1  0.5270020000000  0.5847940000000  0.5533030000000 1.0
C      1  0.4138660000000  0.5115910000000  0.5820490000000 1.0
C      1  0.5410320000000  0.4132430000000  0.5247140000000 1.0
C      1  0.4907080000000  0.4240490000000  0.4909400000000 1.0
C      1  0.5349960000000  0.6221210000000  0.4722110000000 1.0
C      1  0.5609840000000  0.6134990000000  0.5168830000000 1.0
C      1  0.6013290000000  0.4161080000000  0.5317300000000 1.0
C      1  0.4966260000000  0.5860190000000  0.5162050000000 1.0
C      1  0.4797410000000  0.5597580000000  0.6028310000000 1.0
C      1  0.4999890000000  0.4503080000000  0.4970730000000 1.0
C      1  0.4921850000000  0.5513260000000  0.4305120000000 1.0
C      1  0.6155260000000  0.4596320000000  0.5571760000000 1.0
C      1  0.5162380000000  0.5996000000000  0.5315720000000 1.0
C      1  0.5256040000000  0.5456970000000  0.4826360000000 1.0
C      1  0.5224330000000  0.5069770000000  0.3720260000000 1.0
C      1  0.5493850000000  0.5437000000000  0.4970980000000 1.0
C      1  0.4649160000000  0.4447930000000  0.5425130000000 1.0
C      1  0.4349540000000  0.4768960000000  0.4943240000000 1.0
C      1  0.4990140000000  0.4590540000000  0.6085780000000 1.0
C      1  0.4530530000000  0.3821070000000  0.4680640000000 1.0
C      1  0.5574680000000  0.5532990000000  0.4070790000000 1.0
C      1  0.5880840000000  0.4857770000000  0.4077620000000 1.0
C      1  0.4543270000000  0.5796580000000  0.4509420000000 1.0
C      1  0.6586330000000  0.4476470000000  0.4909350000000 1.0
C      1  0.3770680000000  0.4328360000000  0.4645610000000 1.0
C      1  0.3877060000000  0.5320480000000  0.4598340000000 1.0
C      1  0.6106420000000  0.4345110000000  0.5490800000000 1.0
C      1  0.4793100000000  0.3875840000000  0.4628850000000 1.0
C      1  0.4290350000000  0.5826230000000  0.4888950000000 1.0
C      1  0.4105120000000  0.4929220000000  0.4091700000000 1.0
C      1  0.5631130000000  0.5193190000000  0.4937030000000 1.0
C      1  0.6328510000000  0.4442840000000  0.4891020000000 1.0
C      1  0.5637230000000  0.4691610000000  0.4844210000000 1.0
C      1  0.5967690000000  0.5347810000000  0.4271860000000 1.0
C      1  0.5839500000000  0.4477110000000  0.4733620000000 1.0
C      1  0.4652800000000  0.5515280000000  0.4993920000000 1.0
C      1  0.5500480000000  0.5020410000000  0.3786300000000 1.0
C      1  0.4979380000000  0.6454030000000  0.4929220000000 1.0
C      1  0.4295400000000  0.5680880000000  0.4412610000000 1.0
C      1  0.4378810000000  0.4517090000000  0.5504460000000 1.0
C      1  0.5751160000000  0.5112810000000  0.5390960000000 1.0
C      1  0.3825050000000  0.4976360000000  0.4038550000000 1.0
C      1  0.5228850000000  0.6329930000000  0.4955340000000 1.0
C      1  0.5169140000000  0.5053360000000  0.6198600000000 1.0
C      1  0.5349710000000  0.5504330000000  0.3892970000000 1.0
C      1  0.5402520000000  0.4363950000000  0.6209230000000 1.0
C      1  0.5107920000000  0.4241600000000  0.5816330000000 1.0
C      1  0.6094360000000  0.5441530000000  0.4775670000000 1.0
C      1  0.4428940000000  0.5010080000000  0.5108110000000 1.0
C      1  0.4039420000000  0.5392680000000  0.5145620000000 1.0
C      1  0.4630910000000  0.5410690000000  0.5897670000000 1.0
C      1  0.4578480000000  0.5395700000000  0.3799720000000 1.0
C      1  0.4099790000000  0.5712620000000  0.4716840000000 1.0
C      1  0.5607050000000  0.5752130000000  0.4269490000000 1.0
C      1  0.5720310000000  0.5060950000000  0.3961540000000 1.0
C      1  0.4259610000000  0.5437720000000  0.4261520000000 1.0
C      1  0.5411520000000  0.5960340000000  0.4225630000000 1.0
C      1  0.4785170000000  0.5499710000000  0.5460260000000 1.0
C      1  0.4993810000000  0.5853210000000  0.4886350000000 1.0
C      1  0.4191250000000  0.4131110000000  0.4962380000000 1.0
C      1  0.4094720000000  0.4138200000000  0.5255810000000 1.0
C      1  0.4525670000000  0.4360000000000  0.6073550000000 1.0
C      1  0.4739740000000  0.5685950000000  0.5239740000000 1.0
C      1  0.3646520000000  0.5095890000000  0.4210890000000 1.0
C      1  0.5624050000000  0.5029770000000  0.5982140000000 1.0
C      1  0.4714650000000  0.4542350000000  0.6133690000000 1.0
C      1  0.4749120000000  0.6422000000000  0.4796010000000 1.0
C      1  0.5033090000000  0.3980200000000  0.5765180000000 1.0
C      1  0.6108810000000  0.4858160000000  0.5608530000000 1.0
C      1  0.4419510000000  0.4170520000000  0.5914820000000 1.0
C      1  0.5456980000000  0.3991420000000  0.5005340000000 1.0
C      1  0.5710450000000  0.4054690000000  0.4886880000000 1.0
C      1  0.5103760000000  0.4715290000000  0.5833430000000 1.0
C      1  0.3647130000000  0.5227950000000  0.4452310000000 1.0
C      1  0.5479210000000  0.4636350000000  0.6194170000000 1.0
C      1  0.5008790000000  0.4019500000000  0.4758050000000 1.0
C      1  0.3997520000000  0.5255120000000  0.5632640000000 1.0
C      1  0.5279870000000  0.5018760000000  0.4306310000000 1.0
C      1  0.5798720000000  0.6309510000000  0.5260140000000 1.0
C      1  0.3151860000000  0.3649070000000  0.5425070000000 1.0
C      1  0.5549180000000  0.4164910000000  0.6320670000000 1.0
C      1  0.3385270000000  0.3769260000000  0.5388570000000 1.0
C      1  0.5932020000000  0.5077380000000  0.5611620000000 1.0
C      1  0.4811560000000  0.3851270000000  0.5689860000000 1.0
C      1  0.4451840000000  0.4543810000000  0.4819610000000 1.0
C      1  0.5483650000000  0.5462850000000  0.6034550000000 1.0
C      1  0.5380740000000  0.5954570000000  0.4680880000000 1.0
END
