TITL C-3866673-4222-480 -0.0533545543645588 125000 -492.651612352133 0 0 81 (C1) n - 1
REM
REM in /home/nfs/bkarasulu/CARBON/AIRSS/Generating-Clusters/LCBOP/Only-C1/SD-CG/FIRE-CG
REM
REM
REM
REM
REM
REM ./C.cell (11c1c37f851c82e70ff6c80c92926a4b)
REM AIRSS Version 0.9.1 bugfix July 2018 build 013d7b7c2542+ Fri, 06 Jul 2018 19:26:36 +0100
REM compiler GCC version 9.2.1 20190827 (Red Hat 9.2.1-1)
REM options -cpp -mtune=generic -march=x86-64 -g -O0 -fpre-include=/usr/include/finclude/math-vector-fortran.h
REM seed 1091387312 419738033 -833083714 -478774248 -387399897 -29123195 -42777037 -783710733 666600246 665544700 -642130473 -1068281758 664517870 1518853558 790553191 -399162180 -1419656218 1319259795 -455144013 -785135855 -1947104433 2056294775 -932960395 -958729107 -1739136987 109999573 1311869069 571875700 -1128332539 1681200968 306038904 -1974814604 2078334728
REM
CELL 1.54180   50.00000   50.00000   50.00000   90.00000   90.00000   90.00000
LATT -1
SFAC C  
C      1  0.4305730000000  0.5013510000000  0.4518360000000 1.0
C      1  0.5536110000000  0.4016950000000  0.5065870000000 1.0
C      1  0.5030560000000  0.4467190000000  0.5638330000000 1.0
C      1  0.5092860000000  0.5552200000000  0.4472950000000 1.0
C      1  0.5701670000000  0.4695100000000  0.4946970000000 1.0
C      1  0.6131960000000  0.4482480000000  0.5027820000000 1.0
C      1  0.4631040000000  0.5798650000000  0.4762700000000 1.0
C      1  0.4848500000000  0.4493840000000  0.4439330000000 1.0
C      1  0.5309890000000  0.4580590000000  0.4558660000000 1.0
C      1  0.4882270000000  0.5242350000000  0.4140160000000 1.0
C      1  0.4857120000000  0.4616640000000  0.5050740000000 1.0
C      1  0.4365560000000  0.5515640000000  0.4465570000000 1.0
C      1  0.5810360000000  0.5049270000000  0.5583680000000 1.0
C      1  0.4542240000000  0.4868690000000  0.4123150000000 1.0
C      1  0.4726320000000  0.5218720000000  0.4589550000000 1.0
C      1  0.4436480000000  0.4818630000000  0.5080440000000 1.0
C      1  0.5257630000000  0.4704630000000  0.4300380000000 1.0
C      1  0.5726240000000  0.4223180000000  0.5059970000000 1.0
C      1  0.4991710000000  0.4629450000000  0.4224420000000 1.0
C      1  0.5510260000000  0.4656850000000  0.4740610000000 1.0
C      1  0.5722510000000  0.4929830000000  0.5118690000000 1.0
C      1  0.5680110000000  0.4884490000000  0.5398450000000 1.0
C      1  0.5781540000000  0.5284030000000  0.5706810000000 1.0
C      1  0.4609880000000  0.4353380000000  0.5361780000000 1.0
C      1  0.5077990000000  0.4406470000000  0.4610430000000 1.0
C      1  0.5578260000000  0.3793050000000  0.5216850000000 1.0
C      1  0.5469000000000  0.5625650000000  0.5131830000000 1.0
C      1  0.5593760000000  0.5285460000000  0.4546510000000 1.0
C      1  0.4718320000000  0.5054300000000  0.4036240000000 1.0
C      1  0.5760270000000  0.5500930000000  0.4512780000000 1.0
C      1  0.5339530000000  0.5438710000000  0.5602070000000 1.0
C      1  0.4631030000000  0.4232160000000  0.4875370000000 1.0
C      1  0.5133030000000  0.5349820000000  0.5768460000000 1.0
C      1  0.4742530000000  0.4360490000000  0.5104480000000 1.0
C      1  0.4307220000000  0.5340700000000  0.5131600000000 1.0
C      1  0.5747330000000  0.6207500000000  0.6052060000000 1.0
C      1  0.4697250000000  0.4844540000000  0.4981790000000 1.0
C      1  0.4301830000000  0.5224780000000  0.5420680000000 1.0
C      1  0.5699950000000  0.5973660000000  0.5947020000000 1.0
C      1  0.5718640000000  0.5475990000000  0.5101540000000 1.0
C      1  0.5706270000000  0.5197730000000  0.5012230000000 1.0
C      1  0.4100560000000  0.5178320000000  0.4974990000000 1.0
C      1  0.5132170000000  0.4173710000000  0.4754470000000 1.0
C      1  0.5236900000000  0.5709160000000  0.4642130000000 1.0
C      1  0.4454380000000  0.5254090000000  0.4512270000000 1.0
C      1  0.5266690000000  0.4581870000000  0.5588370000000 1.0
C      1  0.4155660000000  0.4986740000000  0.4757050000000 1.0
C      1  0.4549960000000  0.5602020000000  0.5434970000000 1.0
C      1  0.5593940000000  0.5491680000000  0.5720500000000 1.0
C      1  0.4806120000000  0.5019370000000  0.4781950000000 1.0
C      1  0.4438720000000  0.4786830000000  0.4378220000000 1.0
C      1  0.4338800000000  0.4457150000000  0.5345480000000 1.0
C      1  0.4915720000000  0.5341720000000  0.4404300000000 1.0
C      1  0.5409270000000  0.4919660000000  0.4215660000000 1.0
C      1  0.5301600000000  0.4045370000000  0.4914600000000 1.0
C      1  0.4157020000000  0.4973110000000  0.5412050000000 1.0
C      1  0.5526900000000  0.5131990000000  0.4323130000000 1.0
C      1  0.4785390000000  0.4375040000000  0.5580420000000 1.0
C      1  0.4447540000000  0.4372250000000  0.4704150000000 1.0
C      1  0.4221990000000  0.4468110000000  0.4858350000000 1.0
C      1  0.5249950000000  0.5717140000000  0.4928220000000 1.0
C      1  0.4465080000000  0.5379960000000  0.5596930000000 1.0
C      1  0.5121510000000  0.5336380000000  0.5131810000000 1.0
C      1  0.4627180000000  0.5296370000000  0.5805810000000 1.0
C      1  0.5308270000000  0.5455000000000  0.5323350000000 1.0
C      1  0.5651170000000  0.5736450000000  0.5839600000000 1.0
C      1  0.4183100000000  0.4347210000000  0.5121810000000 1.0
C      1  0.5504980000000  0.5211660000000  0.4806970000000 1.0
C      1  0.5859480000000  0.4465740000000  0.5013700000000 1.0
C      1  0.4458910000000  0.5748840000000  0.4562200000000 1.0
C      1  0.4722300000000  0.5647510000000  0.4982650000000 1.0
C      1  0.4889170000000  0.5291020000000  0.5855790000000 1.0
C      1  0.3959520000000  0.5037800000000  0.5200940000000 1.0
C      1  0.4235040000000  0.4748610000000  0.4884870000000 1.0
C      1  0.5083930000000  0.4997770000000  0.4788200000000 1.0
C      1  0.4565620000000  0.4541350000000  0.4495540000000 1.0
C      1  0.4326000000000  0.4749700000000  0.5346320000000 1.0
C      1  0.5479700000000  0.4707880000000  0.5488620000000 1.0
C      1  0.4516810000000  0.5549800000000  0.5152980000000 1.0
C      1  0.5245720000000  0.5176380000000  0.4920060000000 1.0
C      1  0.4996450000000  0.5581000000000  0.5023230000000 1.0
END
