TITL C-3866669-3764-796 -0.0117146382311902 125000 -924.3012235861 0 0 150 (C1) n - 1
REM
REM in /home/nfs/bkarasulu/CARBON/AIRSS/Generating-Clusters/LCBOP/Only-C1/SD-CG/FIRE-CG
REM
REM
REM
REM
REM
REM ./C.cell (11c1c37f851c82e70ff6c80c92926a4b)
REM AIRSS Version 0.9.1 bugfix July 2018 build 013d7b7c2542+ Fri, 06 Jul 2018 19:26:36 +0100
REM compiler GCC version 9.2.1 20190827 (Red Hat 9.2.1-1)
REM options -cpp -mtune=generic -march=x86-64 -g -O0 -fpre-include=/usr/include/finclude/math-vector-fortran.h
REM seed 1456291459 -49377012 -1375412393 -799057984 -2113828284 1242472286 309458028 1850509436 1539838399 -1443375607 -371490759 1237006262 903996538 -1247142492 763478916 -222502126 -1808213221 -142495498 -16404878 -974596113 -352139347 618860452 11308043 157873203 -1614472071 -929082045 -1383011495 1116609779 -34601984 -604280565 -292461847 -620780881 -1360214532
REM
CELL 1.54180   50.00000   50.00000   50.00000   90.00000   90.00000   90.00000
LATT -1
SFAC C  
C      1  0.4524910000000  0.4880140000000  0.4842830000000 1.0
C      1  0.5211210000000  0.4383570000000  0.5220970000000 1.0
C      1  0.5725380000000  0.4773020000000  0.5269270000000 1.0
C      1  0.5251810000000  0.5327490000000  0.4706300000000 1.0
C      1  0.4811520000000  0.4607070000000  0.5333480000000 1.0
C      1  0.5001860000000  0.5409750000000  0.4604060000000 1.0
C      1  0.4912600000000  0.5660440000000  0.4672320000000 1.0
C      1  0.5475880000000  0.6033270000000  0.4719560000000 1.0
C      1  0.5733140000000  0.5304430000000  0.5402320000000 1.0
C      1  0.5387000000000  0.5073320000000  0.4252350000000 1.0
C      1  0.4526660000000  0.5685610000000  0.4261250000000 1.0
C      1  0.4391650000000  0.4396710000000  0.5682660000000 1.0
C      1  0.4540910000000  0.4969750000000  0.4002500000000 1.0
C      1  0.5684020000000  0.4902600000000  0.4789600000000 1.0
C      1  0.5839080000000  0.5039590000000  0.5305550000000 1.0
C      1  0.5946150000000  0.5345460000000  0.4967850000000 1.0
C      1  0.5650650000000  0.4703910000000  0.4990730000000 1.0
C      1  0.5463790000000  0.5178680000000  0.3784880000000 1.0
C      1  0.5248580000000  0.5473220000000  0.5489550000000 1.0
C      1  0.5383680000000  0.3863450000000  0.4824730000000 1.0
C      1  0.4505510000000  0.5048360000000  0.5078110000000 1.0
C      1  0.5677310000000  0.5138480000000  0.4635520000000 1.0
C      1  0.4386890000000  0.5852710000000  0.4107180000000 1.0
C      1  0.4594510000000  0.5454690000000  0.4376010000000 1.0
C      1  0.4832440000000  0.4268950000000  0.3817270000000 1.0
C      1  0.4452310000000  0.6202920000000  0.5162100000000 1.0
C      1  0.4844600000000  0.5441410000000  0.5797000000000 1.0
C      1  0.5334890000000  0.4934250000000  0.5571230000000 1.0
C      1  0.5534090000000  0.5591350000000  0.5070370000000 1.0
C      1  0.5399800000000  0.4379250000000  0.4689820000000 1.0
C      1  0.5633910000000  0.3967240000000  0.4888890000000 1.0
C      1  0.4322370000000  0.4734680000000  0.4717980000000 1.0
C      1  0.4744400000000  0.5227910000000  0.5054440000000 1.0
C      1  0.4170430000000  0.5015500000000  0.4358190000000 1.0
C      1  0.4823830000000  0.4943620000000  0.5683140000000 1.0
C      1  0.4103010000000  0.4507950000000  0.5219110000000 1.0
C      1  0.4792030000000  0.6029780000000  0.5541140000000 1.0
C      1  0.4988270000000  0.5973660000000  0.4965110000000 1.0
C      1  0.6746560000000  0.3509770000000  0.5164540000000 1.0
C      1  0.5029590000000  0.5742050000000  0.6104680000000 1.0
C      1  0.4112790000000  0.4898120000000  0.4624480000000 1.0
C      1  0.4921050000000  0.4658010000000  0.4655040000000 1.0
C      1  0.4193650000000  0.5486270000000  0.5141330000000 1.0
C      1  0.5436380000000  0.5847530000000  0.5124480000000 1.0
C      1  0.3948940000000  0.5445140000000  0.4191200000000 1.0
C      1  0.5254570000000  0.5036400000000  0.5319380000000 1.0
C      1  0.4689670000000  0.4357490000000  0.4949450000000 1.0
C      1  0.4945870000000  0.5029080000000  0.4963220000000 1.0
C      1  0.5393000000000  0.4010510000000  0.5489890000000 1.0
C      1  0.4799840000000  0.5280630000000  0.4464040000000 1.0
C      1  0.4561220000000  0.4230950000000  0.3875200000000 1.0
C      1  0.4047500000000  0.5368660000000  0.4684090000000 1.0
C      1  0.4807760000000  0.5076640000000  0.4037780000000 1.0
C      1  0.4076810000000  0.5298970000000  0.4392500000000 1.0
C      1  0.5123570000000  0.4880100000000  0.5132600000000 1.0
C      1  0.5477940000000  0.4808570000000  0.4226110000000 1.0
C      1  0.4959490000000  0.5471390000000  0.6055190000000 1.0
C      1  0.5276150000000  0.4105180000000  0.5740330000000 1.0
C      1  0.5389840000000  0.5801110000000  0.4294060000000 1.0
C      1  0.4409820000000  0.4057340000000  0.3728140000000 1.0
C      1  0.4159450000000  0.4018220000000  0.5026060000000 1.0
C      1  0.4247970000000  0.6053690000000  0.5030230000000 1.0
C      1  0.6050690000000  0.4297970000000  0.4965620000000 1.0
C      1  0.4998140000000  0.4446110000000  0.5907280000000 1.0
C      1  0.5086220000000  0.4340240000000  0.3846830000000 1.0
C      1  0.5643860000000  0.6186820000000  0.4915030000000 1.0
C      1  0.4353430000000  0.4854020000000  0.4195170000000 1.0
C      1  0.5292870000000  0.5171570000000  0.3999690000000 1.0
C      1  0.4688490000000  0.4828110000000  0.5459740000000 1.0
C      1  0.5449240000000  0.4344090000000  0.5807530000000 1.0
C      1  0.5835120000000  0.5370340000000  0.4702280000000 1.0
C      1  0.5445490000000  0.4970830000000  0.6050390000000 1.0
C      1  0.4454850000000  0.5549910000000  0.5232240000000 1.0
C      1  0.4569840000000  0.6163470000000  0.5421120000000 1.0
C      1  0.4556880000000  0.3986930000000  0.4725260000000 1.0
C      1  0.4336580000000  0.3879800000000  0.4872990000000 1.0
C      1  0.6159980000000  0.4844130000000  0.4988360000000 1.0
C      1  0.5234270000000  0.5308060000000  0.5251670000000 1.0
C      1  0.5361000000000  0.4818330000000  0.5828360000000 1.0
C      1  0.6141120000000  0.4573170000000  0.4959090000000 1.0
C      1  0.4933300000000  0.4421320000000  0.4802800000000 1.0
C      1  0.4141760000000  0.4293390000000  0.5732660000000 1.0
C      1  0.5574880000000  0.6097860000000  0.5191560000000 1.0
C      1  0.4539930000000  0.5593740000000  0.5497100000000 1.0
C      1  0.5288890000000  0.5130190000000  0.6201710000000 1.0
C      1  0.3997480000000  0.5100620000000  0.4791250000000 1.0
C      1  0.4140740000000  0.5850200000000  0.3999940000000 1.0
C      1  0.5472370000000  0.4383720000000  0.4420750000000 1.0
C      1  0.5039970000000  0.5973760000000  0.5961080000000 1.0
C      1  0.3819270000000  0.5274650000000  0.5466930000000 1.0
C      1  0.5191200000000  0.5723010000000  0.4129350000000 1.0
C      1  0.5031100000000  0.5202490000000  0.6117360000000 1.0
C      1  0.4448610000000  0.4374780000000  0.4087200000000 1.0
C      1  0.4491730000000  0.4613880000000  0.5851820000000 1.0
C      1  0.4792520000000  0.5751660000000  0.5493150000000 1.0
C      1  0.5268610000000  0.4555910000000  0.5879910000000 1.0
C      1  0.4392600000000  0.4890280000000  0.5856630000000 1.0
C      1  0.5751270000000  0.5626480000000  0.4589840000000 1.0
C      1  0.4776250000000  0.4104640000000  0.5630320000000 1.0
C      1  0.4998980000000  0.5571270000000  0.5586950000000 1.0
C      1  0.5120090000000  0.3973780000000  0.4762530000000 1.0
C      1  0.6240060000000  0.4097460000000  0.5012410000000 1.0
C      1  0.4745550000000  0.4553710000000  0.5971540000000 1.0
C      1  0.5258490000000  0.4123830000000  0.5270670000000 1.0
C      1  0.4685800000000  0.5510890000000  0.5062070000000 1.0
C      1  0.6579940000000  0.3703860000000  0.5114210000000 1.0
C      1  0.4800180000000  0.4876370000000  0.4768820000000 1.0
C      1  0.5301840000000  0.4433030000000  0.3970690000000 1.0
C      1  0.5022950000000  0.5266210000000  0.3965640000000 1.0
C      1  0.4658920000000  0.4382240000000  0.5240900000000 1.0
C      1  0.4082640000000  0.4254180000000  0.5131320000000 1.0
C      1  0.5747490000000  0.4580720000000  0.5475480000000 1.0
C      1  0.4872830000000  0.6226460000000  0.4932030000000 1.0
C      1  0.5556700000000  0.5833860000000  0.4523740000000 1.0
C      1  0.5773740000000  0.4221400000000  0.4929070000000 1.0
C      1  0.5526930000000  0.5418340000000  0.5577070000000 1.0
C      1  0.4574370000000  0.4258340000000  0.5496900000000 1.0
C      1  0.5024400000000  0.5550040000000  0.4002730000000 1.0
C      1  0.5328160000000  0.5399190000000  0.4989240000000 1.0
C      1  0.5067840000000  0.4621880000000  0.5224340000000 1.0
C      1  0.5249860000000  0.6220110000000  0.5584790000000 1.0
C      1  0.4397140000000  0.4569550000000  0.4281460000000 1.0
C      1  0.4564480000000  0.5394150000000  0.5715140000000 1.0
C      1  0.5425060000000  0.5192660000000  0.4515360000000 1.0
C      1  0.4003060000000  0.5371790000000  0.5309770000000 1.0
C      1  0.4397020000000  0.4500650000000  0.4567150000000 1.0
C      1  0.5151270000000  0.4258700000000  0.4752520000000 1.0
C      1  0.5001500000000  0.4177430000000  0.5784570000000 1.0
C      1  0.5435630000000  0.4536410000000  0.4192150000000 1.0
C      1  0.6410520000000  0.3901180000000  0.5063050000000 1.0
C      1  0.4838510000000  0.3894580000000  0.4727600000000 1.0
C      1  0.4633120000000  0.6332560000000  0.4987440000000 1.0
C      1  0.5671660000000  0.4092590000000  0.5504360000000 1.0
C      1  0.4120480000000  0.5575400000000  0.4874380000000 1.0
C      1  0.4419000000000  0.5160420000000  0.5802230000000 1.0
C      1  0.5596330000000  0.4442470000000  0.4886820000000 1.0
C      1  0.5017700000000  0.6108850000000  0.5706940000000 1.0
C      1  0.5462960000000  0.6223940000000  0.5418240000000 1.0
C      1  0.4448380000000  0.4906700000000  0.5317060000000 1.0
C      1  0.4906580000000  0.5016120000000  0.5932530000000 1.0
C      1  0.5680960000000  0.4355480000000  0.5628930000000 1.0
C      1  0.4221540000000  0.4733930000000  0.5306440000000 1.0
C      1  0.4149600000000  0.5859540000000  0.4866400000000 1.0
C      1  0.4514590000000  0.4280200000000  0.4723920000000 1.0
C      1  0.6036440000000  0.5086240000000  0.5081030000000 1.0
C      1  0.5262890000000  0.5941510000000  0.4907800000000 1.0
C      1  0.3950960000000  0.5663360000000  0.4036660000000 1.0
C      1  0.4846650000000  0.5049260000000  0.4320960000000 1.0
C      1  0.5774870000000  0.5474650000000  0.5164110000000 1.0
C      1  0.4832300000000  0.5730070000000  0.4932460000000 1.0
END
