TITL C-3866669-3764-373 3.90610625859034e-07 125000 -260.543996895344 0 0 43 (C1) n - 1
REM
REM in /home/nfs/bkarasulu/CARBON/AIRSS/Generating-Clusters/LCBOP/Only-C1/SD-CG/FIRE-CG
REM
REM
REM
REM
REM
REM ./C.cell (11c1c37f851c82e70ff6c80c92926a4b)
REM AIRSS Version 0.9.1 bugfix July 2018 build 013d7b7c2542+ Fri, 06 Jul 2018 19:26:36 +0100
REM compiler GCC version 9.2.1 20190827 (Red Hat 9.2.1-1)
REM options -cpp -mtune=generic -march=x86-64 -g -O0 -fpre-include=/usr/include/finclude/math-vector-fortran.h
REM seed 1579486374 -1768607894 1305980811 1854493362 -751135803 -275923932 1225144335 -603070170 -325882460 -870499506 1854565302 -1761189758 766749997 1945928041 -230288288 -1632646962 2016031182 -1120522629 -9069452 1507486555 -1306361740 -770251735 418640578 1365124083 1275508085 -272551802 -1578900484 -1646504655 1868880908 -1651581779 -901806425 663381255 -1123757000
REM
CELL 1.54180   50.00000   50.00000   50.00000   90.00000   90.00000   90.00000
LATT -1
SFAC C  
C      1  0.4520080000000  0.4632290000000  0.5281350000000 1.0
C      1  0.5076160000000  0.5795850000000  0.5281400000000 1.0
C      1  0.5025830000000  0.4734510000000  0.4868180000000 1.0
C      1  0.5761390000000  0.4561060000000  0.5056740000000 1.0
C      1  0.4337250000000  0.4680080000000  0.4597860000000 1.0
C      1  0.4282430000000  0.4791390000000  0.5262040000000 1.0
C      1  0.5205280000000  0.5575640000000  0.5356410000000 1.0
C      1  0.5700160000000  0.4744640000000  0.5510670000000 1.0
C      1  0.5214390000000  0.4761760000000  0.4655180000000 1.0
C      1  0.4939260000000  0.5929910000000  0.5096510000000 1.0
C      1  0.5103680000000  0.5113050000000  0.5242000000000 1.0
C      1  0.5523170000000  0.5254990000000  0.4675260000000 1.0
C      1  0.5173870000000  0.4785240000000  0.4166280000000 1.0
C      1  0.5288940000000  0.5314830000000  0.5305460000000 1.0
C      1  0.4111870000000  0.4823700000000  0.5480010000000 1.0
C      1  0.3954720000000  0.4853940000000  0.5685680000000 1.0
C      1  0.5048990000000  0.5358090000000  0.4473060000000 1.0
C      1  0.5638770000000  0.4550240000000  0.4814910000000 1.0
C      1  0.4682090000000  0.4623170000000  0.5510300000000 1.0
C      1  0.4156250000000  0.4745580000000  0.4790170000000 1.0
C      1  0.5111230000000  0.4877240000000  0.4415170000000 1.0
C      1  0.4677620000000  0.5034570000000  0.4572120000000 1.0
C      1  0.5489150000000  0.4771980000000  0.4724050000000 1.0
C      1  0.4842810000000  0.5935130000000  0.4848220000000 1.0
C      1  0.5185800000000  0.4638380000000  0.5653660000000 1.0
C      1  0.5557640000000  0.5244210000000  0.5257570000000 1.0
C      1  0.5055960000000  0.4895070000000  0.5097010000000 1.0
C      1  0.5733500000000  0.4783270000000  0.5231250000000 1.0
C      1  0.4898920000000  0.5593870000000  0.4473800000000 1.0
C      1  0.4628790000000  0.4524070000000  0.5043770000000 1.0
C      1  0.4921160000000  0.4621710000000  0.5628250000000 1.0
C      1  0.4825970000000  0.5807980000000  0.4614650000000 1.0
C      1  0.4766210000000  0.4628500000000  0.4821030000000 1.0
C      1  0.5661010000000  0.5031780000000  0.5103230000000 1.0
C      1  0.4931460000000  0.5098240000000  0.4458830000000 1.0
C      1  0.5912770000000  0.4771260000000  0.5680550000000 1.0
C      1  0.4344860000000  0.5158820000000  0.4932110000000 1.0
C      1  0.4223300000000  0.4913870000000  0.5010670000000 1.0
C      1  0.5322240000000  0.5370740000000  0.4542530000000 1.0
C      1  0.4610680000000  0.4755030000000  0.4614860000000 1.0
C      1  0.5445000000000  0.4678940000000  0.5609040000000 1.0
C      1  0.5586220000000  0.5025810000000  0.4823990000000 1.0
C      1  0.4523130000000  0.5209540000000  0.4734150000000 1.0
END
