TITL C-3866671-3735-317 0.240940151756823 125000 -495.283383689773 0 0 82 (C1) n - 1
REM
REM in /home/nfs/bkarasulu/CARBON/AIRSS/Generating-Clusters/LCBOP/Only-C1/SD-CG/FIRE-CG
REM
REM
REM
REM
REM
REM ./C.cell (11c1c37f851c82e70ff6c80c92926a4b)
REM AIRSS Version 0.9.1 bugfix July 2018 build 013d7b7c2542+ Fri, 06 Jul 2018 19:26:36 +0100
REM compiler GCC version 9.2.1 20190827 (Red Hat 9.2.1-1)
REM options -cpp -mtune=generic -march=x86-64 -g -O0 -fpre-include=/usr/include/finclude/math-vector-fortran.h
REM seed -268392960 1887677024 1235897528 -1171080370 -869798211 -1546345496 -1753489394 -1457875667 -878548912 -565133748 -1872638064 -550311561 -181668816 304222160 1274603390 -1893888890 -2053169992 874000609 1523545170 -476006544 1286490890 745998816 393118639 391626431 -823964812 -1007633015 -1055321353 489057469 1474350754 309092641 243844580 -1249041124 -1715006677
REM
CELL 1.54180   50.00000   50.00000   50.00000   90.00000   90.00000   90.00000
LATT -1
SFAC C  
C      1  0.4926920000000  0.5713270000000  0.5204270000000 1.0
C      1  0.5771060000000  0.5562440000000  0.5103400000000 1.0
C      1  0.4129990000000  0.4365420000000  0.4864470000000 1.0
C      1  0.5419980000000  0.4993130000000  0.4624660000000 1.0
C      1  0.5251840000000  0.5379540000000  0.5027540000000 1.0
C      1  0.4793330000000  0.4351560000000  0.4830100000000 1.0
C      1  0.5489520000000  0.5519920000000  0.4411700000000 1.0
C      1  0.4090810000000  0.4835870000000  0.5622240000000 1.0
C      1  0.4601640000000  0.5528570000000  0.4892580000000 1.0
C      1  0.5694540000000  0.5304660000000  0.5198860000000 1.0
C      1  0.5366350000000  0.4656220000000  0.5100530000000 1.0
C      1  0.5046750000000  0.5453030000000  0.5193970000000 1.0
C      1  0.4086290000000  0.5291020000000  0.4529670000000 1.0
C      1  0.5583960000000  0.5011510000000  0.4857710000000 1.0
C      1  0.5728500000000  0.4938750000000  0.5503630000000 1.0
C      1  0.4611190000000  0.4413490000000  0.4612810000000 1.0
C      1  0.4117040000000  0.5298660000000  0.5482360000000 1.0
C      1  0.5115450000000  0.4362260000000  0.5525470000000 1.0
C      1  0.4651030000000  0.4786900000000  0.5123040000000 1.0
C      1  0.4142620000000  0.5514630000000  0.4664670000000 1.0
C      1  0.4964850000000  0.4576360000000  0.4843520000000 1.0
C      1  0.4971550000000  0.5758990000000  0.4705970000000 1.0
C      1  0.4489850000000  0.4133420000000  0.5132750000000 1.0
C      1  0.4395140000000  0.5333790000000  0.5482660000000 1.0
C      1  0.5842170000000  0.4622140000000  0.5044220000000 1.0
C      1  0.5443220000000  0.5171350000000  0.5082970000000 1.0
C      1  0.4550910000000  0.4655330000000  0.5751360000000 1.0
C      1  0.5670750000000  0.5551120000000  0.4609140000000 1.0
C      1  0.5952400000000  0.4617920000000  0.3460710000000 1.0
C      1  0.5380510000000  0.4405760000000  0.4684920000000 1.0
C      1  0.4815040000000  0.4808690000000  0.4892460000000 1.0
C      1  0.4944280000000  0.5772380000000  0.5487880000000 1.0
C      1  0.4889800000000  0.5057270000000  0.4786630000000 1.0
C      1  0.5012000000000  0.4995050000000  0.5321420000000 1.0
C      1  0.4967650000000  0.5564420000000  0.4477980000000 1.0
C      1  0.5093280000000  0.5367320000000  0.5807570000000 1.0
C      1  0.4753560000000  0.4225760000000  0.5090930000000 1.0
C      1  0.5241220000000  0.4846190000000  0.5724240000000 1.0
C      1  0.4033390000000  0.4835940000000  0.4714660000000 1.0
C      1  0.5524550000000  0.4913140000000  0.4379410000000 1.0
C      1  0.5630880000000  0.4839550000000  0.4148300000000 1.0
C      1  0.6262150000000  0.4330090000000  0.4879000000000 1.0
C      1  0.5589680000000  0.4319150000000  0.5368880000000 1.0
C      1  0.3888330000000  0.4972560000000  0.5199090000000 1.0
C      1  0.4912300000000  0.5257510000000  0.5338250000000 1.0
C      1  0.5959430000000  0.5707630000000  0.5239560000000 1.0
C      1  0.4015980000000  0.5035470000000  0.5440060000000 1.0
C      1  0.5846390000000  0.4691030000000  0.3687380000000 1.0
C      1  0.4172780000000  0.4588300000000  0.4701180000000 1.0
C      1  0.4932790000000  0.4265100000000  0.5317210000000 1.0
C      1  0.5453240000000  0.5874270000000  0.4871940000000 1.0
C      1  0.5611880000000  0.4515310000000  0.5170630000000 1.0
C      1  0.4434200000000  0.4922110000000  0.4463220000000 1.0
C      1  0.4793150000000  0.4813680000000  0.5361120000000 1.0
C      1  0.5058180000000  0.4610260000000  0.5674940000000 1.0
C      1  0.5226190000000  0.5531970000000  0.4359190000000 1.0
C      1  0.5209960000000  0.5905100000000  0.4759550000000 1.0
C      1  0.5024140000000  0.5608490000000  0.5696580000000 1.0
C      1  0.4289060000000  0.4704850000000  0.5742770000000 1.0
C      1  0.5818970000000  0.4904290000000  0.5011490000000 1.0
C      1  0.4656290000000  0.5303800000000  0.5446490000000 1.0
C      1  0.4765440000000  0.5366560000000  0.4393930000000 1.0
C      1  0.5239190000000  0.4550360000000  0.4870240000000 1.0
C      1  0.5306760000000  0.4928460000000  0.5248070000000 1.0
C      1  0.4338750000000  0.5593130000000  0.4827700000000 1.0
C      1  0.4622110000000  0.5129290000000  0.4380160000000 1.0
C      1  0.4800440000000  0.5728070000000  0.4938880000000 1.0
C      1  0.5652600000000  0.5672100000000  0.4865140000000 1.0
C      1  0.4789080000000  0.4691290000000  0.5613800000000 1.0
C      1  0.3887900000000  0.4909050000000  0.4940600000000 1.0
C      1  0.4166070000000  0.5024360000000  0.4543130000000 1.0
C      1  0.5738620000000  0.4765370000000  0.3917850000000 1.0
C      1  0.5148790000000  0.5100280000000  0.5835590000000 1.0
C      1  0.5842350000000  0.5062220000000  0.5268190000000 1.0
C      1  0.5142590000000  0.5059510000000  0.4653880000000 1.0
C      1  0.4428520000000  0.4628340000000  0.4559100000000 1.0
C      1  0.6059940000000  0.4473210000000  0.4959860000000 1.0
C      1  0.4247840000000  0.4196700000000  0.5035600000000 1.0
C      1  0.5445760000000  0.4888880000000  0.5521910000000 1.0
C      1  0.3947570000000  0.5509290000000  0.5522280000000 1.0
C      1  0.5378160000000  0.4260160000000  0.5523990000000 1.0
C      1  0.4710640000000  0.5269590000000  0.4848190000000 1.0
END
