TITL C-3866675-3766-242 0.00622420427731853 125000 -436.569236415559 0 0 74 (C1) n - 1
REM
REM in /home/nfs/bkarasulu/CARBON/AIRSS/Generating-Clusters/LCBOP/Only-C1/SD-CG/HFTN-CG/FIRE-CG
REM
REM
REM
REM
REM
REM ./C.cell (11c1c37f851c82e70ff6c80c92926a4b)
REM AIRSS Version 0.9.1 bugfix July 2018 build 013d7b7c2542+ Fri, 06 Jul 2018 19:26:36 +0100
REM compiler GCC version 9.2.1 20190827 (Red Hat 9.2.1-1)
REM options -cpp -mtune=generic -march=x86-64 -g -O0 -fpre-include=/usr/include/finclude/math-vector-fortran.h
REM seed -1153376689 -1917349048 1426451575 -959828056 -279743466 127952418 -1582675651 747751161 1055783944 -834555804 -1742117496 -318025537 -2038006762 697253764 748178779 -728788760 -1687009473 -1529493600 182660253 1501224937 -884976084 -621714782 -948140683 -688241768 1730214951 -1824533784 -1675795210 2036076811 -673521985 -1567670143 1158026236 2138726545 118328796
REM
CELL 1.54180   50.00000   50.00000   50.00000   90.00000   90.00000   90.00000
LATT -1
SFAC C  
C      1  0.5271550000000  0.4732660000000  0.4247090000000 1.0
C      1  0.4910010000000  0.6070770000000  0.5164980000000 1.0
C      1  0.4982410000000  0.5880940000000  0.4965550000000 1.0
C      1  0.4016730000000  0.4968140000000  0.5554080000000 1.0
C      1  0.5621320000000  0.4857820000000  0.3924660000000 1.0
C      1  0.5740400000000  0.4832210000000  0.4396780000000 1.0
C      1  0.4199400000000  0.5168670000000  0.5570790000000 1.0
C      1  0.5063920000000  0.4848260000000  0.4086950000000 1.0
C      1  0.4900420000000  0.6337550000000  0.5104970000000 1.0
C      1  0.5746760000000  0.5321620000000  0.5276930000000 1.0
C      1  0.4743730000000  0.4484720000000  0.5594210000000 1.0
C      1  0.4990790000000  0.5399540000000  0.5763190000000 1.0
C      1  0.5032060000000  0.5404630000000  0.4967770000000 1.0
C      1  0.5585460000000  0.5550860000000  0.5309890000000 1.0
C      1  0.4286730000000  0.5438920000000  0.5162520000000 1.0
C      1  0.4924770000000  0.5076980000000  0.4172340000000 1.0
C      1  0.4639620000000  0.3988020000000  0.4753880000000 1.0
C      1  0.4827640000000  0.4330940000000  0.5369790000000 1.0
C      1  0.4511150000000  0.3810840000000  0.4612410000000 1.0
C      1  0.5541870000000  0.4807810000000  0.4194120000000 1.0
C      1  0.4737060000000  0.4874890000000  0.5309130000000 1.0
C      1  0.5353790000000  0.4243240000000  0.5759470000000 1.0
C      1  0.5693000000000  0.5086140000000  0.5431490000000 1.0
C      1  0.4590400000000  0.4946290000000  0.5773630000000 1.0
C      1  0.5421820000000  0.4904930000000  0.5096590000000 1.0
C      1  0.5116880000000  0.4300670000000  0.5337000000000 1.0
C      1  0.4808990000000  0.5829260000000  0.5640680000000 1.0
C      1  0.4310720000000  0.4517980000000  0.4826120000000 1.0
C      1  0.4278650000000  0.4664620000000  0.4605200000000 1.0
C      1  0.4528470000000  0.5413850000000  0.5047330000000 1.0
C      1  0.5304680000000  0.4396010000000  0.5530690000000 1.0
C      1  0.5418880000000  0.5102640000000  0.4895190000000 1.0
C      1  0.4790680000000  0.5329450000000  0.5101550000000 1.0
C      1  0.4476470000000  0.4774240000000  0.5192250000000 1.0
C      1  0.5694070000000  0.4647830000000  0.3764530000000 1.0
C      1  0.4339300000000  0.4873080000000  0.4450900000000 1.0
C      1  0.5920640000000  0.4621990000000  0.4436020000000 1.0
C      1  0.5624820000000  0.5115100000000  0.3830720000000 1.0
C      1  0.5373180000000  0.5669230000000  0.5197410000000 1.0
C      1  0.4994390000000  0.5234350000000  0.5537000000000 1.0
C      1  0.5071250000000  0.4512300000000  0.4696980000000 1.0
C      1  0.4654080000000  0.4317380000000  0.5130280000000 1.0
C      1  0.4713760000000  0.5221140000000  0.4289980000000 1.0
C      1  0.5165300000000  0.5202350000000  0.4819130000000 1.0
C      1  0.5003150000000  0.5000550000000  0.4706480000000 1.0
C      1  0.5037170000000  0.4272800000000  0.4847640000000 1.0
C      1  0.4741850000000  0.5490730000000  0.4364160000000 1.0
C      1  0.5524550000000  0.4869450000000  0.5355920000000 1.0
C      1  0.5442480000000  0.4640210000000  0.5494230000000 1.0
C      1  0.5391930000000  0.4099930000000  0.5973760000000 1.0
C      1  0.5200690000000  0.4550870000000  0.4451000000000 1.0
C      1  0.4481730000000  0.5076880000000  0.4356030000000 1.0
C      1  0.4305080000000  0.5604240000000  0.5620030000000 1.0
C      1  0.4452660000000  0.4517920000000  0.5068720000000 1.0
C      1  0.4851380000000  0.5981590000000  0.5425860000000 1.0
C      1  0.4830440000000  0.5156530000000  0.5322430000000 1.0
C      1  0.4432710000000  0.5179830000000  0.5750680000000 1.0
C      1  0.4769210000000  0.4184380000000  0.4900830000000 1.0
C      1  0.4995800000000  0.4729430000000  0.3849440000000 1.0
C      1  0.4979430000000  0.4748070000000  0.4828350000000 1.0
C      1  0.4711560000000  0.4765570000000  0.5591360000000 1.0
C      1  0.5142920000000  0.5656940000000  0.5037910000000 1.0
C      1  0.4770320000000  0.5579200000000  0.5765460000000 1.0
C      1  0.5839790000000  0.5281070000000  0.5008510000000 1.0
C      1  0.5757010000000  0.5059840000000  0.4560370000000 1.0
C      1  0.4863800000000  0.5866160000000  0.4710050000000 1.0
C      1  0.4509890000000  0.5466950000000  0.5775730000000 1.0
C      1  0.5203650000000  0.4233490000000  0.5074580000000 1.0
C      1  0.5177880000000  0.5389530000000  0.5960480000000 1.0
C      1  0.4190090000000  0.5422860000000  0.5425780000000 1.0
C      1  0.4786250000000  0.5713260000000  0.4504720000000 1.0
C      1  0.5677270000000  0.5174830000000  0.4801610000000 1.0
C      1  0.6082510000000  0.4420570000000  0.4469750000000 1.0
C      1  0.4928820000000  0.4755420000000  0.5105960000000 1.0
END
