TITL C-3866673-4222-233 0.000450051103046447 125000 -255.884403432896 0 0 43 (C1) n - 1
REM
REM in /home/nfs/bkarasulu/CARBON/AIRSS/Generating-Clusters/LCBOP/Only-C1/SD-CG/HFTN-CG/FIRE-CG
REM
REM
REM
REM
REM
REM ./C.cell (11c1c37f851c82e70ff6c80c92926a4b)
REM AIRSS Version 0.9.1 bugfix July 2018 build 013d7b7c2542+ Fri, 06 Jul 2018 19:26:36 +0100
REM compiler GCC version 9.2.1 20190827 (Red Hat 9.2.1-1)
REM options -cpp -mtune=generic -march=x86-64 -g -O0 -fpre-include=/usr/include/finclude/math-vector-fortran.h
REM seed -746179515 -1580555868 1305597471 -2118309286 1163905053 1299926756 -74150070 -335410904 1069691182 1280461449 -232290052 1159160645 89030097 284470890 -1245036631 1525151302 -657966690 120591798 1170435784 1830285405 784715867 -1498415552 -631027590 -1332115517 -1220206920 -473219259 1354701307 1398633269 1184067035 1743470321 1180382849 -695526099 225738003
REM
CELL 1.54180   50.00000   50.00000   50.00000   90.00000   90.00000   90.00000
LATT -1
SFAC C  
C      1  0.4726930000000  0.4479680000000  0.4795280000000 1.0
C      1  0.5104330000000  0.4998840000000  0.4699540000000 1.0
C      1  0.5030660000000  0.5041750000000  0.4977240000000 1.0
C      1  0.5254600000000  0.5644870000000  0.4847440000000 1.0
C      1  0.5121050000000  0.4716030000000  0.4619040000000 1.0
C      1  0.4962770000000  0.5337700000000  0.4353060000000 1.0
C      1  0.4900000000000  0.4261150000000  0.5367200000000 1.0
C      1  0.4476850000000  0.5015090000000  0.4722120000000 1.0
C      1  0.5408570000000  0.5341830000000  0.5517990000000 1.0
C      1  0.5301370000000  0.5453090000000  0.5050600000000 1.0
C      1  0.5859290000000  0.5001050000000  0.4959330000000 1.0
C      1  0.4747720000000  0.5837560000000  0.5063950000000 1.0
C      1  0.4457630000000  0.5232050000000  0.5154510000000 1.0
C      1  0.4641220000000  0.4670260000000  0.4994880000000 1.0
C      1  0.4571770000000  0.5512220000000  0.4761980000000 1.0
C      1  0.5436180000000  0.4392320000000  0.5126540000000 1.0
C      1  0.4480520000000  0.5266400000000  0.4866880000000 1.0
C      1  0.4914990000000  0.5109200000000  0.4502770000000 1.0
C      1  0.4687280000000  0.4924750000000  0.4535030000000 1.0
C      1  0.4789610000000  0.4226790000000  0.4897980000000 1.0
C      1  0.4829800000000  0.4650090000000  0.4581310000000 1.0
C      1  0.4858080000000  0.4839080000000  0.5085010000000 1.0
C      1  0.4540190000000  0.5121140000000  0.5388850000000 1.0
C      1  0.5024900000000  0.5695420000000  0.4683570000000 1.0
C      1  0.4764790000000  0.5717810000000  0.4807480000000 1.0
C      1  0.5678130000000  0.4807770000000  0.4959910000000 1.0
C      1  0.5495870000000  0.4601780000000  0.4933810000000 1.0
C      1  0.5327510000000  0.4542200000000  0.4697040000000 1.0
C      1  0.5025750000000  0.5589630000000  0.4422240000000 1.0
C      1  0.4409080000000  0.4804000000000  0.4903660000000 1.0
C      1  0.4978350000000  0.4181650000000  0.5108100000000 1.0
C      1  0.5207250000000  0.5219290000000  0.5649040000000 1.0
C      1  0.4891540000000  0.5435100000000  0.5273330000000 1.0
C      1  0.4793220000000  0.5686470000000  0.5284220000000 1.0
C      1  0.4720550000000  0.4702970000000  0.5584240000000 1.0
C      1  0.4800000000000  0.4454350000000  0.5523880000000 1.0
C      1  0.6036730000000  0.5191960000000  0.4953870000000 1.0
C      1  0.4959750000000  0.5114540000000  0.5660130000000 1.0
C      1  0.4726970000000  0.4985230000000  0.5559540000000 1.0
C      1  0.5067590000000  0.5292440000000  0.5102810000000 1.0
C      1  0.5271030000000  0.4258170000000  0.4730370000000 1.0
C      1  0.5472440000000  0.5447960000000  0.5276060000000 1.0
C      1  0.5247150000000  0.4198340000000  0.5018160000000 1.0
END
