TITL C-3866674-3872-667 -2.49681710895029e-07 125000 -478.383975813226 0 0 80 (C1) n - 1
REM
REM in /home/nfs/bkarasulu/CARBON/AIRSS/Generating-Clusters/LCBOP/Only-C1/SD-CG/FIRE-CG
REM
REM
REM
REM
REM
REM ./C.cell (11c1c37f851c82e70ff6c80c92926a4b)
REM AIRSS Version 0.9.1 bugfix July 2018 build 013d7b7c2542+ Fri, 06 Jul 2018 19:26:36 +0100
REM compiler GCC version 9.2.1 20190827 (Red Hat 9.2.1-1)
REM options -cpp -mtune=generic -march=x86-64 -g -O0 -fpre-include=/usr/include/finclude/math-vector-fortran.h
REM seed 1990181498 -1993987184 -101587434 2145231930 368346767 -2006375002 1361075104 2059508476 2089831637 -492227028 -1491669265 -536833944 -1572144081 864431837 216134825 -1631592517 -644507063 -819189084 -403167776 -1103204093 -547926324 -1897354392 -1468335836 -625792725 -1014570695 -1866663789 67725541 -1475688435 429054591 705526007 176649909 938580403 1208930841
REM
CELL 1.54180   50.00000   50.00000   50.00000   90.00000   90.00000   90.00000
LATT -1
SFAC C  
C      1  0.5193590000000  0.5815980000000  0.4435170000000 1.0
C      1  0.5648090000000  0.5225240000000  0.4530640000000 1.0
C      1  0.4553680000000  0.4304540000000  0.4640590000000 1.0
C      1  0.4904650000000  0.4812120000000  0.5329040000000 1.0
C      1  0.4600300000000  0.4998460000000  0.4364180000000 1.0
C      1  0.4618180000000  0.4457100000000  0.4404310000000 1.0
C      1  0.5332980000000  0.4158240000000  0.5035650000000 1.0
C      1  0.4849190000000  0.5439490000000  0.5851700000000 1.0
C      1  0.5087200000000  0.5211950000000  0.4808590000000 1.0
C      1  0.5640220000000  0.4845960000000  0.4819950000000 1.0
C      1  0.5561510000000  0.5086640000000  0.4964350000000 1.0
C      1  0.4506430000000  0.5250360000000  0.5517500000000 1.0
C      1  0.4914030000000  0.4830160000000  0.5616030000000 1.0
C      1  0.5275390000000  0.4851170000000  0.4165530000000 1.0
C      1  0.5161520000000  0.5851500000000  0.4920580000000 1.0
C      1  0.4462340000000  0.4970570000000  0.5593840000000 1.0
C      1  0.4689930000000  0.4908600000000  0.5771480000000 1.0
C      1  0.4785580000000  0.4178220000000  0.5069190000000 1.0
C      1  0.5550700000000  0.5487960000000  0.4437540000000 1.0
C      1  0.4294390000000  0.4251620000000  0.4709580000000 1.0
C      1  0.5224920000000  0.4289670000000  0.5262180000000 1.0
C      1  0.5221710000000  0.5667430000000  0.5653640000000 1.0
C      1  0.4672760000000  0.4909160000000  0.6043420000000 1.0
C      1  0.4971290000000  0.4403730000000  0.5752710000000 1.0
C      1  0.4597710000000  0.4782980000000  0.4964930000000 1.0
C      1  0.4447720000000  0.5534150000000  0.4850730000000 1.0
C      1  0.4828790000000  0.4342820000000  0.4251070000000 1.0
C      1  0.5589480000000  0.5693540000000  0.4660340000000 1.0
C      1  0.5469270000000  0.5628670000000  0.5275230000000 1.0
C      1  0.4338330000000  0.4829640000000  0.4936690000000 1.0
C      1  0.5348530000000  0.5844150000000  0.4693270000000 1.0
C      1  0.5764910000000  0.4618000000000  0.4912100000000 1.0
C      1  0.5039990000000  0.4194550000000  0.4359220000000 1.0
C      1  0.4886630000000  0.5382670000000  0.4890900000000 1.0
C      1  0.4884020000000  0.5834590000000  0.4798900000000 1.0
C      1  0.4535200000000  0.4722810000000  0.4360550000000 1.0
C      1  0.5457850000000  0.4092060000000  0.4536400000000 1.0
C      1  0.3821030000000  0.4917420000000  0.4906680000000 1.0
C      1  0.5286950000000  0.5154430000000  0.5009150000000 1.0
C      1  0.5386060000000  0.4481850000000  0.5403900000000 1.0
C      1  0.5327740000000  0.5603740000000  0.4291860000000 1.0
C      1  0.4794430000000  0.4335980000000  0.5534490000000 1.0
C      1  0.5720290000000  0.5286600000000  0.4825170000000 1.0
C      1  0.5503530000000  0.5228300000000  0.5606980000000 1.0
C      1  0.5070480000000  0.5592680000000  0.5878940000000 1.0
C      1  0.4417940000000  0.5482460000000  0.5366230000000 1.0
C      1  0.5080920000000  0.5812250000000  0.5434830000000 1.0
C      1  0.4860150000000  0.4745660000000  0.5057980000000 1.0
C      1  0.5920440000000  0.4423020000000  0.4987770000000 1.0
C      1  0.5239740000000  0.5793190000000  0.5188390000000 1.0
C      1  0.4536170000000  0.4468370000000  0.5511340000000 1.0
C      1  0.5283720000000  0.4103850000000  0.4766990000000 1.0
C      1  0.4724940000000  0.5607120000000  0.4862000000000 1.0
C      1  0.5152910000000  0.4784140000000  0.4627140000000 1.0
C      1  0.4799980000000  0.5843780000000  0.5438750000000 1.0
C      1  0.5370170000000  0.4798600000000  0.4429260000000 1.0
C      1  0.4076410000000  0.4867820000000  0.4922880000000 1.0
C      1  0.4324260000000  0.5479560000000  0.5100230000000 1.0
C      1  0.5482520000000  0.4953570000000  0.5612860000000 1.0
C      1  0.5180500000000  0.5190190000000  0.5264380000000 1.0
C      1  0.5597490000000  0.4930580000000  0.4538950000000 1.0
C      1  0.5744840000000  0.5564520000000  0.4859010000000 1.0
C      1  0.5042190000000  0.4988970000000  0.4125510000000 1.0
C      1  0.5025600000000  0.5043030000000  0.4593980000000 1.0
C      1  0.5441420000000  0.5503300000000  0.5540070000000 1.0
C      1  0.5060630000000  0.4668160000000  0.4867660000000 1.0
C      1  0.4557070000000  0.5726150000000  0.5433940000000 1.0
C      1  0.5317650000000  0.4144270000000  0.4303060000000 1.0
C      1  0.4935210000000  0.4251180000000  0.5298140000000 1.0
C      1  0.4982640000000  0.5273990000000  0.5420270000000 1.0
C      1  0.4365110000000  0.5399840000000  0.4616520000000 1.0
C      1  0.4393080000000  0.4704710000000  0.5500660000000 1.0
C      1  0.4774360000000  0.4193460000000  0.4788610000000 1.0
C      1  0.4926080000000  0.5878830000000  0.4513710000000 1.0
C      1  0.5107440000000  0.4657130000000  0.5731260000000 1.0
C      1  0.5362240000000  0.4688620000000  0.5601860000000 1.0
C      1  0.5016070000000  0.4141450000000  0.4649490000000 1.0
C      1  0.4878990000000  0.5058500000000  0.4349320000000 1.0
C      1  0.4424070000000  0.5201660000000  0.4445980000000 1.0
C      1  0.4777520000000  0.5320580000000  0.5606070000000 1.0
END
