TITL C-3866671-3735-479 0.167523268048323 125000 -604.232003468779 0 0 101 (C1) n - 1
REM
REM in /home/nfs/bkarasulu/CARBON/AIRSS/Generating-Clusters/LCBOP/Only-C1/SD-CG/FIRE-CG
REM
REM
REM
REM
REM
REM ./C.cell (11c1c37f851c82e70ff6c80c92926a4b)
REM AIRSS Version 0.9.1 bugfix July 2018 build 013d7b7c2542+ Fri, 06 Jul 2018 19:26:36 +0100
REM compiler GCC version 9.2.1 20190827 (Red Hat 9.2.1-1)
REM options -cpp -mtune=generic -march=x86-64 -g -O0 -fpre-include=/usr/include/finclude/math-vector-fortran.h
REM seed 1381478937 2027880122 -1572580815 826110303 2127428551 -1328203112 -66383349 -580701339 1876372538 1019274499 -1337643310 956399634 790144823 -1798060620 -438510270 1052165180 48782817 378266819 1318232716 -1323542574 1699106360 -858106639 -46300202 1906224909 -1131000243 -1576677761 1442843264 -793066760 1164187158 1159625048 -281645702 382165781 768514748
REM
CELL 1.54180   50.00000   50.00000   50.00000   90.00000   90.00000   90.00000
LATT -1
SFAC C  
C      1  0.4726280000000  0.5655700000000  0.5285210000000 1.0
C      1  0.4978920000000  0.4331760000000  0.5758750000000 1.0
C      1  0.4327850000000  0.4711910000000  0.4838630000000 1.0
C      1  0.5352320000000  0.5800860000000  0.5286110000000 1.0
C      1  0.6049190000000  0.4817120000000  0.4986900000000 1.0
C      1  0.5299630000000  0.5257020000000  0.3637210000000 1.0
C      1  0.5381800000000  0.3866530000000  0.4253050000000 1.0
C      1  0.4703400000000  0.5082880000000  0.5214090000000 1.0
C      1  0.5832890000000  0.5325520000000  0.4944270000000 1.0
C      1  0.5215350000000  0.4889560000000  0.5600270000000 1.0
C      1  0.5128150000000  0.4771110000000  0.4004050000000 1.0
C      1  0.4965100000000  0.4225190000000  0.5493220000000 1.0
C      1  0.5855140000000  0.4864300000000  0.5604230000000 1.0
C      1  0.4998080000000  0.4647470000000  0.4218350000000 1.0
C      1  0.4888020000000  0.3766540000000  0.4362410000000 1.0
C      1  0.5592440000000  0.5883270000000  0.4618780000000 1.0
C      1  0.5612160000000  0.4454270000000  0.5506800000000 1.0
C      1  0.4475390000000  0.5112250000000  0.5042720000000 1.0
C      1  0.4451800000000  0.4506350000000  0.5501050000000 1.0
C      1  0.4377420000000  0.5828400000000  0.5050170000000 1.0
C      1  0.4992820000000  0.4908550000000  0.3524180000000 1.0
C      1  0.4792100000000  0.5089190000000  0.4510780000000 1.0
C      1  0.5145320000000  0.5832580000000  0.5484620000000 1.0
C      1  0.4907110000000  0.5643670000000  0.5527680000000 1.0
C      1  0.5011970000000  0.4506950000000  0.5058630000000 1.0
C      1  0.4523990000000  0.5160840000000  0.4573490000000 1.0
C      1  0.4581340000000  0.4578470000000  0.5263340000000 1.0
C      1  0.5009400000000  0.4758750000000  0.3747330000000 1.0
C      1  0.5956780000000  0.4646040000000  0.5189680000000 1.0
C      1  0.4195560000000  0.5124470000000  0.5405570000000 1.0
C      1  0.5552110000000  0.4069490000000  0.4235070000000 1.0
C      1  0.5283210000000  0.4774790000000  0.5340720000000 1.0
C      1  0.5387920000000  0.5165100000000  0.3874410000000 1.0
C      1  0.5145170000000  0.3753430000000  0.4295890000000 1.0
C      1  0.4130400000000  0.4722880000000  0.5052750000000 1.0
C      1  0.5121180000000  0.5140480000000  0.3470800000000 1.0
C      1  0.4071380000000  0.5066070000000  0.4658440000000 1.0
C      1  0.4709770000000  0.4099690000000  0.5457500000000 1.0
C      1  0.4182160000000  0.5678950000000  0.4900600000000 1.0
C      1  0.4810520000000  0.6010320000000  0.4785200000000 1.0
C      1  0.5445870000000  0.4611910000000  0.5929890000000 1.0
C      1  0.4231910000000  0.5413640000000  0.5306320000000 1.0
C      1  0.5332590000000  0.5830750000000  0.4764000000000 1.0
C      1  0.4082520000000  0.5499890000000  0.4466220000000 1.0
C      1  0.4582960000000  0.4150400000000  0.4508810000000 1.0
C      1  0.4279440000000  0.5586140000000  0.4650210000000 1.0
C      1  0.4766960000000  0.5166910000000  0.6077760000000 1.0
C      1  0.4651700000000  0.4710920000000  0.5889390000000 1.0
C      1  0.3970670000000  0.5254860000000  0.4494260000000 1.0
C      1  0.5378230000000  0.5948550000000  0.5046630000000 1.0
C      1  0.4790590000000  0.5622470000000  0.5795780000000 1.0
C      1  0.4807930000000  0.4554440000000  0.4378800000000 1.0
C      1  0.5059030000000  0.5946250000000  0.4697500000000 1.0
C      1  0.4750090000000  0.5431440000000  0.5980200000000 1.0
C      1  0.4952460000000  0.4980160000000  0.5658900000000 1.0
C      1  0.5415640000000  0.4868860000000  0.5806000000000 1.0
C      1  0.4736540000000  0.5063550000000  0.6606520000000 1.0
C      1  0.5800980000000  0.5709160000000  0.4622010000000 1.0
C      1  0.4435050000000  0.4718070000000  0.5696320000000 1.0
C      1  0.4679250000000  0.3912090000000  0.4439990000000 1.0
C      1  0.5370200000000  0.4490880000000  0.5361720000000 1.0
C      1  0.4810800000000  0.4476440000000  0.5914060000000 1.0
C      1  0.4802870000000  0.4950780000000  0.5896550000000 1.0
C      1  0.5131200000000  0.5419550000000  0.5193200000000 1.0
C      1  0.4532530000000  0.5449550000000  0.4656460000000 1.0
C      1  0.4071390000000  0.4930090000000  0.5223480000000 1.0
C      1  0.5665950000000  0.4991620000000  0.5750850000000 1.0
C      1  0.4903060000000  0.4957520000000  0.5066570000000 1.0
C      1  0.6206980000000  0.4721910000000  0.4785100000000 1.0
C      1  0.5974730000000  0.5088200000000  0.4995230000000 1.0
C      1  0.4443200000000  0.5642210000000  0.5277030000000 1.0
C      1  0.5567710000000  0.4412280000000  0.5787010000000 1.0
C      1  0.4967220000000  0.5259740000000  0.4652900000000 1.0
C      1  0.5018880000000  0.5369130000000  0.5455630000000 1.0
C      1  0.5237240000000  0.5240460000000  0.4735950000000 1.0
C      1  0.4312600000000  0.4973170000000  0.5624790000000 1.0
C      1  0.5397320000000  0.5521560000000  0.5215950000000 1.0
C      1  0.5310150000000  0.4983010000000  0.4862070000000 1.0
C      1  0.5830760000000  0.4633000000000  0.5438400000000 1.0
C      1  0.4837710000000  0.5150660000000  0.5463770000000 1.0
C      1  0.5847220000000  0.5435530000000  0.4678240000000 1.0
C      1  0.4723560000000  0.4517910000000  0.5028020000000 1.0
C      1  0.5639230000000  0.4320200000000  0.4233010000000 1.0
C      1  0.4801380000000  0.5466610000000  0.4789400000000 1.0
C      1  0.5743860000000  0.5052060000000  0.4319470000000 1.0
C      1  0.4577560000000  0.5985880000000  0.4921620000000 1.0
C      1  0.4556750000000  0.4543370000000  0.4797630000000 1.0
C      1  0.5128720000000  0.4344200000000  0.5284350000000 1.0
C      1  0.4635150000000  0.4421640000000  0.4555430000000 1.0
C      1  0.5841180000000  0.5251560000000  0.4465430000000 1.0
C      1  0.4352250000000  0.5007250000000  0.4766960000000 1.0
C      1  0.4476870000000  0.4224060000000  0.5535620000000 1.0
C      1  0.4052960000000  0.5492470000000  0.5082030000000 1.0
C      1  0.5364150000000  0.4933580000000  0.4035610000000 1.0
C      1  0.5583870000000  0.4856190000000  0.4198740000000 1.0
C      1  0.5151720000000  0.4801590000000  0.5060310000000 1.0
C      1  0.5331680000000  0.5514120000000  0.4745420000000 1.0
C      1  0.5642770000000  0.5417890000000  0.5131920000000 1.0
C      1  0.4887480000000  0.5539610000000  0.5054140000000 1.0
C      1  0.4751140000000  0.5117980000000  0.6352080000000 1.0
C      1  0.5646030000000  0.4585310000000  0.4229390000000 1.0
END
