TITL C-3866670-4165-165 0.981052254040563 125000 -161.321718389172 0 0 28 (C1) n - 1
REM
REM in /home/nfs/bkarasulu/CARBON/AIRSS/Generating-Clusters/LCBOP/Only-C1/SD-CG/HFTN-CG/FIRE-CG
REM
REM
REM
REM
REM
REM ./C.cell (11c1c37f851c82e70ff6c80c92926a4b)
REM AIRSS Version 0.9.1 bugfix July 2018 build 013d7b7c2542+ Fri, 06 Jul 2018 19:26:36 +0100
REM compiler GCC version 9.2.1 20190827 (Red Hat 9.2.1-1)
REM options -cpp -mtune=generic -march=x86-64 -g -O0 -fpre-include=/usr/include/finclude/math-vector-fortran.h
REM seed -853814025 16343846 -1174036383 -105708168 -714839656 1742871481 -1173750723 -1476150294 222205768 -1494958089 440111286 -460236742 -997299010 -1473346962 1259825222 -1973134849 1127182938 -1766830606 -494007714 -109952608 -674759835 894108446 323563297 1173707498 -2054422588 2132359639 230063613 2081854994 648226431 548532860 1610963157 -1419472076 1621152392
REM
CELL 1.54180   50.00000   50.00000   50.00000   90.00000   90.00000   90.00000
LATT -1
SFAC C  
C      1  0.5202460000000  0.5974110000000  0.4714360000000 1.0
C      1  0.4768030000000  0.3898730000000  0.5570960000000 1.0
C      1  0.5312760000000  0.6209610000000  0.4663440000000 1.0
C      1  0.5643680000000  0.6916130000000  0.4510690000000 1.0
C      1  0.4705040000000  0.4151090000000  0.5650000000000 1.0
C      1  0.4516630000000  0.4435340000000  0.5306400000000 1.0
C      1  0.5186240000000  0.4249640000000  0.5267840000000 1.0
C      1  0.4871570000000  0.5267580000000  0.4867120000000 1.0
C      1  0.5754020000000  0.7151690000000  0.4459760000000 1.0
C      1  0.5533370000000  0.6680620000000  0.4561610000000 1.0
C      1  0.5107260000000  0.3978280000000  0.5244900000000 1.0
C      1  0.4997530000000  0.4423060000000  0.5389540000000 1.0
C      1  0.4981860000000  0.5503090000000  0.4816200000000 1.0
C      1  0.4732740000000  0.4380770000000  0.5482690000000 1.0
C      1  0.5423070000000  0.6445120000000  0.4612520000000 1.0
C      1  0.4876520000000  0.3829960000000  0.5316510000000 1.0
C      1  0.5432380000000  0.4340400000000  0.5176040000000 1.0
C      1  0.4699200000000  0.3741080000000  0.5115990000000 1.0
C      1  0.5092160000000  0.5738600000000  0.4765280000000 1.0
C      1  0.4473200000000  0.4335800000000  0.4851700000000 1.0
C      1  0.4557360000000  0.4545050000000  0.5035100000000 1.0
C      1  0.5662310000000  0.4426990000000  0.5089110000000 1.0
C      1  0.4371790000000  0.4101890000000  0.4993320000000 1.0
C      1  0.4761320000000  0.5032050000000  0.4918070000000 1.0
C      1  0.5862540000000  0.7383380000000  0.4409670000000 1.0
C      1  0.4492370000000  0.3849130000000  0.4981100000000 1.0
C      1  0.4653820000000  0.4795730000000  0.4970450000000 1.0
C      1  0.4328780000000  0.4215100000000  0.5259610000000 1.0
END
