TITL C-3866673-4222-170 -1.12250171079104e-06 125000 -366.534169475778 0 0 61 (C1) n - 1
REM
REM in /home/nfs/bkarasulu/CARBON/AIRSS/Generating-Clusters/LCBOP/Only-C1/SD-CG/HFTN-CG/FIRE-CG
REM
REM
REM
REM
REM
REM ./C.cell (11c1c37f851c82e70ff6c80c92926a4b)
REM AIRSS Version 0.9.1 bugfix July 2018 build 013d7b7c2542+ Fri, 06 Jul 2018 19:26:36 +0100
REM compiler GCC version 9.2.1 20190827 (Red Hat 9.2.1-1)
REM options -cpp -mtune=generic -march=x86-64 -g -O0 -fpre-include=/usr/include/finclude/math-vector-fortran.h
REM seed 1280500664 -1519265891 -1717392879 613327253 90790651 1244377678 -1186287342 859509606 1987586843 -524230907 -1276901022 -821962236 -496511333 1642270066 -999010857 1331362548 2058655817 -1517238537 1393476866 2044378010 1318154833 880800087 957127550 1017248676 2071841334 1929572837 670085528 1400866750 -872838843 386981578 -1820038921 -1157314485 -2076156303
REM
CELL 1.54180   50.00000   50.00000   50.00000   90.00000   90.00000   90.00000
LATT -1
SFAC C  
C      1  0.5136900000000  0.4213380000000  0.4654310000000 1.0
C      1  0.5261670000000  0.5622080000000  0.4674830000000 1.0
C      1  0.5277100000000  0.5153990000000  0.4456180000000 1.0
C      1  0.5193240000000  0.5550790000000  0.5442460000000 1.0
C      1  0.4991870000000  0.5210260000000  0.4355700000000 1.0
C      1  0.5464250000000  0.4831520000000  0.4080450000000 1.0
C      1  0.5050310000000  0.5214300000000  0.5788610000000 1.0
C      1  0.5016270000000  0.5649250000000  0.5148420000000 1.0
C      1  0.5109410000000  0.4515360000000  0.4232720000000 1.0
C      1  0.5324830000000  0.4600850000000  0.4071360000000 1.0
C      1  0.4711640000000  0.4762210000000  0.4776630000000 1.0
C      1  0.5442360000000  0.5384500000000  0.5527530000000 1.0
C      1  0.5381960000000  0.4684160000000  0.5659820000000 1.0
C      1  0.4266750000000  0.5065060000000  0.5621360000000 1.0
C      1  0.4257200000000  0.5037380000000  0.5143420000000 1.0
C      1  0.5150290000000  0.4292880000000  0.4910310000000 1.0
C      1  0.4058250000000  0.4282780000000  0.5172360000000 1.0
C      1  0.5609850000000  0.5276750000000  0.5304270000000 1.0
C      1  0.5636640000000  0.4745810000000  0.5236590000000 1.0
C      1  0.4525260000000  0.5673080000000  0.5079530000000 1.0
C      1  0.4581020000000  0.5033150000000  0.4235240000000 1.0
C      1  0.4908860000000  0.4912450000000  0.5312150000000 1.0
C      1  0.5433190000000  0.4654580000000  0.5049230000000 1.0
C      1  0.4612280000000  0.4612580000000  0.5532860000000 1.0
C      1  0.4522980000000  0.4542270000000  0.5259460000000 1.0
C      1  0.4878640000000  0.4980380000000  0.5826850000000 1.0
C      1  0.5442870000000  0.5354250000000  0.5075480000000 1.0
C      1  0.5032550000000  0.5650080000000  0.4842300000000 1.0
C      1  0.5234670000000  0.4901690000000  0.4651810000000 1.0
C      1  0.5326090000000  0.4934790000000  0.5556020000000 1.0
C      1  0.4697420000000  0.4618730000000  0.5033420000000 1.0
C      1  0.4782170000000  0.5347260000000  0.4516600000000 1.0
C      1  0.5172130000000  0.5016110000000  0.5325200000000 1.0
C      1  0.5450020000000  0.5055050000000  0.4229670000000 1.0
C      1  0.4554920000000  0.5152190000000  0.4500260000000 1.0
C      1  0.4787160000000  0.5572040000000  0.4693750000000 1.0
C      1  0.5403830000000  0.5383640000000  0.4609020000000 1.0
C      1  0.4865030000000  0.4974860000000  0.4210610000000 1.0
C      1  0.5183140000000  0.4520560000000  0.5076640000000 1.0
C      1  0.4740500000000  0.5589180000000  0.5238630000000 1.0
C      1  0.5336490000000  0.5176460000000  0.5714500000000 1.0
C      1  0.5727080000000  0.5020320000000  0.5183690000000 1.0
C      1  0.4965950000000  0.4768660000000  0.4620860000000 1.0
C      1  0.4736440000000  0.4764850000000  0.5727820000000 1.0
C      1  0.5568730000000  0.5301050000000  0.4823000000000 1.0
C      1  0.4547140000000  0.5668300000000  0.4809740000000 1.0
C      1  0.4943920000000  0.4725810000000  0.4330790000000 1.0
C      1  0.5406400000000  0.4450460000000  0.5772600000000 1.0
C      1  0.4947670000000  0.4661100000000  0.5166770000000 1.0
C      1  0.5124530000000  0.4285390000000  0.4395890000000 1.0
C      1  0.5460490000000  0.4829530000000  0.4816210000000 1.0
C      1  0.4683450000000  0.5105970000000  0.5368070000000 1.0
C      1  0.4969010000000  0.5426660000000  0.5608520000000 1.0
C      1  0.5667070000000  0.5035080000000  0.4876990000000 1.0
C      1  0.4511720000000  0.4964450000000  0.4711580000000 1.0
C      1  0.5201940000000  0.5202450000000  0.5112070000000 1.0
C      1  0.4748910000000  0.5381590000000  0.5432070000000 1.0
C      1  0.4285880000000  0.4401280000000  0.5217620000000 1.0
C      1  0.4400410000000  0.5057990000000  0.5382340000000 1.0
C      1  0.4996460000000  0.5201200000000  0.4933520000000 1.0
C      1  0.4294770000000  0.4999170000000  0.4883300000000 1.0
END
