TITL C-3866670-4165-554 -12720.7173393301 125000 -1093.2953930633 0 0 180 (C1) n - 1
REM
REM in /home/nfs/bkarasulu/CARBON/AIRSS/Generating-Clusters/LCBOP/Only-C1/SD-CG/FIRE-CG
REM
REM
REM
REM
REM
REM ./C.cell (11c1c37f851c82e70ff6c80c92926a4b)
REM AIRSS Version 0.9.1 bugfix July 2018 build 013d7b7c2542+ Fri, 06 Jul 2018 19:26:36 +0100
REM compiler GCC version 9.2.1 20190827 (Red Hat 9.2.1-1)
REM options -cpp -mtune=generic -march=x86-64 -g -O0 -fpre-include=/usr/include/finclude/math-vector-fortran.h
REM seed 686045016 -732769934 -68336518 -9251609 1295275690 848439800 -1947947300 -1629469604 1251199416 -2107338416 -71050066 1562131210 -1065743953 -153495731 441252329 -1165441783 -1213182196 1629337166 1751813246 -1601853053 485823632 1703156609 2034023251 -1504016289 1590500247 -441366027 -1524401622 742659101 -1986132834 -1876452493 1237161621 625894490 625140096
REM
CELL 1.54180   50.00000   50.00000   50.00000   90.00000   90.00000   90.00000
LATT -1
SFAC C  
C      1  0.5565250000000  0.3899440000000  0.4510620000000 1.0
C      1  0.5283750000000  0.5530080000000  0.5987010000000 1.0
C      1  0.5019740000000  0.5196010000000  0.3771690000000 1.0
C      1  0.5667980000000  0.5959030000000  0.4744680000000 1.0
C      1  0.7085320000000  0.5959400000000  0.5691840000000 1.0
C      1  0.6843200000000  0.5887850000000  0.5611300000000 1.0
C      1  0.4242150000000  0.4761580000000  0.4329420000000 1.0
C      1  0.5279890000000  0.6030470000000  0.3716930000000 1.0
C      1  0.5615200000000  0.4016280000000  0.4764550000000 1.0
C      1  0.4783730000000  0.5879430000000  0.4432540000000 1.0
C      1  0.6267960000000  0.4479240000000  0.5937760000000 1.0
C      1  0.4319790000000  0.5579790000000  0.5155750000000 1.0
C      1  0.4172830000000  0.4249920000000  0.4772010000000 1.0
C      1  0.4628160000000  0.4362640000000  0.5188210000000 1.0
C      1  0.4824800000000  0.4997710000000  0.3682230000000 1.0
C      1  0.4773050000000  0.5705380000000  0.6124410000000 1.0
C      1  0.4860970000000  0.4971240000000  0.6258420000000 1.0
C      1  0.4621940000000  0.4564170000000  0.4435830000000 1.0
C      1  0.5604050000000  0.4733620000000  0.5794840000000 1.0
C      1  0.5344360000000  0.5754750000000  0.5858080000000 1.0
C      1  0.5378090000000  0.4806360000000  0.3867720000000 1.0
C      1  0.5767270000000  0.5411140000000  0.4829890000000 1.0
C      1  0.3998590000000  0.5261520000000  0.4950350000000 1.0
C      1  0.4862320000000  0.4682640000000  0.5872430000000 1.0
C      1  0.4614050000000  0.5013680000000  0.5547730000000 1.0
C      1  0.5167970000000  0.4042580000000  0.4286450000000 1.0
C      1  0.4644800000000  0.3892570000000  0.5653630000000 1.0
C      1  0.5258740000000  0.5295130000000  0.5359500000000 1.0
C      1  0.5574260000000  0.4286770000000  0.5295190000000 1.0
C      1  0.4949380000000  0.4743210000000  0.3630510000000 1.0
C      1  0.7566600000000  0.6095900000000  0.5853630000000 1.0
C      1  0.4699040000000  0.6073260000000  0.5160850000000 1.0
C      1  0.5305230000000  0.5460090000000  0.4692680000000 1.0
C      1  0.5208940000000  0.5274190000000  0.5988530000000 1.0
C      1  0.4905720000000  0.4423160000000  0.4759360000000 1.0
C      1  0.5486530000000  0.4887190000000  0.5173990000000 1.0
C      1  0.4869870000000  0.4555210000000  0.4296490000000 1.0
C      1  0.4026360000000  0.4976190000000  0.5907420000000 1.0
C      1  0.5112290000000  0.5864280000000  0.4936270000000 1.0
C      1  0.5455260000000  0.5153800000000  0.4320320000000 1.0
C      1  0.6123180000000  0.5640840000000  0.5383280000000 1.0
C      1  0.4562110000000  0.3929610000000  0.4742600000000 1.0
C      1  0.5873020000000  0.4738460000000  0.4513230000000 1.0
C      1  0.4453860000000  0.5556700000000  0.3815350000000 1.0
C      1  0.5002680000000  0.4032340000000  0.5361060000000 1.0
C      1  0.4930910000000  0.4793850000000  0.4162100000000 1.0
C      1  0.4225670000000  0.4490910000000  0.5797960000000 1.0
C      1  0.5241850000000  0.5028660000000  0.5861850000000 1.0
C      1  0.4016630000000  0.4338980000000  0.5674800000000 1.0
C      1  0.4606870000000  0.5074680000000  0.5830150000000 1.0
C      1  0.4485940000000  0.6571660000000  0.5189610000000 1.0
C      1  0.5077470000000  0.4823770000000  0.5750850000000 1.0
C      1  0.4815430000000  0.5234560000000  0.6350760000000 1.0
C      1  0.4285820000000  0.5219170000000  0.4096350000000 1.0
C      1  0.4867170000000  0.6025360000000  0.4927750000000 1.0
C      1  0.5378820000000  0.5252080000000  0.4068400000000 1.0
C      1  0.4078230000000  0.4521050000000  0.5231350000000 1.0
C      1  0.5273340000000  0.4320350000000  0.5885370000000 1.0
C      1  0.4041010000000  0.4042190000000  0.5288650000000 1.0
C      1  0.5377810000000  0.4462700000000  0.5404010000000 1.0
C      1  0.4622520000000  0.4499580000000  0.4722540000000 1.0
C      1  0.5881970000000  0.5152580000000  0.4783100000000 1.0
C      1  0.3557620000000  0.5140150000000  0.4628320000000 1.0
C      1  0.4201890000000  0.5690920000000  0.4648500000000 1.0
C      1  0.5935920000000  0.4676860000000  0.4792030000000 1.0
C      1  0.4853230000000  0.3924840000000  0.5151540000000 1.0
C      1  0.5806750000000  0.4416460000000  0.5198560000000 1.0
C      1  0.4707440000000  0.5021860000000  0.4520790000000 1.0
C      1  0.5445320000000  0.4092830000000  0.4329970000000 1.0
C      1  0.4590370000000  0.6333260000000  0.5176560000000 1.0
C      1  0.4721710000000  0.5801660000000  0.4155740000000 1.0
C      1  0.5772960000000  0.4872970000000  0.5201310000000 1.0
C      1  0.5282110000000  0.5090550000000  0.3858250000000 1.0
C      1  0.4234960000000  0.4868250000000  0.4781100000000 1.0
C      1  0.5795880000000  0.4976790000000  0.4055560000000 1.0
C      1  0.5843010000000  0.4649720000000  0.5651030000000 1.0
C      1  0.4752680000000  0.5910600000000  0.5635650000000 1.0
C      1  0.6601830000000  0.5812130000000  0.5532350000000 1.0
C      1  0.4473710000000  0.5670750000000  0.4082030000000 1.0
C      1  0.5070180000000  0.4102450000000  0.5954860000000 1.0
C      1  0.5268010000000  0.3924840000000  0.5370490000000 1.0
C      1  0.4231320000000  0.4925840000000  0.4091710000000 1.0
C      1  0.4027300000000  0.5239190000000  0.5843050000000 1.0
C      1  0.4805060000000  0.3852580000000  0.4888460000000 1.0
C      1  0.4960780000000  0.5029890000000  0.4344120000000 1.0
C      1  0.5097230000000  0.4819220000000  0.6321100000000 1.0
C      1  0.4326750000000  0.4013310000000  0.4884660000000 1.0
C      1  0.4140550000000  0.4732570000000  0.5918730000000 1.0
C      1  0.4484120000000  0.4441240000000  0.5681080000000 1.0
C      1  0.4858750000000  0.5648410000000  0.4587620000000 1.0
C      1  0.4932470000000  0.5703390000000  0.3975110000000 1.0
C      1  0.5349670000000  0.5904810000000  0.5638680000000 1.0
C      1  0.4737160000000  0.5220280000000  0.4728860000000 1.0
C      1  0.4758170000000  0.4453170000000  0.5746510000000 1.0
C      1  0.4142610000000  0.4454980000000  0.4478170000000 1.0
C      1  0.4846370000000  0.3961070000000  0.5843290000000 1.0
C      1  0.5016550000000  0.3814960000000  0.4697750000000 1.0
C      1  0.4487730000000  0.4390190000000  0.5404040000000 1.0
C      1  0.5644240000000  0.5778140000000  0.4540650000000 1.0
C      1  0.5267850000000  0.4685620000000  0.4588420000000 1.0
C      1  0.6064350000000  0.4563620000000  0.5798720000000 1.0
C      1  0.4400800000000  0.5106030000000  0.5158050000000 1.0
C      1  0.5494830000000  0.5004020000000  0.5725580000000 1.0
C      1  0.4597860000000  0.4957870000000  0.5028820000000 1.0
C      1  0.4418670000000  0.5273620000000  0.3826090000000 1.0
C      1  0.5613740000000  0.4322480000000  0.4735320000000 1.0
C      1  0.4184000000000  0.4457900000000  0.4972820000000 1.0
C      1  0.4963470000000  0.4267510000000  0.5532260000000 1.0
C      1  0.4963000000000  0.5215670000000  0.4918590000000 1.0
C      1  0.5876250000000  0.5537480000000  0.5306520000000 1.0
C      1  0.5834330000000  0.4439120000000  0.4907880000000 1.0
C      1  0.5344980000000  0.5894690000000  0.5105480000000 1.0
C      1  0.4931040000000  0.5289900000000  0.4208220000000 1.0
C      1  0.4482610000000  0.5315260000000  0.5896370000000 1.0
C      1  0.4799960000000  0.4793210000000  0.5025340000000 1.0
C      1  0.4725170000000  0.4890830000000  0.6015810000000 1.0
C      1  0.5699270000000  0.4591290000000  0.4304280000000 1.0
C      1  0.5860480000000  0.4653050000000  0.5362690000000 1.0
C      1  0.5740000000000  0.5125640000000  0.4294010000000 1.0
C      1  0.4393160000000  0.5724980000000  0.5382310000000 1.0
C      1  0.7327960000000  0.6028550000000  0.5773120000000 1.0
C      1  0.4381260000000  0.4631300000000  0.4853260000000 1.0
C      1  0.4645640000000  0.5471890000000  0.4645490000000 1.0
C      1  0.5308840000000  0.4680330000000  0.6220920000000 1.0
C      1  0.4165360000000  0.4760680000000  0.5369060000000 1.0
C      1  0.5427530000000  0.4555760000000  0.5987160000000 1.0
C      1  0.5605100000000  0.3900460000000  0.5017350000000 1.0
C      1  0.5375900000000  0.4508510000000  0.4807910000000 1.0
C      1  0.4662300000000  0.3969290000000  0.4465650000000 1.0
C      1  0.5047320000000  0.4513610000000  0.4508680000000 1.0
C      1  0.4954180000000  0.3932740000000  0.4437310000000 1.0
C      1  0.5914680000000  0.4921130000000  0.4957770000000 1.0
C      1  0.4947490000000  0.5416010000000  0.3954750000000 1.0
C      1  0.5730800000000  0.5367680000000  0.5474280000000 1.0
C      1  0.4263470000000  0.5639050000000  0.5622060000000 1.0
C      1  0.5232030000000  0.5002530000000  0.4507200000000 1.0
C      1  0.4786690000000  0.5495010000000  0.6290720000000 1.0
C      1  0.5578010000000  0.5515860000000  0.4632000000000 1.0
C      1  0.5191230000000  0.4647800000000  0.3719410000000 1.0
C      1  0.5399460000000  0.5043920000000  0.4962930000000 1.0
C      1  0.5611560000000  0.5847380000000  0.5003250000000 1.0
C      1  0.5228710000000  0.5177490000000  0.4764270000000 1.0
C      1  0.5103920000000  0.5874840000000  0.3839360000000 1.0
C      1  0.5763910000000  0.5599230000000  0.5054970000000 1.0
C      1  0.4508600000000  0.4826100000000  0.4432190000000 1.0
C      1  0.4326510000000  0.4573530000000  0.3743820000000 1.0
C      1  0.3990920000000  0.4299050000000  0.5395370000000 1.0
C      1  0.3750720000000  0.5399820000000  0.4995130000000 1.0
C      1  0.3712720000000  0.5573400000000  0.5202260000000 1.0
C      1  0.4624390000000  0.5897180000000  0.5382560000000 1.0
C      1  0.3784340000000  0.4993250000000  0.4606820000000 1.0
C      1  0.5002710000000  0.5225380000000  0.5219920000000 1.0
C      1  0.4385630000000  0.5515110000000  0.4532200000000 1.0
C      1  0.4482710000000  0.3878520000000  0.5420390000000 1.0
C      1  0.4366010000000  0.4821590000000  0.3849290000000 1.0
C      1  0.3541020000000  0.5336660000000  0.4814290000000 1.0
C      1  0.4049020000000  0.5895190000000  0.4702570000000 1.0
C      1  0.5220780000000  0.4356660000000  0.5606270000000 1.0
C      1  0.5619770000000  0.4740800000000  0.4041100000000 1.0
C      1  0.5590140000000  0.4345130000000  0.4409640000000 1.0
C      1  0.4543160000000  0.5027850000000  0.3735970000000 1.0
C      1  0.4772820000000  0.5844020000000  0.5894810000000 1.0
C      1  0.4295170000000  0.3946500000000  0.5187030000000 1.0
C      1  0.5105380000000  0.5658190000000  0.4732980000000 1.0
C      1  0.4239560000000  0.5422530000000  0.5801770000000 1.0
C      1  0.5322340000000  0.5951210000000  0.5378550000000 1.0
C      1  0.5071200000000  0.4834110000000  0.5467290000000 1.0
C      1  0.4351610000000  0.5460210000000  0.4255260000000 1.0
C      1  0.4240840000000  0.5322710000000  0.5083050000000 1.0
C      1  0.4010990000000  0.5035920000000  0.4770590000000 1.0
C      1  0.5303960000000  0.4729000000000  0.5327580000000 1.0
C      1  0.4776830000000  0.6082050000000  0.4646880000000 1.0
C      1  0.5506930000000  0.4014600000000  0.5253280000000 1.0
C      1  0.5873960000000  0.5032440000000  0.4516070000000 1.0
C      1  0.5498000000000  0.5217300000000  0.5518770000000 1.0
C      1  0.5454680000000  0.6182290000000  0.3597100000000 1.0
C      1  0.6361510000000  0.5730350000000  0.5456340000000 1.0
C      1  0.4361900000000  0.4964860000000  0.5403800000000 1.0
C      1  0.4870130000000  0.5029410000000  0.5393570000000 1.0
C      1  0.5133680000000  0.4398150000000  0.4932590000000 1.0
END
