TITL C-3866669-3764-525 9698.83033122909 125000 -910.978583170918 0 0 151 (C1) n - 1
REM
REM in /home/nfs/bkarasulu/CARBON/AIRSS/Generating-Clusters/LCBOP/Only-C1/SD-CG/FIRE-CG
REM
REM
REM
REM
REM
REM ./C.cell (11c1c37f851c82e70ff6c80c92926a4b)
REM AIRSS Version 0.9.1 bugfix July 2018 build 013d7b7c2542+ Fri, 06 Jul 2018 19:26:36 +0100
REM compiler GCC version 9.2.1 20190827 (Red Hat 9.2.1-1)
REM options -cpp -mtune=generic -march=x86-64 -g -O0 -fpre-include=/usr/include/finclude/math-vector-fortran.h
REM seed -430126298 -2049755044 1336054745 1679690158 -1189045839 1843668131 -734865212 -927838843 829157558 280420847 -2097384803 1496560871 1598223807 1329312234 -451775961 950551565 2067007375 1149485055 743867759 565563761 590337801 2093794424 -1645803033 68929441 -1373847181 993587855 -676034773 -600957294 -1625522797 1410778158 -808571070 -2140886295 -1711067277
REM
CELL 1.54180   50.00000   50.00000   50.00000   90.00000   90.00000   90.00000
LATT -1
SFAC C  
C      1  0.4186980000000  0.5255000000000  0.5997820000000 1.0
C      1  0.4755910000000  0.5195760000000  0.5155580000000 1.0
C      1  0.5654460000000  0.5869070000000  0.4330390000000 1.0
C      1  0.5183180000000  0.5086490000000  0.5059330000000 1.0
C      1  0.4409400000000  0.4231670000000  0.5380640000000 1.0
C      1  0.4277640000000  0.4582510000000  0.4771840000000 1.0
C      1  0.4831380000000  0.5548630000000  0.5468830000000 1.0
C      1  0.4682410000000  0.4807420000000  0.4946440000000 1.0
C      1  0.5857490000000  0.5068520000000  0.5564810000000 1.0
C      1  0.5041960000000  0.4873610000000  0.4141480000000 1.0
C      1  0.4165020000000  0.5845830000000  0.5204190000000 1.0
C      1  0.4260020000000  0.4215360000000  0.5639650000000 1.0
C      1  0.7051070000000  0.4300500000000  0.4212480000000 1.0
C      1  0.4111830000000  0.4670600000000  0.5192850000000 1.0
C      1  0.5701290000000  0.5262620000000  0.4400770000000 1.0
C      1  0.5819270000000  0.5014020000000  0.4469120000000 1.0
C      1  0.4499900000000  0.5296920000000  0.5130060000000 1.0
C      1  0.4516150000000  0.5980260000000  0.4513110000000 1.0
C      1  0.4408080000000  0.4804760000000  0.4901140000000 1.0
C      1  0.5678280000000  0.5474600000000  0.5072930000000 1.0
C      1  0.4752130000000  0.4244370000000  0.5712600000000 1.0
C      1  0.5298060000000  0.4153170000000  0.4782410000000 1.0
C      1  0.4722500000000  0.4999830000000  0.4485810000000 1.0
C      1  0.5984080000000  0.4946630000000  0.4690660000000 1.0
C      1  0.5157310000000  0.4353150000000  0.4928600000000 1.0
C      1  0.4876830000000  0.4401690000000  0.4869880000000 1.0
C      1  0.4786690000000  0.4537080000000  0.4281060000000 1.0
C      1  0.4467940000000  0.4136120000000  0.4780920000000 1.0
C      1  0.5465700000000  0.5013240000000  0.5080180000000 1.0
C      1  0.5064940000000  0.5698290000000  0.5384900000000 1.0
C      1  0.4879700000000  0.5268060000000  0.5405150000000 1.0
C      1  0.5256000000000  0.6106340000000  0.5252970000000 1.0
C      1  0.4782790000000  0.5197210000000  0.3926110000000 1.0
C      1  0.3855330000000  0.4692040000000  0.5059680000000 1.0
C      1  0.4589470000000  0.6420830000000  0.5079910000000 1.0
C      1  0.5567850000000  0.4753420000000  0.5093830000000 1.0
C      1  0.5246910000000  0.4332050000000  0.5841670000000 1.0
C      1  0.5445670000000  0.6551060000000  0.5489470000000 1.0
C      1  0.5268060000000  0.4802610000000  0.5770920000000 1.0
C      1  0.4799990000000  0.5945560000000  0.4532620000000 1.0
C      1  0.4866960000000  0.3925830000000  0.4949640000000 1.0
C      1  0.5200100000000  0.5378690000000  0.4974310000000 1.0
C      1  0.3891230000000  0.4926390000000  0.4795730000000 1.0
C      1  0.5090430000000  0.4542120000000  0.5385610000000 1.0
C      1  0.4478800000000  0.4227220000000  0.5830620000000 1.0
C      1  0.5187190000000  0.4084280000000  0.5303830000000 1.0
C      1  0.4016240000000  0.5186190000000  0.4860890000000 1.0
C      1  0.6288750000000  0.4269190000000  0.4684280000000 1.0
C      1  0.6075400000000  0.5856280000000  0.4559030000000 1.0
C      1  0.5114260000000  0.5124890000000  0.5431180000000 1.0
C      1  0.4703560000000  0.5008820000000  0.6480200000000 1.0
C      1  0.5081620000000  0.4007640000000  0.4666020000000 1.0
C      1  0.4398660000000  0.5105990000000  0.6113630000000 1.0
C      1  0.5326420000000  0.5030120000000  0.5594150000000 1.0
C      1  0.4729790000000  0.5994260000000  0.5281010000000 1.0
C      1  0.4329200000000  0.5126750000000  0.5551170000000 1.0
C      1  0.4236060000000  0.5259740000000  0.4678610000000 1.0
C      1  0.4136680000000  0.5739850000000  0.4652980000000 1.0
C      1  0.5501560000000  0.5994500000000  0.4160620000000 1.0
C      1  0.3924890000000  0.5399910000000  0.5026490000000 1.0
C      1  0.5578930000000  0.5753560000000  0.5066170000000 1.0
C      1  0.4552650000000  0.6153630000000  0.5121020000000 1.0
C      1  0.6007000000000  0.5151540000000  0.4893990000000 1.0
C      1  0.5702660000000  0.4507720000000  0.5790410000000 1.0
C      1  0.5258880000000  0.4369730000000  0.5215770000000 1.0
C      1  0.4821360000000  0.4848190000000  0.6034590000000 1.0
C      1  0.5015490000000  0.5975960000000  0.5331660000000 1.0
C      1  0.5249710000000  0.6035330000000  0.4787620000000 1.0
C      1  0.5070990000000  0.5528810000000  0.4486040000000 1.0
C      1  0.4671850000000  0.4311570000000  0.4671040000000 1.0
C      1  0.4596750000000  0.5726210000000  0.5352840000000 1.0
C      1  0.4483210000000  0.5131060000000  0.4585630000000 1.0
C      1  0.5390440000000  0.5977320000000  0.5028910000000 1.0
C      1  0.4591370000000  0.3904460000000  0.4878210000000 1.0
C      1  0.4123210000000  0.4939480000000  0.4265450000000 1.0
C      1  0.6060300000000  0.5063380000000  0.5385090000000 1.0
C      1  0.4966630000000  0.4407130000000  0.5823880000000 1.0
C      1  0.4407060000000  0.5910260000000  0.4252770000000 1.0
C      1  0.4325650000000  0.5937900000000  0.4729240000000 1.0
C      1  0.3780980000000  0.4367210000000  0.5442940000000 1.0
C      1  0.5429290000000  0.4558180000000  0.5808260000000 1.0
C      1  0.4190090000000  0.5459750000000  0.4252510000000 1.0
C      1  0.5511750000000  0.5291050000000  0.4192930000000 1.0
C      1  0.4508230000000  0.4931690000000  0.5664100000000 1.0
C      1  0.4776000000000  0.4823150000000  0.4259950000000 1.0
C      1  0.4262880000000  0.4430890000000  0.5236960000000 1.0
C      1  0.6169490000000  0.5121990000000  0.5129510000000 1.0
C      1  0.4961770000000  0.5004180000000  0.4657640000000 1.0
C      1  0.6129720000000  0.4707340000000  0.4695260000000 1.0
C      1  0.4826910000000  0.4611980000000  0.5334680000000 1.0
C      1  0.5827320000000  0.4057160000000  0.5615710000000 1.0
C      1  0.4455530000000  0.5546510000000  0.3898920000000 1.0
C      1  0.4223380000000  0.5327970000000  0.5724690000000 1.0
C      1  0.5354810000000  0.6334940000000  0.5375680000000 1.0
C      1  0.5055880000000  0.4432270000000  0.4317960000000 1.0
C      1  0.5635660000000  0.3908260000000  0.5503400000000 1.0
C      1  0.3979410000000  0.4269860000000  0.5606560000000 1.0
C      1  0.5195520000000  0.5444180000000  0.4704200000000 1.0
C      1  0.5288120000000  0.5264050000000  0.4044310000000 1.0
C      1  0.5521560000000  0.4503990000000  0.5185220000000 1.0
C      1  0.6440210000000  0.5162470000000  0.5108540000000 1.0
C      1  0.4896440000000  0.5712260000000  0.4404040000000 1.0
C      1  0.5793280000000  0.4310080000000  0.4677330000000 1.0
C      1  0.6044810000000  0.4426330000000  0.4685860000000 1.0
C      1  0.3972780000000  0.5649700000000  0.5120940000000 1.0
C      1  0.4313240000000  0.5772250000000  0.5449270000000 1.0
C      1  0.4214690000000  0.5596860000000  0.5644260000000 1.0
C      1  0.4505650000000  0.5261640000000  0.3958800000000 1.0
C      1  0.4326160000000  0.6008280000000  0.5010110000000 1.0
C      1  0.4242500000000  0.4309780000000  0.4785740000000 1.0
C      1  0.7170250000000  0.4279090000000  0.3981620000000 1.0
C      1  0.4334500000000  0.4459590000000  0.4293830000000 1.0
C      1  0.4585220000000  0.4408880000000  0.4414640000000 1.0
C      1  0.6929180000000  0.4322940000000  0.4446660000000 1.0
C      1  0.5388220000000  0.3918330000000  0.5403670000000 1.0
C      1  0.4266000000000  0.4893980000000  0.5132890000000 1.0
C      1  0.5006370000000  0.6075790000000  0.4675860000000 1.0
C      1  0.4895700000000  0.5020330000000  0.4954940000000 1.0
C      1  0.5839520000000  0.5734790000000  0.4491330000000 1.0
C      1  0.5204060000000  0.5562330000000  0.5185030000000 1.0
C      1  0.4217150000000  0.4679610000000  0.4189790000000 1.0
C      1  0.6924260000000  0.4299440000000  0.4925850000000 1.0
C      1  0.5047740000000  0.5119650000000  0.4006300000000 1.0
C      1  0.3935920000000  0.4912400000000  0.4498270000000 1.0
C      1  0.5055610000000  0.4152730000000  0.4408660000000 1.0
C      1  0.6794850000000  0.4351010000000  0.4690380000000 1.0
C      1  0.4700680000000  0.4147570000000  0.5418280000000 1.0
C      1  0.3960330000000  0.5319250000000  0.6135550000000 1.0
C      1  0.5206170000000  0.4694930000000  0.4323140000000 1.0
C      1  0.4909550000000  0.4021740000000  0.5234930000000 1.0
C      1  0.4471700000000  0.5114270000000  0.6386900000000 1.0
C      1  0.5858800000000  0.4301120000000  0.5721640000000 1.0
C      1  0.4573150000000  0.4955650000000  0.5938860000000 1.0
C      1  0.4769440000000  0.4576200000000  0.5062850000000 1.0
C      1  0.5586830000000  0.5240910000000  0.5229320000000 1.0
C      1  0.3695260000000  0.4515110000000  0.5224510000000 1.0
C      1  0.4993750000000  0.4705940000000  0.5863170000000 1.0
C      1  0.5588700000000  0.5138770000000  0.5507430000000 1.0
C      1  0.4648100000000  0.4746730000000  0.5504310000000 1.0
C      1  0.5565710000000  0.4177760000000  0.4715670000000 1.0
C      1  0.5844000000000  0.5389290000000  0.4851850000000 1.0
C      1  0.5193250000000  0.4848910000000  0.4570730000000 1.0
C      1  0.4262460000000  0.5186540000000  0.4144810000000 1.0
C      1  0.4162900000000  0.5490520000000  0.4529390000000 1.0
C      1  0.4525640000000  0.5572000000000  0.5100030000000 1.0
C      1  0.4874210000000  0.4883040000000  0.6310970000000 1.0
C      1  0.4320440000000  0.5680890000000  0.4111100000000 1.0
C      1  0.6420380000000  0.4700930000000  0.4696610000000 1.0
C      1  0.4316290000000  0.5131730000000  0.5267110000000 1.0
C      1  0.5784590000000  0.5471890000000  0.4581130000000 1.0
C      1  0.6527490000000  0.4432330000000  0.4690560000000 1.0
END
