TITL C-3866674-3872-392 0.000331543737610405 125000 -1109.70692938724 0 0 179 (C1) n - 1
REM
REM in /home/nfs/bkarasulu/CARBON/AIRSS/Generating-Clusters/LCBOP/Only-C1/SD-CG/FIRE-CG
REM
REM
REM
REM
REM
REM ./C.cell (11c1c37f851c82e70ff6c80c92926a4b)
REM AIRSS Version 0.9.1 bugfix July 2018 build 013d7b7c2542+ Fri, 06 Jul 2018 19:26:36 +0100
REM compiler GCC version 9.2.1 20190827 (Red Hat 9.2.1-1)
REM options -cpp -mtune=generic -march=x86-64 -g -O0 -fpre-include=/usr/include/finclude/math-vector-fortran.h
REM seed -2040562335 -1884652709 -1037444032 1967539440 -889222845 159495973 -513195674 2026601130 -1159039731 1477125236 -796417709 981950289 -72386130 2040949358 1757517639 1246840582 -1687799099 -1176591760 -1887720718 1923873608 -810313778 1387554972 916263994 1565957461 -1986777501 -18239873 -1696768178 -1190081592 -1066467295 -1128340587 1228993551 690302358 -1019002067
REM
CELL 1.54180   50.00000   50.00000   50.00000   90.00000   90.00000   90.00000
LATT -1
SFAC C  
C      1  0.6165680000000  0.5281510000000  0.4731880000000 1.0
C      1  0.5959660000000  0.4997030000000  0.5446910000000 1.0
C      1  0.5674790000000  0.4130930000000  0.4127480000000 1.0
C      1  0.5747520000000  0.5424360000000  0.5438490000000 1.0
C      1  0.5755980000000  0.5787560000000  0.4360780000000 1.0
C      1  0.5597250000000  0.3993430000000  0.4747120000000 1.0
C      1  0.3857950000000  0.4495410000000  0.5079070000000 1.0
C      1  0.5247010000000  0.6022790000000  0.4973640000000 1.0
C      1  0.4729760000000  0.4898060000000  0.5705300000000 1.0
C      1  0.6032260000000  0.5719330000000  0.4799620000000 1.0
C      1  0.4458930000000  0.4807610000000  0.5759420000000 1.0
C      1  0.5035610000000  0.4172940000000  0.4937150000000 1.0
C      1  0.4233880000000  0.5844890000000  0.5455400000000 1.0
C      1  0.5312110000000  0.5038460000000  0.5484620000000 1.0
C      1  0.5371850000000  0.4495740000000  0.4250060000000 1.0
C      1  0.5631230000000  0.4380360000000  0.4244090000000 1.0
C      1  0.5121940000000  0.5139240000000  0.4326940000000 1.0
C      1  0.5685730000000  0.3757460000000  0.4842200000000 1.0
C      1  0.4362070000000  0.3887010000000  0.5414670000000 1.0
C      1  0.5069130000000  0.5635730000000  0.6012130000000 1.0
C      1  0.4905380000000  0.4347880000000  0.4145430000000 1.0
C      1  0.4984650000000  0.4494860000000  0.4565140000000 1.0
C      1  0.4185860000000  0.5398460000000  0.4214560000000 1.0
C      1  0.6081430000000  0.5403550000000  0.4481600000000 1.0
C      1  0.5718150000000  0.3882830000000  0.4045350000000 1.0
C      1  0.5094910000000  0.4956890000000  0.4548360000000 1.0
C      1  0.5346360000000  0.5920920000000  0.5715630000000 1.0
C      1  0.5997020000000  0.4610000000000  0.4931890000000 1.0
C      1  0.6156720000000  0.5462040000000  0.5229800000000 1.0
C      1  0.4946580000000  0.6054430000000  0.5401110000000 1.0
C      1  0.4858420000000  0.5891200000000  0.4527240000000 1.0
C      1  0.5992260000000  0.5276850000000  0.5394940000000 1.0
C      1  0.4376960000000  0.3876940000000  0.4903160000000 1.0
C      1  0.5555350000000  0.5548860000000  0.5903320000000 1.0
C      1  0.5443620000000  0.4852880000000  0.6077120000000 1.0
C      1  0.6178060000000  0.4232970000000  0.4660180000000 1.0
C      1  0.6068930000000  0.4392920000000  0.4469980000000 1.0
C      1  0.5073030000000  0.5930900000000  0.5625350000000 1.0
C      1  0.4424070000000  0.4528840000000  0.5659630000000 1.0
C      1  0.4526650000000  0.5810160000000  0.4193680000000 1.0
C      1  0.5175280000000  0.5126500000000  0.5725120000000 1.0
C      1  0.4888290000000  0.4468510000000  0.5441320000000 1.0
C      1  0.4035990000000  0.5025850000000  0.5603370000000 1.0
C      1  0.4593320000000  0.3988250000000  0.4730960000000 1.0
C      1  0.4361930000000  0.4045370000000  0.5631040000000 1.0
C      1  0.5117430000000  0.5312370000000  0.4860580000000 1.0
C      1  0.5942090000000  0.4074470000000  0.5348810000000 1.0
C      1  0.3952060000000  0.4676730000000  0.4437520000000 1.0
C      1  0.5123060000000  0.4384470000000  0.4338400000000 1.0
C      1  0.5149220000000  0.5018290000000  0.5262270000000 1.0
C      1  0.5535800000000  0.5561360000000  0.4953680000000 1.0
C      1  0.6067430000000  0.5939120000000  0.5412360000000 1.0
C      1  0.6451650000000  0.4698620000000  0.5060240000000 1.0
C      1  0.4126900000000  0.3810860000000  0.4817450000000 1.0
C      1  0.4404410000000  0.4793120000000  0.3837600000000 1.0
C      1  0.4336230000000  0.4534770000000  0.4289310000000 1.0
C      1  0.5081720000000  0.4808940000000  0.4020900000000 1.0
C      1  0.5818820000000  0.6022380000000  0.5477930000000 1.0
C      1  0.4141520000000  0.5156800000000  0.4055630000000 1.0
C      1  0.4871250000000  0.5153810000000  0.5680980000000 1.0
C      1  0.6137070000000  0.5479920000000  0.4943860000000 1.0
C      1  0.4905570000000  0.5748310000000  0.5798480000000 1.0
C      1  0.4045760000000  0.5833950000000  0.5247720000000 1.0
C      1  0.5602650000000  0.5879040000000  0.5585070000000 1.0
C      1  0.5774250000000  0.4226340000000  0.5522090000000 1.0
C      1  0.5143910000000  0.5624950000000  0.5205450000000 1.0
C      1  0.4632370000000  0.5316110000000  0.4346500000000 1.0
C      1  0.5237080000000  0.5913480000000  0.4234040000000 1.0
C      1  0.5798890000000  0.4816770000000  0.4368220000000 1.0
C      1  0.4277670000000  0.4306880000000  0.4465360000000 1.0
C      1  0.4962000000000  0.5056930000000  0.4108150000000 1.0
C      1  0.5356610000000  0.5091060000000  0.5955940000000 1.0
C      1  0.4900570000000  0.4758530000000  0.4519350000000 1.0
C      1  0.4478130000000  0.3819780000000  0.5169920000000 1.0
C      1  0.4950710000000  0.5167740000000  0.6272150000000 1.0
C      1  0.4361930000000  0.4955930000000  0.5131730000000 1.0
C      1  0.5670710000000  0.4248770000000  0.4779430000000 1.0
C      1  0.5850710000000  0.4534910000000  0.4352340000000 1.0
C      1  0.5571910000000  0.4987200000000  0.4331870000000 1.0
C      1  0.4830810000000  0.6274360000000  0.4983500000000 1.0
C      1  0.4953130000000  0.4897050000000  0.6296180000000 1.0
C      1  0.5109280000000  0.5483120000000  0.4630180000000 1.0
C      1  0.5528550000000  0.4660190000000  0.4943990000000 1.0
C      1  0.3851440000000  0.5633410000000  0.5272030000000 1.0
C      1  0.5030930000000  0.6136630000000  0.5135350000000 1.0
C      1  0.4763620000000  0.3805060000000  0.5136080000000 1.0
C      1  0.5254900000000  0.5368110000000  0.4412120000000 1.0
C      1  0.4212930000000  0.5348020000000  0.4502470000000 1.0
C      1  0.3786990000000  0.5233870000000  0.5014410000000 1.0
C      1  0.5140920000000  0.4644890000000  0.5779880000000 1.0
C      1  0.4994530000000  0.5420300000000  0.6182040000000 1.0
C      1  0.5603620000000  0.4685740000000  0.6198500000000 1.0
C      1  0.5496440000000  0.4818800000000  0.5505150000000 1.0
C      1  0.5778450000000  0.4779190000000  0.5499270000000 1.0
C      1  0.4409700000000  0.4761950000000  0.4466750000000 1.0
C      1  0.5091310000000  0.4854960000000  0.5027290000000 1.0
C      1  0.6218470000000  0.5014590000000  0.4784260000000 1.0
C      1  0.5175220000000  0.4352100000000  0.5421540000000 1.0
C      1  0.5761910000000  0.3635650000000  0.3975040000000 1.0
C      1  0.5345370000000  0.4768100000000  0.4157580000000 1.0
C      1  0.4253320000000  0.5009420000000  0.5796330000000 1.0
C      1  0.4215550000000  0.6024180000000  0.4772810000000 1.0
C      1  0.5205300000000  0.4336040000000  0.5121990000000 1.0
C      1  0.4176990000000  0.4873090000000  0.3996080000000 1.0
C      1  0.5338280000000  0.5730500000000  0.5950220000000 1.0
C      1  0.4885780000000  0.4586770000000  0.3969830000000 1.0
C      1  0.4701750000000  0.5072680000000  0.4229240000000 1.0
C      1  0.4107240000000  0.5798250000000  0.3950450000000 1.0
C      1  0.5531130000000  0.5301240000000  0.6015230000000 1.0
C      1  0.4756550000000  0.4184060000000  0.5865340000000 1.0
C      1  0.4570290000000  0.5353650000000  0.5293450000000 1.0
C      1  0.5042930000000  0.4218850000000  0.5886620000000 1.0
C      1  0.4332140000000  0.5199630000000  0.5274460000000 1.0
C      1  0.4579610000000  0.4957180000000  0.4958550000000 1.0
C      1  0.5037850000000  0.5831610000000  0.4042160000000 1.0
C      1  0.3977730000000  0.4663590000000  0.5268940000000 1.0
C      1  0.4894460000000  0.4681020000000  0.5637810000000 1.0
C      1  0.4323740000000  0.5253860000000  0.5928730000000 1.0
C      1  0.4256880000000  0.4707970000000  0.5227620000000 1.0
C      1  0.5845770000000  0.4504410000000  0.5542660000000 1.0
C      1  0.4061320000000  0.5138560000000  0.4621010000000 1.0
C      1  0.5330820000000  0.4593290000000  0.5560710000000 1.0
C      1  0.5153060000000  0.5041800000000  0.4806450000000 1.0
C      1  0.4626650000000  0.6265650000000  0.4809010000000 1.0
C      1  0.5744710000000  0.4500070000000  0.4882720000000 1.0
C      1  0.5674740000000  0.5598570000000  0.5648220000000 1.0
C      1  0.4014530000000  0.4407120000000  0.4583280000000 1.0
C      1  0.5526430000000  0.4119600000000  0.5637930000000 1.0
C      1  0.4090350000000  0.4655260000000  0.4174010000000 1.0
C      1  0.5597920000000  0.5404630000000  0.4716460000000 1.0
C      1  0.4874970000000  0.5641370000000  0.4650210000000 1.0
C      1  0.5960900000000  0.5669160000000  0.4517690000000 1.0
C      1  0.4766750000000  0.5791130000000  0.4029010000000 1.0
C      1  0.5230980000000  0.4150830000000  0.5652500000000 1.0
C      1  0.5102170000000  0.4482340000000  0.6011410000000 1.0
C      1  0.4802590000000  0.4798560000000  0.4985320000000 1.0
C      1  0.5256920000000  0.6100880000000  0.4701070000000 1.0
C      1  0.4674640000000  0.4448760000000  0.5255900000000 1.0
C      1  0.5113410000000  0.6010590000000  0.4475520000000 1.0
C      1  0.5266610000000  0.4608530000000  0.5022680000000 1.0
C      1  0.4589610000000  0.5954390000000  0.4442210000000 1.0
C      1  0.3876800000000  0.5355620000000  0.5249810000000 1.0
C      1  0.4644340000000  0.5513710000000  0.4781720000000 1.0
C      1  0.4079390000000  0.5226680000000  0.5401060000000 1.0
C      1  0.4989670000000  0.5427630000000  0.5085000000000 1.0
C      1  0.4498440000000  0.5838640000000  0.5542510000000 1.0
C      1  0.5523430000000  0.5260070000000  0.4471640000000 1.0
C      1  0.5335370000000  0.5760290000000  0.5038860000000 1.0
C      1  0.4516480000000  0.4135780000000  0.4487540000000 1.0
C      1  0.5008780000000  0.4637660000000  0.6231910000000 1.0
C      1  0.4851330000000  0.3952480000000  0.4902570000000 1.0
C      1  0.4451880000000  0.5492850000000  0.5911050000000 1.0
C      1  0.4146070000000  0.4872650000000  0.4567410000000 1.0
C      1  0.4482520000000  0.5393860000000  0.4582240000000 1.0
C      1  0.4499450000000  0.4260110000000  0.5759050000000 1.0
C      1  0.4454920000000  0.6102450000000  0.4648240000000 1.0
C      1  0.5609650000000  0.5436420000000  0.5196610000000 1.0
C      1  0.3807070000000  0.5186020000000  0.4739570000000 1.0
C      1  0.4639840000000  0.5623480000000  0.5709890000000 1.0
C      1  0.3901580000000  0.4380560000000  0.4839830000000 1.0
C      1  0.4717810000000  0.5370370000000  0.5545840000000 1.0
C      1  0.6037540000000  0.3964010000000  0.5105260000000 1.0
C      1  0.4089770000000  0.5957160000000  0.4998970000000 1.0
C      1  0.4742090000000  0.4525230000000  0.4991670000000 1.0
C      1  0.4642030000000  0.4662680000000  0.3840260000000 1.0
C      1  0.4705160000000  0.5443560000000  0.5058160000000 1.0
C      1  0.4665770000000  0.6039450000000  0.5434230000000 1.0
C      1  0.5895740000000  0.3735460000000  0.5011540000000 1.0
C      1  0.6225250000000  0.4772900000000  0.4925870000000 1.0
C      1  0.4661140000000  0.4856100000000  0.4411380000000 1.0
C      1  0.6206720000000  0.5715760000000  0.5353200000000 1.0
C      1  0.6178270000000  0.4106510000000  0.4900430000000 1.0
C      1  0.4426890000000  0.4530150000000  0.5366750000000 1.0
C      1  0.4892910000000  0.4381810000000  0.4801750000000 1.0
C      1  0.3889310000000  0.4800690000000  0.5502620000000 1.0
C      1  0.3582190000000  0.5188170000000  0.4583290000000 1.0
C      1  0.5516960000000  0.5854270000000  0.4249940000000 1.0
C      1  0.4699530000000  0.4176970000000  0.4259990000000 1.0
C      1  0.4278380000000  0.5665190000000  0.4123230000000 1.0
END
