TITL C-3866673-4222-742 -0.000219641650877862 125000 -1169.97277801507 0 0 191 (C1) n - 1
REM
REM in /home/nfs/bkarasulu/CARBON/AIRSS/Generating-Clusters/LCBOP/Only-C1/SD-CG/FIRE-CG
REM
REM
REM
REM
REM
REM ./C.cell (11c1c37f851c82e70ff6c80c92926a4b)
REM AIRSS Version 0.9.1 bugfix July 2018 build 013d7b7c2542+ Fri, 06 Jul 2018 19:26:36 +0100
REM compiler GCC version 9.2.1 20190827 (Red Hat 9.2.1-1)
REM options -cpp -mtune=generic -march=x86-64 -g -O0 -fpre-include=/usr/include/finclude/math-vector-fortran.h
REM seed 1009497076 384613361 -168842278 1948506878 -1615477218 1515047265 -995738396 -983142474 1924209937 810381241 -168129835 -1872902508 987314194 -1831607170 -1951228848 1622692523 -321588556 -523218080 -1828673887 1371889914 95375732 1194509846 -1211042134 102966052 -572115237 -2132008708 1317012724 1527297954 -513347403 -1613941082 -534819660 1628132714 -398803877
REM
CELL 1.54180   50.00000   50.00000   50.00000   90.00000   90.00000   90.00000
LATT -1
SFAC C  
C      1  0.4222790000000  0.5070080000000  0.4672350000000 1.0
C      1  0.5565070000000  0.3944850000000  0.5188600000000 1.0
C      1  0.5313520000000  0.3717390000000  0.5551020000000 1.0
C      1  0.3909890000000  0.4935190000000  0.3880220000000 1.0
C      1  0.4331410000000  0.4165460000000  0.4911490000000 1.0
C      1  0.3913280000000  0.4888370000000  0.4151870000000 1.0
C      1  0.4350060000000  0.3983290000000  0.5396280000000 1.0
C      1  0.3980840000000  0.4620700000000  0.4237360000000 1.0
C      1  0.4368140000000  0.5997920000000  0.4755730000000 1.0
C      1  0.5094590000000  0.3830360000000  0.4843390000000 1.0
C      1  0.5096260000000  0.5640180000000  0.5378090000000 1.0
C      1  0.4560200000000  0.5648440000000  0.5961170000000 1.0
C      1  0.5477230000000  0.5507490000000  0.4790500000000 1.0
C      1  0.4787920000000  0.4762410000000  0.4931140000000 1.0
C      1  0.4732360000000  0.4913070000000  0.4424790000000 1.0
C      1  0.5873870000000  0.4349440000000  0.5737710000000 1.0
C      1  0.4566960000000  0.3828840000000  0.5339790000000 1.0
C      1  0.5884780000000  0.5286570000000  0.5686030000000 1.0
C      1  0.4349510000000  0.5914590000000  0.5028020000000 1.0
C      1  0.5824850000000  0.5476330000000  0.4142100000000 1.0
C      1  0.6341890000000  0.5066830000000  0.4565640000000 1.0
C      1  0.5282940000000  0.4809370000000  0.5418850000000 1.0
C      1  0.5445720000000  0.5110320000000  0.4529180000000 1.0
C      1  0.4759020000000  0.5724480000000  0.6154980000000 1.0
C      1  0.5955070000000  0.4645110000000  0.4561760000000 1.0
C      1  0.4994980000000  0.4936020000000  0.4530100000000 1.0
C      1  0.4367990000000  0.6261230000000  0.4682290000000 1.0
C      1  0.4681940000000  0.5608300000000  0.5162840000000 1.0
C      1  0.4563340000000  0.4698060000000  0.4433630000000 1.0
C      1  0.5076550000000  0.5277760000000  0.5755770000000 1.0
C      1  0.5129260000000  0.4526910000000  0.4023620000000 1.0
C      1  0.5094830000000  0.4320970000000  0.5594420000000 1.0
C      1  0.4984830000000  0.4255200000000  0.4657350000000 1.0
C      1  0.5641940000000  0.5407640000000  0.3932570000000 1.0
C      1  0.5595690000000  0.5257830000000  0.4724490000000 1.0
C      1  0.6135060000000  0.5069260000000  0.4371440000000 1.0
C      1  0.4097800000000  0.4320560000000  0.4902580000000 1.0
C      1  0.5975700000000  0.4583010000000  0.5336450000000 1.0
C      1  0.5430940000000  0.5329650000000  0.6181940000000 1.0
C      1  0.4770280000000  0.5202200000000  0.4081730000000 1.0
C      1  0.5170780000000  0.5165700000000  0.4472450000000 1.0
C      1  0.5737570000000  0.4144060000000  0.4276880000000 1.0
C      1  0.5283750000000  0.4801470000000  0.3666760000000 1.0
C      1  0.5783670000000  0.4133980000000  0.5597660000000 1.0
C      1  0.5588660000000  0.5156000000000  0.6047420000000 1.0
C      1  0.5766990000000  0.5805420000000  0.5480880000000 1.0
C      1  0.4330370000000  0.5245810000000  0.5199250000000 1.0
C      1  0.5815960000000  0.3489370000000  0.4577500000000 1.0
C      1  0.4608840000000  0.5887660000000  0.5154840000000 1.0
C      1  0.4554460000000  0.4086260000000  0.4105160000000 1.0
C      1  0.5721670000000  0.5160710000000  0.4966780000000 1.0
C      1  0.4385080000000  0.5775320000000  0.4552720000000 1.0
C      1  0.5299960000000  0.4453080000000  0.5712160000000 1.0
C      1  0.4919620000000  0.3858550000000  0.5901500000000 1.0
C      1  0.5825060000000  0.4772370000000  0.4116910000000 1.0
C      1  0.5612370000000  0.5952930000000  0.4182510000000 1.0
C      1  0.5829510000000  0.5723440000000  0.4557440000000 1.0
C      1  0.5738180000000  0.4137130000000  0.5316160000000 1.0
C      1  0.5140430000000  0.5455580000000  0.3898940000000 1.0
C      1  0.6020570000000  0.4808810000000  0.4324400000000 1.0
C      1  0.6389120000000  0.5001210000000  0.4820240000000 1.0
C      1  0.4538350000000  0.5197970000000  0.6148930000000 1.0
C      1  0.4118530000000  0.5750820000000  0.5095850000000 1.0
C      1  0.4220190000000  0.4206080000000  0.5524730000000 1.0
C      1  0.5888950000000  0.4606230000000  0.5612470000000 1.0
C      1  0.3933910000000  0.4355210000000  0.4678870000000 1.0
C      1  0.5311730000000  0.5524800000000  0.5241660000000 1.0
C      1  0.5531940000000  0.5959750000000  0.4916700000000 1.0
C      1  0.5728880000000  0.5070690000000  0.5811560000000 1.0
C      1  0.3927630000000  0.5579680000000  0.4597890000000 1.0
C      1  0.5397490000000  0.4513100000000  0.4127980000000 1.0
C      1  0.4525730000000  0.5863640000000  0.4292330000000 1.0
C      1  0.4975830000000  0.3904790000000  0.4346560000000 1.0
C      1  0.4726670000000  0.4344480000000  0.5196380000000 1.0
C      1  0.5534020000000  0.5966630000000  0.5422970000000 1.0
C      1  0.5552890000000  0.4739650000000  0.4204730000000 1.0
C      1  0.5054680000000  0.3984010000000  0.4610140000000 1.0
C      1  0.5368550000000  0.5073430000000  0.3667460000000 1.0
C      1  0.4498910000000  0.4670410000000  0.6007930000000 1.0
C      1  0.4571630000000  0.4175560000000  0.5032130000000 1.0
C      1  0.6232610000000  0.5991800000000  0.5275920000000 1.0
C      1  0.4271560000000  0.4203190000000  0.5803420000000 1.0
C      1  0.5361350000000  0.6023960000000  0.4244450000000 1.0
C      1  0.5938220000000  0.4180380000000  0.4451330000000 1.0
C      1  0.5620520000000  0.5748340000000  0.4751100000000 1.0
C      1  0.4606790000000  0.5147760000000  0.4321400000000 1.0
C      1  0.4180790000000  0.4452000000000  0.4118190000000 1.0
C      1  0.5426770000000  0.4694340000000  0.5631710000000 1.0
C      1  0.5399310000000  0.5562600000000  0.3920610000000 1.0
C      1  0.3791850000000  0.5155860000000  0.4890500000000 1.0
C      1  0.6417890000000  0.5219220000000  0.5633570000000 1.0
C      1  0.5455910000000  0.5324720000000  0.5383530000000 1.0
C      1  0.5067840000000  0.4752620000000  0.3860220000000 1.0
C      1  0.5385300000000  0.4907150000000  0.5179150000000 1.0
C      1  0.3886490000000  0.5395390000000  0.5310330000000 1.0
C      1  0.5160440000000  0.6246330000000  0.5474610000000 1.0
C      1  0.4842450000000  0.5511050000000  0.5383970000000 1.0
C      1  0.5376730000000  0.6120200000000  0.5615660000000 1.0
C      1  0.6009500000000  0.4376410000000  0.4641450000000 1.0
C      1  0.5992190000000  0.4318690000000  0.4918120000000 1.0
C      1  0.3994510000000  0.4779570000000  0.5071810000000 1.0
C      1  0.5227210000000  0.5504050000000  0.6218130000000 1.0
C      1  0.4656520000000  0.5826140000000  0.6397260000000 1.0
C      1  0.5122670000000  0.3785200000000  0.5745710000000 1.0
C      1  0.4538140000000  0.4426210000000  0.4429160000000 1.0
C      1  0.5107270000000  0.5224130000000  0.4940110000000 1.0
C      1  0.5161780000000  0.5909670000000  0.4379850000000 1.0
C      1  0.5210000000000  0.4952030000000  0.4961020000000 1.0
C      1  0.5745790000000  0.3656180000000  0.4765140000000 1.0
C      1  0.3809120000000  0.5396400000000  0.5033540000000 1.0
C      1  0.5115370000000  0.6126260000000  0.5212630000000 1.0
C      1  0.4073260000000  0.5620060000000  0.5362460000000 1.0
C      1  0.4460090000000  0.4098180000000  0.5962540000000 1.0
C      1  0.5345110000000  0.6069060000000  0.5885830000000 1.0
C      1  0.4092310000000  0.5745870000000  0.4443520000000 1.0
C      1  0.6157960000000  0.4764300000000  0.5224880000000 1.0
C      1  0.4668050000000  0.5023030000000  0.4941940000000 1.0
C      1  0.4211240000000  0.5365970000000  0.5782250000000 1.0
C      1  0.5269210000000  0.5458020000000  0.4973390000000 1.0
C      1  0.4557370000000  0.5913320000000  0.6626920000000 1.0
C      1  0.5615450000000  0.5182380000000  0.3759180000000 1.0
C      1  0.4908080000000  0.4285130000000  0.5404490000000 1.0
C      1  0.6010750000000  0.5908840000000  0.5384580000000 1.0
C      1  0.3939260000000  0.5613570000000  0.4888510000000 1.0
C      1  0.4407990000000  0.4306100000000  0.4208470000000 1.0
C      1  0.4851680000000  0.5286690000000  0.5564940000000 1.0
C      1  0.4089810000000  0.5834580000000  0.4169130000000 1.0
C      1  0.5006650000000  0.5151020000000  0.5998700000000 1.0
C      1  0.4693360000000  0.3970930000000  0.5986070000000 1.0
C      1  0.5122610000000  0.5209550000000  0.3752310000000 1.0
C      1  0.6311860000000  0.4895650000000  0.5052210000000 1.0
C      1  0.5062760000000  0.5679500000000  0.4504230000000 1.0
C      1  0.6024150000000  0.5508920000000  0.4561350000000 1.0
C      1  0.4004670000000  0.4684060000000  0.5540170000000 1.0
C      1  0.4906780000000  0.5696500000000  0.4734100000000 1.0
C      1  0.4088420000000  0.4435220000000  0.5405310000000 1.0
C      1  0.4426960000000  0.5773160000000  0.5733680000000 1.0
C      1  0.4009240000000  0.4972180000000  0.4854800000000 1.0
C      1  0.4459430000000  0.5998380000000  0.6853050000000 1.0
C      1  0.3911380000000  0.4884060000000  0.5334850000000 1.0
C      1  0.4064070000000  0.5136670000000  0.5700690000000 1.0
C      1  0.3868770000000  0.4506980000000  0.4469100000000 1.0
C      1  0.4060270000000  0.4498960000000  0.5116940000000 1.0
C      1  0.5664750000000  0.3820030000000  0.4956960000000 1.0
C      1  0.5052100000000  0.4761620000000  0.4784500000000 1.0
C      1  0.4711700000000  0.5513060000000  0.4870270000000 1.0
C      1  0.3833130000000  0.5346370000000  0.4455630000000 1.0
C      1  0.4841020000000  0.6062380000000  0.5152760000000 1.0
C      1  0.4459330000000  0.5021150000000  0.5131270000000 1.0
C      1  0.5016040000000  0.4856710000000  0.5470170000000 1.0
C      1  0.4132420000000  0.4853270000000  0.5741740000000 1.0
C      1  0.4674790000000  0.4612990000000  0.5145480000000 1.0
C      1  0.4495460000000  0.4785500000000  0.5294210000000 1.0
C      1  0.6158140000000  0.5237850000000  0.5643820000000 1.0
C      1  0.4405380000000  0.4793190000000  0.5784060000000 1.0
C      1  0.5313700000000  0.3838870000000  0.5290960000000 1.0
C      1  0.5769080000000  0.5739480000000  0.4271770000000 1.0
C      1  0.4978010000000  0.4291000000000  0.4029030000000 1.0
C      1  0.4794080000000  0.5008660000000  0.5542230000000 1.0
C      1  0.4416390000000  0.5251610000000  0.4527920000000 1.0
C      1  0.4414880000000  0.5391230000000  0.5988450000000 1.0
C      1  0.4561930000000  0.4855010000000  0.5559970000000 1.0
C      1  0.5134500000000  0.4483240000000  0.4727960000000 1.0
C      1  0.4218430000000  0.5610820000000  0.5608640000000 1.0
C      1  0.5078010000000  0.5424730000000  0.4377930000000 1.0
C      1  0.5699110000000  0.4729040000000  0.4656020000000 1.0
C      1  0.4483710000000  0.5505970000000  0.4659430000000 1.0
C      1  0.4792800000000  0.5111410000000  0.6155620000000 1.0
C      1  0.4829450000000  0.5245410000000  0.4903060000000 1.0
C      1  0.4925560000000  0.5016970000000  0.3891120000000 1.0
C      1  0.5049150000000  0.5713610000000  0.6140940000000 1.0
C      1  0.5892860000000  0.4346770000000  0.5181750000000 1.0
C      1  0.5527270000000  0.4264280000000  0.4162950000000 1.0
C      1  0.3848210000000  0.5110790000000  0.4321090000000 1.0
C      1  0.5526830000000  0.4850010000000  0.4467840000000 1.0
C      1  0.6007390000000  0.5324710000000  0.4328270000000 1.0
C      1  0.5182060000000  0.5945730000000  0.6055120000000 1.0
C      1  0.4715420000000  0.4296760000000  0.4594550000000 1.0
C      1  0.5334450000000  0.5284580000000  0.5638480000000 1.0
C      1  0.4854080000000  0.4019490000000  0.4088510000000 1.0
C      1  0.5074950000000  0.3808880000000  0.5126780000000 1.0
C      1  0.4344990000000  0.5897100000000  0.4084900000000 1.0
C      1  0.5689640000000  0.4798900000000  0.5696140000000 1.0
C      1  0.5788460000000  0.5552570000000  0.5619470000000 1.0
C      1  0.4815730000000  0.3773690000000  0.5246220000000 1.0
C      1  0.5500160000000  0.3524570000000  0.5608090000000 1.0
C      1  0.5574460000000  0.5119970000000  0.5209800000000 1.0
C      1  0.4903290000000  0.3827120000000  0.3860960000000 1.0
C      1  0.4962020000000  0.5421260000000  0.4119480000000 1.0
C      1  0.5392920000000  0.6013340000000  0.5158010000000 1.0
C      1  0.3911420000000  0.5150130000000  0.5450450000000 1.0
END
