TITL C-3866669-3764-188 -1.32616261352336e-08 125000 -919.078053014261 0 0 149 (C1) n - 1
REM
REM in /home/nfs/bkarasulu/CARBON/AIRSS/Generating-Clusters/LCBOP/Only-C1/SD-CG/HFTN-CG/FIRE-CG
REM
REM
REM
REM
REM
REM ./C.cell (11c1c37f851c82e70ff6c80c92926a4b)
REM AIRSS Version 0.9.1 bugfix July 2018 build 013d7b7c2542+ Fri, 06 Jul 2018 19:26:36 +0100
REM compiler GCC version 9.2.1 20190827 (Red Hat 9.2.1-1)
REM options -cpp -mtune=generic -march=x86-64 -g -O0 -fpre-include=/usr/include/finclude/math-vector-fortran.h
REM seed 66424123 -1064614612 1248886783 625134939 1734326787 1164319065 -1487007210 -1948798684 -595528487 134813157 416870819 -1639455238 2139184863 323832286 582716084 -1687688092 1123602931 1647073251 -2092365224 -874714395 -1305989294 -928074991 153866411 -1358809993 365727444 -1041334935 100178381 279564417 -1084893606 -2080826192 -835660991 415599598 570970732
REM
CELL 1.54180   50.00000   50.00000   50.00000   90.00000   90.00000   90.00000
LATT -1
SFAC C  
C      1  0.5389340000000  0.5582690000000  0.4996750000000 1.0
C      1  0.4597250000000  0.5299550000000  0.5388960000000 1.0
C      1  0.5065030000000  0.4283200000000  0.4857670000000 1.0
C      1  0.5688000000000  0.4663280000000  0.5131480000000 1.0
C      1  0.4933060000000  0.6157770000000  0.4432640000000 1.0
C      1  0.4400880000000  0.4385050000000  0.6159410000000 1.0
C      1  0.5739450000000  0.5887290000000  0.5476330000000 1.0
C      1  0.6003130000000  0.5729920000000  0.4822880000000 1.0
C      1  0.5406300000000  0.5846920000000  0.4889200000000 1.0
C      1  0.4280760000000  0.4796540000000  0.5648060000000 1.0
C      1  0.5433770000000  0.5491890000000  0.4425240000000 1.0
C      1  0.5478200000000  0.5968040000000  0.5546290000000 1.0
C      1  0.5016330000000  0.3894540000000  0.4571450000000 1.0
C      1  0.4499030000000  0.4277200000000  0.4387460000000 1.0
C      1  0.5009630000000  0.6093430000000  0.5373970000000 1.0
C      1  0.4257600000000  0.4165510000000  0.6604830000000 1.0
C      1  0.5780970000000  0.5397050000000  0.3909630000000 1.0
C      1  0.4574890000000  0.4571270000000  0.3804040000000 1.0
C      1  0.5844320000000  0.5459590000000  0.4161750000000 1.0
C      1  0.4688500000000  0.6034120000000  0.4986940000000 1.0
C      1  0.4476870000000  0.4726330000000  0.4014690000000 1.0
C      1  0.5136060000000  0.4535650000000  0.4750430000000 1.0
C      1  0.4896610000000  0.4623100000000  0.4270060000000 1.0
C      1  0.4843080000000  0.5341490000000  0.4852630000000 1.0
C      1  0.5967160000000  0.5121980000000  0.4793170000000 1.0
C      1  0.4753710000000  0.5114160000000  0.4243370000000 1.0
C      1  0.5723040000000  0.5501240000000  0.4411820000000 1.0
C      1  0.5583040000000  0.4743340000000  0.4406970000000 1.0
C      1  0.3722070000000  0.4851150000000  0.4450900000000 1.0
C      1  0.4673140000000  0.4450660000000  0.3594960000000 1.0
C      1  0.4643490000000  0.5537740000000  0.4852400000000 1.0
C      1  0.5079130000000  0.4927390000000  0.5371020000000 1.0
C      1  0.5397210000000  0.4907660000000  0.5721580000000 1.0
C      1  0.4379230000000  0.5285900000000  0.4013270000000 1.0
C      1  0.6141300000000  0.4915330000000  0.4888760000000 1.0
C      1  0.4561300000000  0.6143150000000  0.4760490000000 1.0
C      1  0.4452760000000  0.4853310000000  0.5453270000000 1.0
C      1  0.5375470000000  0.4094490000000  0.5300770000000 1.0
C      1  0.5100600000000  0.4948750000000  0.5096510000000 1.0
C      1  0.5306670000000  0.6081020000000  0.5349090000000 1.0
C      1  0.5755130000000  0.4662740000000  0.5415780000000 1.0
C      1  0.5614330000000  0.5395350000000  0.5024410000000 1.0
C      1  0.4405700000000  0.5472630000000  0.4712920000000 1.0
C      1  0.5320900000000  0.5750320000000  0.4396890000000 1.0
C      1  0.4172120000000  0.4706860000000  0.5873090000000 1.0
C      1  0.4165850000000  0.5102270000000  0.4095770000000 1.0
C      1  0.4016510000000  0.5117530000000  0.5074970000000 1.0
C      1  0.6086140000000  0.4993320000000  0.5402220000000 1.0
C      1  0.4938200000000  0.4248030000000  0.5114610000000 1.0
C      1  0.5356600000000  0.6079910000000  0.5063910000000 1.0
C      1  0.5414330000000  0.3880660000000  0.5117470000000 1.0
C      1  0.4866070000000  0.4502170000000  0.6054010000000 1.0
C      1  0.3956370000000  0.4558680000000  0.6287360000000 1.0
C      1  0.4560600000000  0.4307020000000  0.5709250000000 1.0
C      1  0.5182260000000  0.5544370000000  0.5200810000000 1.0
C      1  0.5542510000000  0.4974850000000  0.3901150000000 1.0
C      1  0.5579140000000  0.4354490000000  0.5789540000000 1.0
C      1  0.4406180000000  0.4488400000000  0.4549920000000 1.0
C      1  0.3976790000000  0.4917020000000  0.4528230000000 1.0
C      1  0.5881620000000  0.5629440000000  0.4607120000000 1.0
C      1  0.4494680000000  0.4968970000000  0.4982810000000 1.0
C      1  0.4926670000000  0.5681000000000  0.5213280000000 1.0
C      1  0.5310910000000  0.5912940000000  0.4624570000000 1.0
C      1  0.5706600000000  0.5152080000000  0.4905260000000 1.0
C      1  0.3953830000000  0.5339810000000  0.5208040000000 1.0
C      1  0.4599120000000  0.5251120000000  0.3827620000000 1.0
C      1  0.4676980000000  0.4128390000000  0.5083730000000 1.0
C      1  0.5129530000000  0.6140240000000  0.4640930000000 1.0
C      1  0.4895180000000  0.5840100000000  0.5458290000000 1.0
C      1  0.5285610000000  0.5364820000000  0.3857950000000 1.0
C      1  0.4564910000000  0.5463050000000  0.6075540000000 1.0
C      1  0.6209440000000  0.4947520000000  0.5164240000000 1.0
C      1  0.4570240000000  0.5206620000000  0.6152150000000 1.0
C      1  0.5141750000000  0.5700510000000  0.5832740000000 1.0
C      1  0.4941410000000  0.4100920000000  0.4161810000000 1.0
C      1  0.4668630000000  0.6201500000000  0.4519600000000 1.0
C      1  0.4880790000000  0.4775210000000  0.6144630000000 1.0
C      1  0.4212470000000  0.4511440000000  0.4757880000000 1.0
C      1  0.4685450000000  0.4170410000000  0.4223460000000 1.0
C      1  0.4647900000000  0.3916330000000  0.4894230000000 1.0
C      1  0.5616110000000  0.4900840000000  0.5001020000000 1.0
C      1  0.5089710000000  0.4691360000000  0.4492510000000 1.0
C      1  0.5837210000000  0.4913240000000  0.5513220000000 1.0
C      1  0.5016720000000  0.5174620000000  0.4962890000000 1.0
C      1  0.5556260000000  0.5254520000000  0.3826100000000 1.0
C      1  0.4446310000000  0.4287010000000  0.5468040000000 1.0
C      1  0.6124610000000  0.4662010000000  0.4758540000000 1.0
C      1  0.4805700000000  0.5382320000000  0.5566140000000 1.0
C      1  0.5674060000000  0.4385580000000  0.5050460000000 1.0
C      1  0.4661820000000  0.5659070000000  0.5917790000000 1.0
C      1  0.5750030000000  0.4299030000000  0.4785350000000 1.0
C      1  0.5129710000000  0.4254110000000  0.5334780000000 1.0
C      1  0.4933340000000  0.4935910000000  0.4622940000000 1.0
C      1  0.5231760000000  0.5290840000000  0.4444110000000 1.0
C      1  0.5328880000000  0.4787600000000  0.4313390000000 1.0
C      1  0.4842560000000  0.5159010000000  0.3955490000000 1.0
C      1  0.5156340000000  0.4034750000000  0.4768890000000 1.0
C      1  0.4014870000000  0.4265670000000  0.6669070000000 1.0
C      1  0.5179370000000  0.5809570000000  0.4154630000000 1.0
C      1  0.5283970000000  0.5401190000000  0.5429780000000 1.0
C      1  0.5356630000000  0.5850870000000  0.5772900000000 1.0
C      1  0.5208970000000  0.4761670000000  0.5554590000000 1.0
C      1  0.5140400000000  0.4883390000000  0.6162700000000 1.0
C      1  0.6016410000000  0.5760910000000  0.5089120000000 1.0
C      1  0.4999490000000  0.6026560000000  0.4187960000000 1.0
C      1  0.5428920000000  0.4078000000000  0.4390780000000 1.0
C      1  0.5341840000000  0.4930760000000  0.5994720000000 1.0
C      1  0.4724380000000  0.5752060000000  0.5016200000000 1.0
C      1  0.4262840000000  0.4371970000000  0.5001470000000 1.0
C      1  0.4203860000000  0.4955140000000  0.4945260000000 1.0
C      1  0.5188200000000  0.4724300000000  0.4956680000000 1.0
C      1  0.5130210000000  0.6222070000000  0.4920050000000 1.0
C      1  0.5977840000000  0.4443270000000  0.4692730000000 1.0
C      1  0.5120350000000  0.5133980000000  0.3936090000000 1.0
C      1  0.5683870000000  0.4411120000000  0.5535180000000 1.0
C      1  0.5366390000000  0.4324240000000  0.5951630000000 1.0
C      1  0.4216500000000  0.4839150000000  0.4004610000000 1.0
C      1  0.5552020000000  0.5317050000000  0.5484230000000 1.0
C      1  0.4659590000000  0.4886180000000  0.4739930000000 1.0
C      1  0.4118880000000  0.5127980000000  0.4391250000000 1.0
C      1  0.4329960000000  0.5312520000000  0.4493880000000 1.0
C      1  0.4905330000000  0.6185350000000  0.5106440000000 1.0
C      1  0.4555200000000  0.5038880000000  0.5264930000000 1.0
C      1  0.4408330000000  0.4222760000000  0.6389350000000 1.0
C      1  0.4520820000000  0.5311220000000  0.4276520000000 1.0
C      1  0.5414180000000  0.3948930000000  0.4844620000000 1.0
C      1  0.4447320000000  0.4260610000000  0.5187910000000 1.0
C      1  0.4098010000000  0.4778680000000  0.4750690000000 1.0
C      1  0.5111440000000  0.4360490000000  0.6029230000000 1.0
C      1  0.4172040000000  0.4552730000000  0.6106470000000 1.0
C      1  0.4616970000000  0.4388500000000  0.5973330000000 1.0
C      1  0.4530700000000  0.4744240000000  0.4517780000000 1.0
C      1  0.4763810000000  0.3815390000000  0.4669360000000 1.0
C      1  0.4872920000000  0.5656250000000  0.5705330000000 1.0
C      1  0.5214700000000  0.5627410000000  0.3939040000000 1.0
C      1  0.5611490000000  0.4250350000000  0.5305160000000 1.0
C      1  0.5611170000000  0.5065330000000  0.5603300000000 1.0
C      1  0.5144880000000  0.3996970000000  0.4330430000000 1.0
C      1  0.5297870000000  0.4918720000000  0.4051450000000 1.0
C      1  0.4669150000000  0.4958640000000  0.6168710000000 1.0
C      1  0.5725800000000  0.5441210000000  0.5292880000000 1.0
C      1  0.4377190000000  0.5477220000000  0.5386820000000 1.0
C      1  0.5861910000000  0.5691320000000  0.5315070000000 1.0
C      1  0.4978800000000  0.5158190000000  0.4442560000000 1.0
C      1  0.5583480000000  0.4097120000000  0.4653680000000 1.0
C      1  0.4654100000000  0.4806290000000  0.4246590000000 1.0
C      1  0.3880280000000  0.4446490000000  0.6519850000000 1.0
C      1  0.5151320000000  0.4484810000000  0.5505630000000 1.0
C      1  0.4116110000000  0.5506750000000  0.5340490000000 1.0
END
