TITL C-3866672-3872-471 -16.8147600108158 125000 -926.712654954456 0 0 152 (C1) n - 1
REM
REM in /home/nfs/bkarasulu/CARBON/AIRSS/Generating-Clusters/LCBOP/Only-C1/SD-CG/FIRE-CG
REM
REM
REM
REM
REM
REM ./C.cell (11c1c37f851c82e70ff6c80c92926a4b)
REM AIRSS Version 0.9.1 bugfix July 2018 build 013d7b7c2542+ Fri, 06 Jul 2018 19:26:36 +0100
REM compiler GCC version 9.2.1 20190827 (Red Hat 9.2.1-1)
REM options -cpp -mtune=generic -march=x86-64 -g -O0 -fpre-include=/usr/include/finclude/math-vector-fortran.h
REM seed 1314625597 218838993 -394867830 -1498849492 -1656730478 1223508188 -1830904517 1509034776 -1678939652 1650569766 -702345592 -424024425 -295552263 -276185746 -498485866 -1983926211 -1659014706 452466520 -2115029581 2074392575 213994002 -860709947 520759036 -806963404 783144333 550230174 -2050952893 -718149753 1562478561 1369128968 1154021937 -2116469981 -929311861
REM
CELL 1.54180   50.00000   50.00000   50.00000   90.00000   90.00000   90.00000
LATT -1
SFAC C  
C      1  0.5152260000000  0.5675400000000  0.3898840000000 1.0
C      1  0.3885020000000  0.4825200000000  0.4682320000000 1.0
C      1  0.5692460000000  0.3985070000000  0.4952940000000 1.0
C      1  0.3950770000000  0.4576500000000  0.4567220000000 1.0
C      1  0.4364750000000  0.5872720000000  0.5169390000000 1.0
C      1  0.5120180000000  0.4786820000000  0.6336030000000 1.0
C      1  0.5240610000000  0.4018260000000  0.5087260000000 1.0
C      1  0.5267050000000  0.4667650000000  0.5528270000000 1.0
C      1  0.4381150000000  0.5286450000000  0.4412720000000 1.0
C      1  0.5473850000000  0.5127740000000  0.5367810000000 1.0
C      1  0.5492900000000  0.4693170000000  0.4737270000000 1.0
C      1  0.5157260000000  0.4488330000000  0.5940170000000 1.0
C      1  0.4059980000000  0.5289890000000  0.6000230000000 1.0
C      1  0.5085080000000  0.4460200000000  0.5126950000000 1.0
C      1  0.5626240000000  0.5906100000000  0.4562700000000 1.0
C      1  0.4350940000000  0.5135930000000  0.5689580000000 1.0
C      1  0.3607370000000  0.5785710000000  0.6441570000000 1.0
C      1  0.4304550000000  0.5534660000000  0.4520180000000 1.0
C      1  0.4872340000000  0.6038680000000  0.5495000000000 1.0
C      1  0.4176370000000  0.4753730000000  0.5998880000000 1.0
C      1  0.4403260000000  0.5791250000000  0.5446250000000 1.0
C      1  0.5038130000000  0.4185830000000  0.5206840000000 1.0
C      1  0.4543770000000  0.4880240000000  0.3856250000000 1.0
C      1  0.6559370000000  0.4197890000000  0.4803680000000 1.0
C      1  0.4746010000000  0.4512440000000  0.4730350000000 1.0
C      1  0.5003760000000  0.5195220000000  0.3941640000000 1.0
C      1  0.5155350000000  0.6047410000000  0.4633000000000 1.0
C      1  0.5588740000000  0.4827830000000  0.4962550000000 1.0
C      1  0.4837620000000  0.4169430000000  0.5411220000000 1.0
C      1  0.5861130000000  0.4392430000000  0.4458990000000 1.0
C      1  0.5820510000000  0.4659420000000  0.4353920000000 1.0
C      1  0.4972620000000  0.5375170000000  0.5374590000000 1.0
C      1  0.4999960000000  0.4933200000000  0.5877090000000 1.0
C      1  0.5776910000000  0.5862950000000  0.5098260000000 1.0
C      1  0.5220120000000  0.5377200000000  0.3886890000000 1.0
C      1  0.4203210000000  0.5346730000000  0.5322080000000 1.0
C      1  0.4704170000000  0.5703370000000  0.4733070000000 1.0
C      1  0.4475470000000  0.4463850000000  0.5647330000000 1.0
C      1  0.4223740000000  0.5384860000000  0.5781270000000 1.0
C      1  0.5643840000000  0.4681600000000  0.5823600000000 1.0
C      1  0.5104520000000  0.6102430000000  0.5370410000000 1.0
C      1  0.4802850000000  0.4233210000000  0.4669270000000 1.0
C      1  0.5647680000000  0.5558430000000  0.5525650000000 1.0
C      1  0.4725990000000  0.6192160000000  0.4930000000000 1.0
C      1  0.4022190000000  0.5261040000000  0.4879190000000 1.0
C      1  0.5396900000000  0.5654510000000  0.5434600000000 1.0
C      1  0.5086270000000  0.4898530000000  0.5587700000000 1.0
C      1  0.5573800000000  0.5475170000000  0.4976470000000 1.0
C      1  0.5419980000000  0.4276030000000  0.4298630000000 1.0
C      1  0.5778330000000  0.4677150000000  0.5116230000000 1.0
C      1  0.5093100000000  0.4740160000000  0.6063970000000 1.0
C      1  0.3895300000000  0.4079690000000  0.4692090000000 1.0
C      1  0.6046270000000  0.5005670000000  0.5625600000000 1.0
C      1  0.4907800000000  0.4459300000000  0.3842170000000 1.0
C      1  0.5853980000000  0.4835500000000  0.5752980000000 1.0
C      1  0.4143930000000  0.5435890000000  0.5062190000000 1.0
C      1  0.4512860000000  0.6093730000000  0.5063360000000 1.0
C      1  0.5338180000000  0.5564440000000  0.5150070000000 1.0
C      1  0.5954840000000  0.5210790000000  0.5449360000000 1.0
C      1  0.4956460000000  0.6181540000000  0.4790130000000 1.0
C      1  0.4996130000000  0.4952280000000  0.4106860000000 1.0
C      1  0.4542400000000  0.5029860000000  0.5856950000000 1.0
C      1  0.4373340000000  0.3913030000000  0.4696860000000 1.0
C      1  0.5834770000000  0.5564150000000  0.5094260000000 1.0
C      1  0.4254580000000  0.5553860000000  0.5537030000000 1.0
C      1  0.4819220000000  0.5403920000000  0.5832260000000 1.0
C      1  0.5054660000000  0.5502220000000  0.5133210000000 1.0
C      1  0.5431840000000  0.5011030000000  0.5111960000000 1.0
C      1  0.4607900000000  0.4034830000000  0.4671750000000 1.0
C      1  0.4655840000000  0.4697820000000  0.4501690000000 1.0
C      1  0.5240760000000  0.5229380000000  0.4591210000000 1.0
C      1  0.4583200000000  0.5114090000000  0.4019240000000 1.0
C      1  0.4755010000000  0.4805440000000  0.5146930000000 1.0
C      1  0.4383020000000  0.4777190000000  0.4463920000000 1.0
C      1  0.4732780000000  0.4313560000000  0.5641070000000 1.0
C      1  0.5213560000000  0.5603500000000  0.5659820000000 1.0
C      1  0.5686920000000  0.5282000000000  0.5482670000000 1.0
C      1  0.5315280000000  0.4570510000000  0.5265350000000 1.0
C      1  0.4266680000000  0.5078640000000  0.5422750000000 1.0
C      1  0.5555390000000  0.4042730000000  0.4703770000000 1.0
C      1  0.5523140000000  0.5217910000000  0.4542280000000 1.0
C      1  0.5430220000000  0.6013910000000  0.4738690000000 1.0
C      1  0.5219580000000  0.4818000000000  0.4000030000000 1.0
C      1  0.5263050000000  0.4026200000000  0.4790710000000 1.0
C      1  0.5399920000000  0.4507650000000  0.5752270000000 1.0
C      1  0.5393490000000  0.4400330000000  0.4045880000000 1.0
C      1  0.5595140000000  0.4227150000000  0.5372730000000 1.0
C      1  0.3902950000000  0.5459020000000  0.6154870000000 1.0
C      1  0.5455440000000  0.4683500000000  0.4050550000000 1.0
C      1  0.5173750000000  0.5036850000000  0.5003350000000 1.0
C      1  0.4280600000000  0.4344290000000  0.5214770000000 1.0
C      1  0.6013220000000  0.5320110000000  0.5178970000000 1.0
C      1  0.5512120000000  0.4237560000000  0.5650200000000 1.0
C      1  0.5521230000000  0.6014960000000  0.5022280000000 1.0
C      1  0.6027860000000  0.4814060000000  0.5088940000000 1.0
C      1  0.4072390000000  0.5002220000000  0.6046560000000 1.0
C      1  0.4338370000000  0.4568590000000  0.5879650000000 1.0
C      1  0.5640300000000  0.5426710000000  0.4694580000000 1.0
C      1  0.3833450000000  0.4333800000000  0.4639130000000 1.0
C      1  0.6313210000000  0.4973750000000  0.5676370000000 1.0
C      1  0.4926940000000  0.4342620000000  0.5850160000000 1.0
C      1  0.5434770000000  0.5347230000000  0.4096440000000 1.0
C      1  0.5304800000000  0.5338330000000  0.5770390000000 1.0
C      1  0.4850550000000  0.4854580000000  0.5406500000000 1.0
C      1  0.5640920000000  0.4202170000000  0.4470640000000 1.0
C      1  0.5147130000000  0.4839560000000  0.6589800000000 1.0
C      1  0.5078220000000  0.4817930000000  0.4567890000000 1.0
C      1  0.6091020000000  0.5078350000000  0.5036030000000 1.0
C      1  0.4186110000000  0.4577620000000  0.4402450000000 1.0
C      1  0.4217550000000  0.4403530000000  0.4194190000000 1.0
C      1  0.4613160000000  0.5289980000000  0.4245850000000 1.0
C      1  0.4608800000000  0.4999260000000  0.5017380000000 1.0
C      1  0.5197110000000  0.5784470000000  0.4170620000000 1.0
C      1  0.5044270000000  0.5896730000000  0.4400760000000 1.0
C      1  0.4048230000000  0.5054680000000  0.4691530000000 1.0
C      1  0.4715640000000  0.4650460000000  0.3840990000000 1.0
C      1  0.6113190000000  0.4319000000000  0.4553860000000 1.0
C      1  0.4862290000000  0.4592330000000  0.4993400000000 1.0
C      1  0.5108760000000  0.5393040000000  0.4415940000000 1.0
C      1  0.5224670000000  0.5151580000000  0.5527920000000 1.0
C      1  0.5643770000000  0.4834990000000  0.4209880000000 1.0
C      1  0.4882560000000  0.4830730000000  0.4360000000000 1.0
C      1  0.5523120000000  0.4021710000000  0.5187130000000 1.0
C      1  0.4935210000000  0.5533040000000  0.5608040000000 1.0
C      1  0.4260300000000  0.4806640000000  0.5355240000000 1.0
C      1  0.4107540000000  0.3919170000000  0.4710270000000 1.0
C      1  0.4815430000000  0.5721400000000  0.4470320000000 1.0
C      1  0.5267860000000  0.4618660000000  0.4590260000000 1.0
C      1  0.5113720000000  0.5036660000000  0.4734070000000 1.0
C      1  0.5329680000000  0.6102330000000  0.5219180000000 1.0
C      1  0.4836260000000  0.5453580000000  0.4350150000000 1.0
C      1  0.3753930000000  0.5623510000000  0.6299530000000 1.0
C      1  0.4090220000000  0.4866480000000  0.3561540000000 1.0
C      1  0.4312340000000  0.4875530000000  0.3697540000000 1.0
C      1  0.5218700000000  0.4366330000000  0.4479420000000 1.0
C      1  0.4634940000000  0.5919910000000  0.5555430000000 1.0
C      1  0.5602160000000  0.4485760000000  0.5245310000000 1.0
C      1  0.5424510000000  0.5284940000000  0.6006340000000 1.0
C      1  0.4278450000000  0.5675860000000  0.4982970000000 1.0
C      1  0.4419150000000  0.5670280000000  0.4738330000000 1.0
C      1  0.4277310000000  0.5042570000000  0.4515490000000 1.0
C      1  0.6340200000000  0.4256600000000  0.4675320000000 1.0
C      1  0.5577750000000  0.5126380000000  0.4261080000000 1.0
C      1  0.5534250000000  0.4023470000000  0.5818360000000 1.0
C      1  0.4342350000000  0.4537120000000  0.5399410000000 1.0
C      1  0.5150670000000  0.4348580000000  0.3896250000000 1.0
C      1  0.5318170000000  0.5547010000000  0.4286420000000 1.0
C      1  0.4796170000000  0.5129610000000  0.5905730000000 1.0
C      1  0.5079020000000  0.4175590000000  0.4631850000000 1.0
C      1  0.4877400000000  0.5621680000000  0.4946900000000 1.0
C      1  0.4597020000000  0.5213890000000  0.4874950000000 1.0
C      1  0.5732960000000  0.5658020000000  0.4557940000000 1.0
END
