TITL C-3866673-4222-590 -9.59528926870802e-05 125000 -409.040425954877 0 0 67 (C1) n - 1
REM
REM in /home/nfs/bkarasulu/CARBON/AIRSS/Generating-Clusters/LCBOP/Only-C1/SD-CG/FIRE-CG
REM
REM
REM
REM
REM
REM ./C.cell (11c1c37f851c82e70ff6c80c92926a4b)
REM AIRSS Version 0.9.1 bugfix July 2018 build 013d7b7c2542+ Fri, 06 Jul 2018 19:26:36 +0100
REM compiler GCC version 9.2.1 20190827 (Red Hat 9.2.1-1)
REM options -cpp -mtune=generic -march=x86-64 -g -O0 -fpre-include=/usr/include/finclude/math-vector-fortran.h
REM seed 800814137 -2030769648 1675861115 -1843957426 1834062107 1419944287 1958799757 1423537472 -2000228858 735503655 -110205543 100788904 -630128992 724157428 -1746714878 889294250 -474076295 23645848 -2062304190 1665327371 -1137336282 1316652453 -842776206 1193863559 -1607537640 -1021040255 1380891336 -367722727 -1058413544 1818125907 -1619928555 181714317 -65770172
REM
CELL 1.54180   50.00000   50.00000   50.00000   90.00000   90.00000   90.00000
LATT -1
SFAC C  
C      1  0.4901450000000  0.5342120000000  0.3263860000000 1.0
C      1  0.5098760000000  0.5277710000000  0.5629200000000 1.0
C      1  0.4670180000000  0.4956200000000  0.3824690000000 1.0
C      1  0.5443440000000  0.5120510000000  0.5947210000000 1.0
C      1  0.5123840000000  0.4934900000000  0.5000650000000 1.0
C      1  0.5117110000000  0.4531720000000  0.4772730000000 1.0
C      1  0.5527230000000  0.4862420000000  0.4760830000000 1.0
C      1  0.5305530000000  0.5475520000000  0.5658220000000 1.0
C      1  0.4449400000000  0.4505640000000  0.4913810000000 1.0
C      1  0.5696660000000  0.5279160000000  0.5520130000000 1.0
C      1  0.5004810000000  0.4456870000000  0.4286210000000 1.0
C      1  0.4422970000000  0.5019030000000  0.4504090000000 1.0
C      1  0.4332280000000  0.5519630000000  0.5460720000000 1.0
C      1  0.4326360000000  0.4556850000000  0.4683190000000 1.0
C      1  0.5174660000000  0.5068940000000  0.5453880000000 1.0
C      1  0.4932540000000  0.4700980000000  0.4170510000000 1.0
C      1  0.4862160000000  0.4566500000000  0.5497830000000 1.0
C      1  0.4374060000000  0.5187080000000  0.4725230000000 1.0
C      1  0.4753390000000  0.5178750000000  0.3402820000000 1.0
C      1  0.4575060000000  0.5110440000000  0.4043660000000 1.0
C      1  0.5227210000000  0.4957740000000  0.5987690000000 1.0
C      1  0.4867540000000  0.5027270000000  0.5000240000000 1.0
C      1  0.5034190000000  0.5598880000000  0.5257820000000 1.0
C      1  0.5133220000000  0.5287320000000  0.4576190000000 1.0
C      1  0.4380690000000  0.5080670000000  0.5225660000000 1.0
C      1  0.4378710000000  0.4881780000000  0.3448390000000 1.0
C      1  0.5286450000000  0.5042500000000  0.5197460000000 1.0
C      1  0.4547250000000  0.5702990000000  0.5435140000000 1.0
C      1  0.4997660000000  0.4820140000000  0.5888270000000 1.0
C      1  0.5581980000000  0.4572890000000  0.5595740000000 1.0
C      1  0.4749440000000  0.5282200000000  0.5003750000000 1.0
C      1  0.5096130000000  0.4445020000000  0.5052280000000 1.0
C      1  0.4839680000000  0.5379830000000  0.5648440000000 1.0
C      1  0.5358780000000  0.4394320000000  0.5164440000000 1.0
C      1  0.5321200000000  0.5573490000000  0.5376940000000 1.0
C      1  0.4890030000000  0.4921910000000  0.4352190000000 1.0
C      1  0.4846250000000  0.4748420000000  0.3905770000000 1.0
C      1  0.5697580000000  0.4668200000000  0.4888830000000 1.0
C      1  0.4304010000000  0.4763580000000  0.4515180000000 1.0
C      1  0.5559360000000  0.5412500000000  0.5286310000000 1.0
C      1  0.4655340000000  0.4779860000000  0.5549540000000 1.0
C      1  0.5030060000000  0.4576670000000  0.5729860000000 1.0
C      1  0.4633740000000  0.5053530000000  0.4316260000000 1.0
C      1  0.5060730000000  0.4387540000000  0.4539240000000 1.0
C      1  0.4808250000000  0.5591370000000  0.5457160000000 1.0
C      1  0.5575750000000  0.4431130000000  0.4981900000000 1.0
C      1  0.5725470000000  0.4797440000000  0.5623690000000 1.0
C      1  0.4266370000000  0.5262700000000  0.5410080000000 1.0
C      1  0.5822420000000  0.5021450000000  0.5478460000000 1.0
C      1  0.4506370000000  0.5969220000000  0.5392540000000 1.0
C      1  0.5093160000000  0.5488060000000  0.4754500000000 1.0
C      1  0.4600520000000  0.4608970000000  0.5123480000000 1.0
C      1  0.4598060000000  0.5004330000000  0.3556610000000 1.0
C      1  0.5491260000000  0.5216920000000  0.5093690000000 1.0
C      1  0.5432210000000  0.4419630000000  0.5434560000000 1.0
C      1  0.4736520000000  0.4928920000000  0.5785990000000 1.0
C      1  0.4471680000000  0.5219730000000  0.4986560000000 1.0
C      1  0.5588420000000  0.5133430000000  0.4842210000000 1.0
C      1  0.4861860000000  0.4500050000000  0.5215080000000 1.0
C      1  0.5224010000000  0.4816900000000  0.4740360000000 1.0
C      1  0.4674350000000  0.5204930000000  0.5792880000000 1.0
C      1  0.4505320000000  0.4828640000000  0.5303390000000 1.0
C      1  0.5958550000000  0.4946850000000  0.5240780000000 1.0
C      1  0.5094270000000  0.5005800000000  0.4531800000000 1.0
C      1  0.5532450000000  0.5321230000000  0.5761270000000 1.0
C      1  0.4947210000000  0.5493540000000  0.4998330000000 1.0
C      1  0.5916370000000  0.4778560000000  0.5033540000000 1.0
END
