TITL C-3866674-3872-242 -0.424617146271412 125000 -293.392737386081 0 0 49 (C1) n - 1
REM
REM in /home/nfs/bkarasulu/CARBON/AIRSS/Generating-Clusters/LCBOP/Only-C1/SD-CG/HFTN-CG/FIRE-CG
REM
REM
REM
REM
REM
REM ./C.cell (11c1c37f851c82e70ff6c80c92926a4b)
REM AIRSS Version 0.9.1 bugfix July 2018 build 013d7b7c2542+ Fri, 06 Jul 2018 19:26:36 +0100
REM compiler GCC version 9.2.1 20190827 (Red Hat 9.2.1-1)
REM options -cpp -mtune=generic -march=x86-64 -g -O0 -fpre-include=/usr/include/finclude/math-vector-fortran.h
REM seed 493447796 943751193 648686542 -744975993 1777314144 1714946294 -605202274 -80641902 1366929865 252450609 -649122107 2110067268 548457580 -593936782 -1379492970 -2048419530 -1417424607 1309029854 1051757345 -344719014 1382735703 1777565466 -2066641997 219321507 -121840872 1891372246 1935787384 -1428568585 -12164329 -1729535848 603058237 159622675 1315924833
REM
CELL 1.54180   50.00000   50.00000   50.00000   90.00000   90.00000   90.00000
LATT -1
SFAC C  
C      1  0.4399420000000  0.5410040000000  0.3944240000000 1.0
C      1  0.4115250000000  0.4918680000000  0.5877290000000 1.0
C      1  0.4907210000000  0.5072470000000  0.5249950000000 1.0
C      1  0.5104690000000  0.5321770000000  0.4634790000000 1.0
C      1  0.4899420000000  0.5313700000000  0.4466540000000 1.0
C      1  0.6528430000000  0.5282330000000  0.5241980000000 1.0
C      1  0.5379470000000  0.4098020000000  0.5436120000000 1.0
C      1  0.5257670000000  0.5226180000000  0.4829490000000 1.0
C      1  0.4976770000000  0.5778780000000  0.5179640000000 1.0
C      1  0.5141370000000  0.3843950000000  0.5088940000000 1.0
C      1  0.4718840000000  0.5275020000000  0.5652500000000 1.0
C      1  0.4268880000000  0.5515170000000  0.3744570000000 1.0
C      1  0.6297090000000  0.5184210000000  0.5172580000000 1.0
C      1  0.5330270000000  0.4586960000000  0.5574150000000 1.0
C      1  0.5128620000000  0.6186370000000  0.4877000000000 1.0
C      1  0.4907930000000  0.5556470000000  0.5306100000000 1.0
C      1  0.5340370000000  0.5036790000000  0.5018170000000 1.0
C      1  0.4098950000000  0.4651230000000  0.5214090000000 1.0
C      1  0.6061870000000  0.5084460000000  0.5102030000000 1.0
C      1  0.5358320000000  0.6782440000000  0.4410910000000 1.0
C      1  0.5175840000000  0.4977870000000  0.5243310000000 1.0
C      1  0.4539840000000  0.5204280000000  0.5835210000000 1.0
C      1  0.5282590000000  0.6585930000000  0.4564580000000 1.0
C      1  0.5419060000000  0.4387170000000  0.4807710000000 1.0
C      1  0.5205590000000  0.6386130000000  0.4720820000000 1.0
C      1  0.5369740000000  0.4323710000000  0.5578160000000 1.0
C      1  0.4916110000000  0.4302120000000  0.4641970000000 1.0
C      1  0.4940340000000  0.3865600000000  0.4912650000000 1.0
C      1  0.4845110000000  0.5302890000000  0.5404700000000 1.0
C      1  0.4588750000000  0.4950000000000  0.4477340000000 1.0
C      1  0.5051840000000  0.5985580000000  0.5031950000000 1.0
C      1  0.4291160000000  0.4702570000000  0.5038360000000 1.0
C      1  0.4708490000000  0.4941550000000  0.5102540000000 1.0
C      1  0.5476210000000  0.4165970000000  0.4971580000000 1.0
C      1  0.4671380000000  0.5190640000000  0.4360500000000 1.0
C      1  0.4321970000000  0.5079870000000  0.5922890000000 1.0
C      1  0.5574980000000  0.4884250000000  0.4966490000000 1.0
C      1  0.4606040000000  0.4745710000000  0.4667120000000 1.0
C      1  0.5826380000000  0.4985260000000  0.5032340000000 1.0
C      1  0.3987650000000  0.4765130000000  0.5701190000000 1.0
C      1  0.5268060000000  0.4813840000000  0.5450560000000 1.0
C      1  0.4532090000000  0.5303190000000  0.4147170000000 1.0
C      1  0.4723410000000  0.4499980000000  0.4603630000000 1.0
C      1  0.4850330000000  0.4044870000000  0.4734990000000 1.0
C      1  0.5188340000000  0.4373330000000  0.4648160000000 1.0
C      1  0.3984220000000  0.4668450000000  0.5453280000000 1.0
C      1  0.4533470000000  0.4798240000000  0.4937120000000 1.0
C      1  0.5547240000000  0.4631090000000  0.4850880000000 1.0
C      1  0.5352930000000  0.4009730000000  0.5171710000000 1.0
END
