TITL C-3866674-3872-376 -1.78807669040523e-06 125000 -992.784191996357 0 0 160 (C1) n - 1
REM
REM in /home/nfs/bkarasulu/CARBON/AIRSS/Generating-Clusters/LCBOP/Only-C1/SD-CG/FIRE-CG
REM
REM
REM
REM
REM
REM ./C.cell (11c1c37f851c82e70ff6c80c92926a4b)
REM AIRSS Version 0.9.1 bugfix July 2018 build 013d7b7c2542+ Fri, 06 Jul 2018 19:26:36 +0100
REM compiler GCC version 9.2.1 20190827 (Red Hat 9.2.1-1)
REM options -cpp -mtune=generic -march=x86-64 -g -O0 -fpre-include=/usr/include/finclude/math-vector-fortran.h
REM seed 106463223 -238282748 -1210706174 1391293242 1970740370 1291721757 1942328201 770469277 1397064877 -321873501 -647640764 1193809901 -500891364 95822520 -856386316 1679006136 937678533 -1567303821 -1822353904 -1668434941 1521355458 -1417817462 -469484907 2065521653 -651340553 -1369736827 2082952698 -160171850 1315746910 67069683 -1540989987 -1362201591 -1413537726
REM
CELL 1.54180   50.00000   50.00000   50.00000   90.00000   90.00000   90.00000
LATT -1
SFAC C  
C      1  0.5169200000000  0.4538650000000  0.5440890000000 1.0
C      1  0.4517040000000  0.4640000000000  0.4888290000000 1.0
C      1  0.5477890000000  0.5247980000000  0.5123620000000 1.0
C      1  0.5811680000000  0.4300140000000  0.5026670000000 1.0
C      1  0.5620130000000  0.5217570000000  0.5881830000000 1.0
C      1  0.5090230000000  0.4094880000000  0.4186110000000 1.0
C      1  0.4804570000000  0.5357930000000  0.4566270000000 1.0
C      1  0.4587580000000  0.4868960000000  0.6160530000000 1.0
C      1  0.4151020000000  0.4297770000000  0.5124840000000 1.0
C      1  0.5042470000000  0.4913180000000  0.5742280000000 1.0
C      1  0.5119210000000  0.5476680000000  0.4132890000000 1.0
C      1  0.6176590000000  0.4540780000000  0.5268030000000 1.0
C      1  0.6137670000000  0.5286260000000  0.5021580000000 1.0
C      1  0.5884910000000  0.4430640000000  0.4414330000000 1.0
C      1  0.3990580000000  0.5879530000000  0.5137400000000 1.0
C      1  0.4346240000000  0.4255870000000  0.4416100000000 1.0
C      1  0.5290010000000  0.5499050000000  0.4546600000000 1.0
C      1  0.5400930000000  0.6098230000000  0.5015240000000 1.0
C      1  0.5698580000000  0.4965510000000  0.4775410000000 1.0
C      1  0.4703650000000  0.5827250000000  0.5605600000000 1.0
C      1  0.3971490000000  0.5404630000000  0.4987460000000 1.0
C      1  0.5537330000000  0.5550640000000  0.5514130000000 1.0
C      1  0.4938740000000  0.4832400000000  0.5134310000000 1.0
C      1  0.3772580000000  0.3821620000000  0.4371670000000 1.0
C      1  0.5602050000000  0.4356550000000  0.5505760000000 1.0
C      1  0.5146280000000  0.5464010000000  0.6000160000000 1.0
C      1  0.5687080000000  0.4219880000000  0.4784000000000 1.0
C      1  0.5318180000000  0.4326180000000  0.5562510000000 1.0
C      1  0.4287560000000  0.5027530000000  0.4246870000000 1.0
C      1  0.4597840000000  0.4420130000000  0.5067850000000 1.0
C      1  0.4877300000000  0.4372140000000  0.5055470000000 1.0
C      1  0.5774220000000  0.5590200000000  0.5113970000000 1.0
C      1  0.4698190000000  0.4793570000000  0.4448910000000 1.0
C      1  0.4565370000000  0.5219270000000  0.4576810000000 1.0
C      1  0.4808600000000  0.4700260000000  0.6087560000000 1.0
C      1  0.5887240000000  0.5640770000000  0.4643540000000 1.0
C      1  0.5724460000000  0.4715960000000  0.5207980000000 1.0
C      1  0.3866410000000  0.5132130000000  0.5026680000000 1.0
C      1  0.4365160000000  0.5684580000000  0.4759340000000 1.0
C      1  0.6184640000000  0.5111810000000  0.4804160000000 1.0
C      1  0.4931670000000  0.6014580000000  0.5614290000000 1.0
C      1  0.3818610000000  0.5109820000000  0.4317490000000 1.0
C      1  0.5600920000000  0.4492110000000  0.4418380000000 1.0
C      1  0.4404170000000  0.4960490000000  0.5959590000000 1.0
C      1  0.5678110000000  0.4928930000000  0.5385250000000 1.0
C      1  0.5062280000000  0.5424700000000  0.4944480000000 1.0
C      1  0.4688070000000  0.3888170000000  0.5492400000000 1.0
C      1  0.4717510000000  0.4476960000000  0.5922580000000 1.0
C      1  0.4737340000000  0.5796350000000  0.4410040000000 1.0
C      1  0.5582780000000  0.4891640000000  0.5967630000000 1.0
C      1  0.3854340000000  0.5542020000000  0.5439390000000 1.0
C      1  0.5255530000000  0.5134830000000  0.5280980000000 1.0
C      1  0.6292140000000  0.4400430000000  0.5717140000000 1.0
C      1  0.4995860000000  0.4315030000000  0.4797600000000 1.0
C      1  0.5623860000000  0.5990790000000  0.4906380000000 1.0
C      1  0.5815580000000  0.4487190000000  0.5664270000000 1.0
C      1  0.4900800000000  0.5370620000000  0.5890590000000 1.0
C      1  0.5371980000000  0.5488590000000  0.4273320000000 1.0
C      1  0.4879640000000  0.5958330000000  0.4601880000000 1.0
C      1  0.4404980000000  0.4845560000000  0.5048420000000 1.0
C      1  0.4113120000000  0.4223130000000  0.4866170000000 1.0
C      1  0.5305230000000  0.4954380000000  0.6108300000000 1.0
C      1  0.4517940000000  0.5681630000000  0.5779560000000 1.0
C      1  0.4487060000000  0.5195330000000  0.5815620000000 1.0
C      1  0.5190460000000  0.5742730000000  0.5972390000000 1.0
C      1  0.4065780000000  0.5199960000000  0.4221150000000 1.0
C      1  0.4120000000000  0.5474830000000  0.4190440000000 1.0
C      1  0.5810450000000  0.4717730000000  0.3958200000000 1.0
C      1  0.4372980000000  0.4426950000000  0.5286450000000 1.0
C      1  0.4348890000000  0.4743800000000  0.5326530000000 1.0
C      1  0.5069580000000  0.5080270000000  0.5043770000000 1.0
C      1  0.4592860000000  0.4599740000000  0.4621800000000 1.0
C      1  0.4441750000000  0.5761370000000  0.5027370000000 1.0
C      1  0.5884620000000  0.4182100000000  0.4567510000000 1.0
C      1  0.5670680000000  0.4432980000000  0.5236480000000 1.0
C      1  0.4768690000000  0.5672440000000  0.5374660000000 1.0
C      1  0.4945300000000  0.4003660000000  0.4409050000000 1.0
C      1  0.6079450000000  0.4422220000000  0.5003800000000 1.0
C      1  0.5647240000000  0.4525340000000  0.3871350000000 1.0
C      1  0.5939020000000  0.5362680000000  0.5205470000000 1.0
C      1  0.5120640000000  0.6102640000000  0.5075520000000 1.0
C      1  0.4533040000000  0.5288320000000  0.5251690000000 1.0
C      1  0.4449720000000  0.5121480000000  0.5036810000000 1.0
C      1  0.5866110000000  0.4933340000000  0.4129100000000 1.0
C      1  0.3947290000000  0.3982760000000  0.4478580000000 1.0
C      1  0.4668920000000  0.4135970000000  0.5602930000000 1.0
C      1  0.5052990000000  0.4837130000000  0.6017940000000 1.0
C      1  0.4909410000000  0.3735970000000  0.4451850000000 1.0
C      1  0.4592180000000  0.4328720000000  0.4535960000000 1.0
C      1  0.4860080000000  0.5644380000000  0.4176440000000 1.0
C      1  0.5490130000000  0.5539340000000  0.5207760000000 1.0
C      1  0.5027340000000  0.5568290000000  0.5363570000000 1.0
C      1  0.5338940000000  0.5264400000000  0.6052160000000 1.0
C      1  0.5469430000000  0.4383680000000  0.4655410000000 1.0
C      1  0.5791000000000  0.5760920000000  0.4885120000000 1.0
C      1  0.4268190000000  0.5676430000000  0.4286810000000 1.0
C      1  0.5085650000000  0.5307120000000  0.5455370000000 1.0
C      1  0.6162510000000  0.4608190000000  0.4770390000000 1.0
C      1  0.6013190000000  0.4910090000000  0.4379050000000 1.0
C      1  0.3894060000000  0.5614750000000  0.5170190000000 1.0
C      1  0.6090090000000  0.4479510000000  0.5544070000000 1.0
C      1  0.4522970000000  0.5008520000000  0.4396660000000 1.0
C      1  0.5730090000000  0.4676650000000  0.5863450000000 1.0
C      1  0.4052190000000  0.5451980000000  0.5618980000000 1.0
C      1  0.5487050000000  0.5144840000000  0.4840030000000 1.0
C      1  0.4240760000000  0.5644650000000  0.5716270000000 1.0
C      1  0.5010730000000  0.4565610000000  0.5211850000000 1.0
C      1  0.5879240000000  0.5408050000000  0.4470940000000 1.0
C      1  0.3696050000000  0.5037150000000  0.4543210000000 1.0
C      1  0.5659880000000  0.5389610000000  0.4257810000000 1.0
C      1  0.5023720000000  0.5208240000000  0.4047350000000 1.0
C      1  0.5212240000000  0.4485360000000  0.4710730000000 1.0
C      1  0.4620500000000  0.5003510000000  0.3834500000000 1.0
C      1  0.5823380000000  0.5185040000000  0.5424200000000 1.0
C      1  0.4445200000000  0.4512280000000  0.5783930000000 1.0
C      1  0.6054110000000  0.4643340000000  0.4501840000000 1.0
C      1  0.5232310000000  0.4981470000000  0.4807510000000 1.0
C      1  0.4954580000000  0.6053260000000  0.4845060000000 1.0
C      1  0.4923550000000  0.5173070000000  0.5656250000000 1.0
C      1  0.4253940000000  0.5945580000000  0.5134250000000 1.0
C      1  0.4982720000000  0.4824370000000  0.4417000000000 1.0
C      1  0.5039010000000  0.5459830000000  0.4672140000000 1.0
C      1  0.4760870000000  0.5231650000000  0.3920310000000 1.0
C      1  0.4089490000000  0.5169950000000  0.5619720000000 1.0
C      1  0.5024850000000  0.6114290000000  0.5352230000000 1.0
C      1  0.6275790000000  0.4851030000000  0.4893170000000 1.0
C      1  0.4124120000000  0.4897130000000  0.5487280000000 1.0
C      1  0.5723530000000  0.5174180000000  0.4082200000000 1.0
C      1  0.4569910000000  0.5569350000000  0.5207520000000 1.0
C      1  0.4507540000000  0.4759950000000  0.3858740000000 1.0
C      1  0.5140920000000  0.4205730000000  0.5753580000000 1.0
C      1  0.6048000000000  0.5157400000000  0.4541840000000 1.0
C      1  0.3716420000000  0.5033610000000  0.4809230000000 1.0
C      1  0.5493630000000  0.5394800000000  0.4699190000000 1.0
C      1  0.4194600000000  0.5446730000000  0.4804290000000 1.0
C      1  0.5784760000000  0.4788860000000  0.4949140000000 1.0
C      1  0.5111530000000  0.5957100000000  0.5827430000000 1.0
C      1  0.4393700000000  0.4542360000000  0.3969550000000 1.0
C      1  0.5399830000000  0.4942930000000  0.5443850000000 1.0
C      1  0.4386870000000  0.5237980000000  0.4791170000000 1.0
C      1  0.5446610000000  0.4351280000000  0.3893970000000 1.0
C      1  0.4595010000000  0.4848150000000  0.5472760000000 1.0
C      1  0.5690680000000  0.5338740000000  0.5638380000000 1.0
C      1  0.4313710000000  0.4362920000000  0.4154320000000 1.0
C      1  0.6318510000000  0.4780810000000  0.5174840000000 1.0
C      1  0.3929030000000  0.4953020000000  0.5245260000000 1.0
C      1  0.4453830000000  0.4323330000000  0.5558120000000 1.0
C      1  0.5077630000000  0.4975190000000  0.4197350000000 1.0
C      1  0.5153440000000  0.4763240000000  0.4641280000000 1.0
C      1  0.4860300000000  0.4251350000000  0.5793640000000 1.0
C      1  0.5254530000000  0.4207750000000  0.4009920000000 1.0
C      1  0.4836470000000  0.4193260000000  0.4589360000000 1.0
C      1  0.4636150000000  0.5130200000000  0.5550120000000 1.0
C      1  0.4286260000000  0.4751480000000  0.5801200000000 1.0
C      1  0.4678130000000  0.5502490000000  0.3987620000000 1.0
C      1  0.5195770000000  0.5601880000000  0.5134550000000 1.0
C      1  0.4622380000000  0.5443210000000  0.5904690000000 1.0
C      1  0.4456240000000  0.5742010000000  0.4488900000000 1.0
C      1  0.5218540000000  0.4780470000000  0.5572110000000 1.0
C      1  0.4137150000000  0.4156800000000  0.4588670000000 1.0
END
