TITL C-3866671-3735-40 -0.0181612370897839 125000 -362.613760005504 0 0 59 (C1) n - 1
REM
REM in /home/nfs/bkarasulu/CARBON/AIRSS/Generating-Clusters/LCBOP/Only-C1/SD-CG/HFTN-CG/FIRE-CG
REM
REM
REM
REM
REM
REM ./C.cell (11c1c37f851c82e70ff6c80c92926a4b)
REM AIRSS Version 0.9.1 bugfix July 2018 build 013d7b7c2542+ Fri, 06 Jul 2018 19:26:36 +0100
REM compiler GCC version 9.2.1 20190827 (Red Hat 9.2.1-1)
REM options -cpp -mtune=generic -march=x86-64 -g -O0 -fpre-include=/usr/include/finclude/math-vector-fortran.h
REM seed -690405715 195252257 -1101889036 -292815823 -1953695349 662566013 349333047 92850778 1898356758 626548478 759705270 310137170 -597154593 -275104772 -1497997493 1383172341 -1930443639 1107474404 -1885473676 2086410930 -292798122 457961761 2092809951 1534876896 -2144782888 -1052878047 -1298023797 -1213889187 -1851271564 431193090 668035063 -997063820 -708789219
REM
CELL 1.54180   50.00000   50.00000   50.00000   90.00000   90.00000   90.00000
LATT -1
SFAC C  
C      1  0.4796030000000  0.4445990000000  0.4701090000000 1.0
C      1  0.4965680000000  0.5054090000000  0.5569920000000 1.0
C      1  0.5140810000000  0.5394630000000  0.5088500000000 1.0
C      1  0.5059810000000  0.5282370000000  0.5707660000000 1.0
C      1  0.4738540000000  0.5385940000000  0.4223650000000 1.0
C      1  0.4810500000000  0.4969560000000  0.4418430000000 1.0
C      1  0.4184620000000  0.4402590000000  0.5211240000000 1.0
C      1  0.4210710000000  0.4969730000000  0.4846830000000 1.0
C      1  0.5297340000000  0.5298740000000  0.4525500000000 1.0
C      1  0.5140420000000  0.4649260000000  0.4995950000000 1.0
C      1  0.5384950000000  0.4475280000000  0.5545820000000 1.0
C      1  0.5257530000000  0.4412190000000  0.5088990000000 1.0
C      1  0.4684530000000  0.5005890000000  0.5547330000000 1.0
C      1  0.5542770000000  0.5268210000000  0.4385630000000 1.0
C      1  0.5519360000000  0.5160530000000  0.4126930000000 1.0
C      1  0.5625080000000  0.4740870000000  0.6001760000000 1.0
C      1  0.4903080000000  0.5399060000000  0.5242680000000 1.0
C      1  0.4254410000000  0.5080590000000  0.5314990000000 1.0
C      1  0.4150200000000  0.4763360000000  0.4659700000000 1.0
C      1  0.4989450000000  0.4652070000000  0.4752840000000 1.0
C      1  0.4833880000000  0.5517340000000  0.4456450000000 1.0
C      1  0.4569530000000  0.5358470000000  0.4887820000000 1.0
C      1  0.5692530000000  0.5542460000000  0.5464620000000 1.0
C      1  0.4606720000000  0.4158910000000  0.5039080000000 1.0
C      1  0.5698290000000  0.4614190000000  0.6217420000000 1.0
C      1  0.5775700000000  0.5351800000000  0.4514120000000 1.0
C      1  0.4084210000000  0.4648860000000  0.5190730000000 1.0
C      1  0.5196610000000  0.5096630000000  0.4698750000000 1.0
C      1  0.5639510000000  0.5132710000000  0.5718000000000 1.0
C      1  0.5121170000000  0.5510240000000  0.4462700000000 1.0
C      1  0.4841940000000  0.5121610000000  0.4178840000000 1.0
C      1  0.4644590000000  0.5321740000000  0.5168080000000 1.0
C      1  0.5019540000000  0.4890410000000  0.4595910000000 1.0
C      1  0.5279320000000  0.5437010000000  0.5715110000000 1.0
C      1  0.4306330000000  0.4574790000000  0.4547840000000 1.0
C      1  0.5178840000000  0.4895590000000  0.5144460000000 1.0
C      1  0.4898570000000  0.5737570000000  0.4863520000000 1.0
C      1  0.4720410000000  0.5557930000000  0.4722210000000 1.0
C      1  0.5817420000000  0.5584190000000  0.5233630000000 1.0
C      1  0.4569300000000  0.4818470000000  0.5711400000000 1.0
C      1  0.4559740000000  0.4488420000000  0.4553090000000 1.0
C      1  0.5894000000000  0.5544520000000  0.4982170000000 1.0
C      1  0.4146730000000  0.4913350000000  0.5118580000000 1.0
C      1  0.5351880000000  0.4327410000000  0.5324750000000 1.0
C      1  0.4381380000000  0.4230120000000  0.5161620000000 1.0
C      1  0.5044370000000  0.5067320000000  0.3993610000000 1.0
C      1  0.5311610000000  0.5082460000000  0.3975360000000 1.0
C      1  0.4522130000000  0.5148630000000  0.5357320000000 1.0
C      1  0.5360280000000  0.4752290000000  0.5590840000000 1.0
C      1  0.4429710000000  0.5138110000000  0.4763360000000 1.0
C      1  0.5140690000000  0.5650950000000  0.4961190000000 1.0
C      1  0.5548260000000  0.5388530000000  0.5646910000000 1.0
C      1  0.4567740000000  0.5024970000000  0.4546270000000 1.0
C      1  0.5206800000000  0.5135690000000  0.4984480000000 1.0
C      1  0.5165850000000  0.4897410000000  0.5433440000000 1.0
C      1  0.4804150000000  0.4197160000000  0.4842780000000 1.0
C      1  0.4981380000000  0.4000300000000  0.4776270000000 1.0
C      1  0.5888750000000  0.5455810000000  0.4731540000000 1.0
C      1  0.5544340000000  0.4874700000000  0.5770260000000 1.0
END
