TITL C-3866670-4165-748 9.29034952049481 125000 -1198.39493802361 0 0 195 (C1) n - 1
REM
REM in /home/nfs/bkarasulu/CARBON/AIRSS/Generating-Clusters/LCBOP/Only-C1/SD-CG/FIRE-CG
REM
REM
REM
REM
REM
REM ./C.cell (11c1c37f851c82e70ff6c80c92926a4b)
REM AIRSS Version 0.9.1 bugfix July 2018 build 013d7b7c2542+ Fri, 06 Jul 2018 19:26:36 +0100
REM compiler GCC version 9.2.1 20190827 (Red Hat 9.2.1-1)
REM options -cpp -mtune=generic -march=x86-64 -g -O0 -fpre-include=/usr/include/finclude/math-vector-fortran.h
REM seed -1444085675 -1787229589 131547671 1476320979 -1525166781 754863829 218656367 1211439470 490745821 213799326 -1280244170 175366387 1841769357 -2056231767 2145866745 1897055076 273222305 -1715231689 -1288477410 -621758401 -1974524077 -1796992712 222397664 -79324326 1786365778 1150788691 -1521891049 144401166 981638742 402497448 506728827 -108529939 -1780959396
REM
CELL 1.54180   50.00000   50.00000   50.00000   90.00000   90.00000   90.00000
LATT -1
SFAC C  
C      1  0.4709520000000  0.4531750000000  0.5755350000000 1.0
C      1  0.3897580000000  0.5265630000000  0.4583050000000 1.0
C      1  0.4268220000000  0.5831370000000  0.5416530000000 1.0
C      1  0.4063610000000  0.4584050000000  0.4592110000000 1.0
C      1  0.4277480000000  0.4395160000000  0.5407320000000 1.0
C      1  0.5072850000000  0.5218520000000  0.4336670000000 1.0
C      1  0.5750780000000  0.4065530000000  0.5444810000000 1.0
C      1  0.5468970000000  0.4637480000000  0.4934860000000 1.0
C      1  0.5655580000000  0.5349610000000  0.5233470000000 1.0
C      1  0.4154070000000  0.5250880000000  0.4169290000000 1.0
C      1  0.5217190000000  0.5287320000000  0.6544310000000 1.0
C      1  0.4257390000000  0.4096520000000  0.4458760000000 1.0
C      1  0.4999380000000  0.6046300000000  0.5001650000000 1.0
C      1  0.4548640000000  0.4450310000000  0.5953470000000 1.0
C      1  0.5918910000000  0.4946100000000  0.4217460000000 1.0
C      1  0.4055810000000  0.4999190000000  0.4073060000000 1.0
C      1  0.4466980000000  0.4813190000000  0.5199370000000 1.0
C      1  0.4744440000000  0.4769930000000  0.6266640000000 1.0
C      1  0.4843210000000  0.5339690000000  0.5908940000000 1.0
C      1  0.4222710000000  0.5833810000000  0.4214020000000 1.0
C      1  0.5985240000000  0.5492570000000  0.4978930000000 1.0
C      1  0.5966030000000  0.5313780000000  0.4524800000000 1.0
C      1  0.5270500000000  0.3855500000000  0.4333630000000 1.0
C      1  0.5123760000000  0.4645020000000  0.4644500000000 1.0
C      1  0.5625440000000  0.5007740000000  0.4635250000000 1.0
C      1  0.5685980000000  0.5530560000000  0.3926460000000 1.0
C      1  0.4193990000000  0.5311070000000  0.5423330000000 1.0
C      1  0.3601380000000  0.5365210000000  0.5226150000000 1.0
C      1  0.4470800000000  0.5962100000000  0.4246510000000 1.0
C      1  0.5303350000000  0.4461620000000  0.5714460000000 1.0
C      1  0.5362810000000  0.5575030000000  0.4290520000000 1.0
C      1  0.5075220000000  0.5507380000000  0.5849630000000 1.0
C      1  0.6195080000000  0.4912730000000  0.4184040000000 1.0
C      1  0.5653520000000  0.4612410000000  0.3924500000000 1.0
C      1  0.5239650000000  0.4765520000000  0.6088910000000 1.0
C      1  0.5094510000000  0.6358630000000  0.4616250000000 1.0
C      1  0.5980380000000  0.4492670000000  0.4825840000000 1.0
C      1  0.3813690000000  0.4982050000000  0.3946610000000 1.0
C      1  0.5090880000000  0.6466700000000  0.5145790000000 1.0
C      1  0.5135740000000  0.4327420000000  0.5528830000000 1.0
C      1  0.4990290000000  0.6216220000000  0.4390290000000 1.0
C      1  0.5513110000000  0.5208750000000  0.4804810000000 1.0
C      1  0.5701530000000  0.4147390000000  0.3791710000000 1.0
C      1  0.4876150000000  0.5240290000000  0.6178460000000 1.0
C      1  0.3720070000000  0.5181260000000  0.5391640000000 1.0
C      1  0.4647900000000  0.5278800000000  0.4000780000000 1.0
C      1  0.5252840000000  0.4113180000000  0.4214720000000 1.0
C      1  0.4498280000000  0.4657960000000  0.6131610000000 1.0
C      1  0.4747560000000  0.3859980000000  0.5133790000000 1.0
C      1  0.4880540000000  0.6219840000000  0.4119120000000 1.0
C      1  0.5416120000000  0.4244180000000  0.4685100000000 1.0
C      1  0.4685200000000  0.5056220000000  0.6265350000000 1.0
C      1  0.4873240000000  0.4868070000000  0.5468470000000 1.0
C      1  0.5030950000000  0.5189860000000  0.5085050000000 1.0
C      1  0.5489190000000  0.5170430000000  0.5089000000000 1.0
C      1  0.4898100000000  0.4733410000000  0.5711870000000 1.0
C      1  0.4843090000000  0.5640150000000  0.4837590000000 1.0
C      1  0.5687030000000  0.4945410000000  0.5861990000000 1.0
C      1  0.5778690000000  0.4521550000000  0.4613190000000 1.0
C      1  0.5730610000000  0.5602740000000  0.4922410000000 1.0
C      1  0.4867360000000  0.5487010000000  0.4004150000000 1.0
C      1  0.4960400000000  0.4851070000000  0.4736240000000 1.0
C      1  0.4616740000000  0.5345550000000  0.5736990000000 1.0
C      1  0.6053800000000  0.4944450000000  0.5503800000000 1.0
C      1  0.4306690000000  0.3998090000000  0.4941760000000 1.0
C      1  0.5880540000000  0.5550230000000  0.4376150000000 1.0
C      1  0.5500880000000  0.4267480000000  0.4220470000000 1.0
C      1  0.6162390000000  0.5703800000000  0.5877530000000 1.0
C      1  0.4652980000000  0.4632930000000  0.5028840000000 1.0
C      1  0.3937940000000  0.4394510000000  0.5045290000000 1.0
C      1  0.5248790000000  0.5049170000000  0.5236700000000 1.0
C      1  0.5119340000000  0.5439840000000  0.4157210000000 1.0
C      1  0.4155300000000  0.4552520000000  0.4304620000000 1.0
C      1  0.4709700000000  0.6349170000000  0.5436120000000 1.0
C      1  0.5551480000000  0.4923790000000  0.5609200000000 1.0
C      1  0.5252370000000  0.5505120000000  0.6094840000000 1.0
C      1  0.4348970000000  0.4333580000000  0.4331900000000 1.0
C      1  0.5935560000000  0.5354520000000  0.5238150000000 1.0
C      1  0.4141770000000  0.5592200000000  0.5321330000000 1.0
C      1  0.5083220000000  0.6308570000000  0.4899110000000 1.0
C      1  0.4996610000000  0.4717830000000  0.4214010000000 1.0
C      1  0.4634620000000  0.5584800000000  0.5582970000000 1.0
C      1  0.5913470000000  0.3567860000000  0.3290600000000 1.0
C      1  0.5747200000000  0.4838150000000  0.4027140000000 1.0
C      1  0.4006990000000  0.4351390000000  0.5316540000000 1.0
C      1  0.5737330000000  0.4102820000000  0.5159880000000 1.0
C      1  0.4610360000000  0.5017670000000  0.3882370000000 1.0
C      1  0.5621430000000  0.4743260000000  0.4719780000000 1.0
C      1  0.5772800000000  0.3955000000000  0.3624200000000 1.0
C      1  0.6152000000000  0.5447760000000  0.5924980000000 1.0
C      1  0.3774590000000  0.5453520000000  0.5016120000000 1.0
C      1  0.5823940000000  0.5080900000000  0.4445640000000 1.0
C      1  0.4815860000000  0.4470240000000  0.4204990000000 1.0
C      1  0.4526560000000  0.5990780000000  0.4795380000000 1.0
C      1  0.5640070000000  0.4505340000000  0.6049900000000 1.0
C      1  0.5641090000000  0.5552570000000  0.4203120000000 1.0
C      1  0.5090950000000  0.4779330000000  0.5293380000000 1.0
C      1  0.4436290000000  0.5158600000000  0.5570380000000 1.0
C      1  0.5543500000000  0.4354850000000  0.5827920000000 1.0
C      1  0.4043190000000  0.5688740000000  0.4378680000000 1.0
C      1  0.4625960000000  0.5468490000000  0.4879450000000 1.0
C      1  0.5009390000000  0.4637720000000  0.6239770000000 1.0
C      1  0.4941420000000  0.4165860000000  0.5677330000000 1.0
C      1  0.5537470000000  0.4643290000000  0.5200140000000 1.0
C      1  0.4435940000000  0.5293430000000  0.4197910000000 1.0
C      1  0.5106550000000  0.4483410000000  0.5287470000000 1.0
C      1  0.5424920000000  0.5797130000000  0.5774300000000 1.0
C      1  0.3637530000000  0.4191160000000  0.5675760000000 1.0
C      1  0.4574990000000  0.5980530000000  0.4512720000000 1.0
C      1  0.3886720000000  0.5233590000000  0.4861560000000 1.0
C      1  0.5280280000000  0.3857650000000  0.5187580000000 1.0
C      1  0.4783320000000  0.4379840000000  0.4953980000000 1.0
C      1  0.5057690000000  0.4372790000000  0.5032940000000 1.0
C      1  0.5183070000000  0.5699580000000  0.5650530000000 1.0
C      1  0.6082270000000  0.5285680000000  0.4793710000000 1.0
C      1  0.6033600000000  0.5778810000000  0.4389340000000 1.0
C      1  0.4241930000000  0.4882060000000  0.4975370000000 1.0
C      1  0.4783220000000  0.5903880000000  0.4903890000000 1.0
C      1  0.5508070000000  0.3957470000000  0.5044160000000 1.0
C      1  0.4244710000000  0.5303730000000  0.6236760000000 1.0
C      1  0.5037690000000  0.5758450000000  0.5413250000000 1.0
C      1  0.4512470000000  0.5264470000000  0.4462360000000 1.0
C      1  0.5002050000000  0.4237450000000  0.4172980000000 1.0
C      1  0.6131130000000  0.5031110000000  0.4966370000000 1.0
C      1  0.4517570000000  0.4716680000000  0.4592330000000 1.0
C      1  0.4612960000000  0.4443540000000  0.4440430000000 1.0
C      1  0.5121890000000  0.5341890000000  0.6290470000000 1.0
C      1  0.4411740000000  0.5101240000000  0.6167490000000 1.0
C      1  0.4979690000000  0.6300080000000  0.5365670000000 1.0
C      1  0.4819390000000  0.5290670000000  0.5247160000000 1.0
C      1  0.5927320000000  0.4322410000000  0.5068690000000 1.0
C      1  0.5184940000000  0.6720460000000  0.5171590000000 1.0
C      1  0.4011800000000  0.4358610000000  0.4774640000000 1.0
C      1  0.4030650000000  0.5055290000000  0.5040840000000 1.0
C      1  0.5449980000000  0.3979480000000  0.4769720000000 1.0
C      1  0.5370370000000  0.3789570000000  0.4577180000000 1.0
C      1  0.5011900000000  0.3820630000000  0.5175760000000 1.0
C      1  0.4340180000000  0.4883080000000  0.5695210000000 1.0
C      1  0.4496810000000  0.4000470000000  0.5150860000000 1.0
C      1  0.5463310000000  0.5686880000000  0.6025670000000 1.0
C      1  0.5660540000000  0.4727940000000  0.5430910000000 1.0
C      1  0.4976650000000  0.4175910000000  0.5968100000000 1.0
C      1  0.4484750000000  0.5313560000000  0.4719680000000 1.0
C      1  0.6453200000000  0.4879330000000  0.4171110000000 1.0
C      1  0.5545620000000  0.4780500000000  0.6068790000000 1.0
C      1  0.4068400000000  0.5832610000000  0.4891230000000 1.0
C      1  0.4637470000000  0.4538620000000  0.3969490000000 1.0
C      1  0.5330360000000  0.5612930000000  0.4584840000000 1.0
C      1  0.4255910000000  0.4763630000000  0.4707350000000 1.0
C      1  0.6039520000000  0.4462230000000  0.5300050000000 1.0
C      1  0.5982640000000  0.3377440000000  0.3126520000000 1.0
C      1  0.6121170000000  0.4752380000000  0.4879950000000 1.0
C      1  0.4475760000000  0.4772480000000  0.3960320000000 1.0
C      1  0.6084670000000  0.5106630000000  0.5261050000000 1.0
C      1  0.5599530000000  0.4336210000000  0.4482120000000 1.0
C      1  0.4321510000000  0.6052030000000  0.5240860000000 1.0
C      1  0.5683270000000  0.4158420000000  0.5686310000000 1.0
C      1  0.3999430000000  0.5404810000000  0.4357030000000 1.0
C      1  0.4793530000000  0.5756890000000  0.3942560000000 1.0
C      1  0.4296730000000  0.5991580000000  0.4960980000000 1.0
C      1  0.5943820000000  0.4686900000000  0.5438690000000 1.0
C      1  0.5619120000000  0.4340490000000  0.3974950000000 1.0
C      1  0.5347260000000  0.5093280000000  0.5518100000000 1.0
C      1  0.5162180000000  0.4692620000000  0.5817130000000 1.0
C      1  0.5843130000000  0.3761470000000  0.3457420000000 1.0
C      1  0.4718720000000  0.4288370000000  0.4686580000000 1.0
C      1  0.5257740000000  0.4452200000000  0.4825940000000 1.0
C      1  0.4469250000000  0.6267970000000  0.5345940000000 1.0
C      1  0.4998160000000  0.4349550000000  0.6180520000000 1.0
C      1  0.3992070000000  0.5125310000000  0.5321610000000 1.0
C      1  0.4472360000000  0.4174620000000  0.5383260000000 1.0
C      1  0.5020320000000  0.5107330000000  0.4813840000000 1.0
C      1  0.4863620000000  0.5980230000000  0.4485480000000 1.0
C      1  0.4689590000000  0.6000540000000  0.4051120000000 1.0
C      1  0.5532060000000  0.5497260000000  0.4753980000000 1.0
C      1  0.6135880000000  0.5170250000000  0.5954520000000 1.0
C      1  0.3976500000000  0.5642740000000  0.5085250000000 1.0
C      1  0.4681940000000  0.4125770000000  0.5570020000000 1.0
C      1  0.5033100000000  0.5282290000000  0.4604640000000 1.0
C      1  0.4826240000000  0.5559520000000  0.5372730000000 1.0
C      1  0.4454200000000  0.5790140000000  0.5619080000000 1.0
C      1  0.5035510000000  0.6019180000000  0.5288740000000 1.0
C      1  0.5062060000000  0.5555390000000  0.4680050000000 1.0
C      1  0.5966540000000  0.5023710000000  0.5781170000000 1.0
C      1  0.4166200000000  0.4116920000000  0.4726370000000 1.0
C      1  0.6280900000000  0.5041200000000  0.6147130000000 1.0
C      1  0.5727880000000  0.5493710000000  0.3671920000000 1.0
C      1  0.4219270000000  0.4764910000000  0.4106860000000 1.0
C      1  0.3813400000000  0.4267070000000  0.5499060000000 1.0
C      1  0.4343790000000  0.4677990000000  0.5458470000000 1.0
C      1  0.4645410000000  0.5050120000000  0.5350160000000 1.0
C      1  0.4701540000000  0.4783060000000  0.4787210000000 1.0
C      1  0.4350440000000  0.4875330000000  0.5993710000000 1.0
C      1  0.3981610000000  0.5810880000000  0.4625680000000 1.0
C      1  0.5307810000000  0.5218240000000  0.6778660000000 1.0
END
