TITL C-3866672-3872-121 -0.0855064965693214 125000 -783.973114983122 0 0 130 (C1) n - 1
REM
REM in /home/nfs/bkarasulu/CARBON/AIRSS/Generating-Clusters/LCBOP/Only-C1/SD-CG/HFTN-CG/FIRE-CG
REM
REM
REM
REM
REM
REM ./C.cell (11c1c37f851c82e70ff6c80c92926a4b)
REM AIRSS Version 0.9.1 bugfix July 2018 build 013d7b7c2542+ Fri, 06 Jul 2018 19:26:36 +0100
REM compiler GCC version 9.2.1 20190827 (Red Hat 9.2.1-1)
REM options -cpp -mtune=generic -march=x86-64 -g -O0 -fpre-include=/usr/include/finclude/math-vector-fortran.h
REM seed -1455688892 928571644 965108390 -1876165057 1923213362 -609759159 1010445067 1071340806 1628841392 1472189988 1291653216 -730872146 -462710619 306003331 2055161683 -1679006465 -1373754923 -1825279615 1380536871 -1070730538 152424144 2080290429 -582530883 -806289805 1315718355 827644446 2127788535 1730028955 -665176168 -126960629 -1598240567 2105111329 -1634455393
REM
CELL 1.54180   50.00000   50.00000   50.00000   90.00000   90.00000   90.00000
LATT -1
SFAC C  
C      1  0.5396970000000  0.5752160000000  0.5160420000000 1.0
C      1  0.4976070000000  0.4057730000000  0.4610920000000 1.0
C      1  0.4226930000000  0.4751830000000  0.4624580000000 1.0
C      1  0.5268640000000  0.5941680000000  0.4505290000000 1.0
C      1  0.5013040000000  0.4818610000000  0.3735040000000 1.0
C      1  0.4763010000000  0.4917500000000  0.3714300000000 1.0
C      1  0.5181780000000  0.5911630000000  0.5016550000000 1.0
C      1  0.5462220000000  0.6084590000000  0.5800330000000 1.0
C      1  0.5182140000000  0.5152610000000  0.5991190000000 1.0
C      1  0.5136680000000  0.4292400000000  0.4224510000000 1.0
C      1  0.5843680000000  0.4931700000000  0.4432660000000 1.0
C      1  0.4725390000000  0.4251720000000  0.5830380000000 1.0
C      1  0.5678950000000  0.6286250000000  0.4562510000000 1.0
C      1  0.4591390000000  0.6039250000000  0.5043490000000 1.0
C      1  0.5142700000000  0.4884200000000  0.4204250000000 1.0
C      1  0.5411180000000  0.5888600000000  0.5629580000000 1.0
C      1  0.4912240000000  0.5469230000000  0.4068820000000 1.0
C      1  0.4443450000000  0.6132770000000  0.4488520000000 1.0
C      1  0.5114090000000  0.5194670000000  0.5121370000000 1.0
C      1  0.6054290000000  0.5514920000000  0.4814610000000 1.0
C      1  0.4682720000000  0.4303180000000  0.5570780000000 1.0
C      1  0.5476320000000  0.6126300000000  0.4526890000000 1.0
C      1  0.6141290000000  0.5016580000000  0.4803650000000 1.0
C      1  0.4378950000000  0.5034300000000  0.5387580000000 1.0
C      1  0.4836700000000  0.4795180000000  0.5960160000000 1.0
C      1  0.4657820000000  0.5096810000000  0.3887180000000 1.0
C      1  0.5701200000000  0.4813220000000  0.4883470000000 1.0
C      1  0.4905130000000  0.4239120000000  0.4390770000000 1.0
C      1  0.4946230000000  0.4298250000000  0.6002020000000 1.0
C      1  0.4787330000000  0.5046580000000  0.4808050000000 1.0
C      1  0.5481830000000  0.4903730000000  0.3852580000000 1.0
C      1  0.4295360000000  0.6334430000000  0.4415640000000 1.0
C      1  0.5214030000000  0.4866120000000  0.3926960000000 1.0
C      1  0.4877080000000  0.5840800000000  0.5381250000000 1.0
C      1  0.5806490000000  0.5195920000000  0.5362260000000 1.0
C      1  0.4620040000000  0.5836600000000  0.4847060000000 1.0
C      1  0.5635520000000  0.5607460000000  0.5053710000000 1.0
C      1  0.5771810000000  0.5559730000000  0.4794130000000 1.0
C      1  0.4729630000000  0.5612250000000  0.5304950000000 1.0
C      1  0.4679050000000  0.5234380000000  0.6123310000000 1.0
C      1  0.4939450000000  0.6010240000000  0.5167680000000 1.0
C      1  0.4086910000000  0.5052630000000  0.5381620000000 1.0
C      1  0.5658660000000  0.4715830000000  0.5552220000000 1.0
C      1  0.4541060000000  0.4749680000000  0.5945930000000 1.0
C      1  0.5749940000000  0.5432340000000  0.5252620000000 1.0
C      1  0.4170740000000  0.4486680000000  0.5691240000000 1.0
C      1  0.5347310000000  0.5687270000000  0.5443810000000 1.0
C      1  0.5344760000000  0.4519110000000  0.4829410000000 1.0
C      1  0.5508500000000  0.4020870000000  0.4781370000000 1.0
C      1  0.5247470000000  0.3511260000000  0.5008370000000 1.0
C      1  0.4743670000000  0.5754520000000  0.4398760000000 1.0
C      1  0.5166300000000  0.4130050000000  0.5952660000000 1.0
C      1  0.5403660000000  0.4346530000000  0.4209340000000 1.0
C      1  0.4796740000000  0.4798680000000  0.5197560000000 1.0
C      1  0.4317210000000  0.4634020000000  0.5858510000000 1.0
C      1  0.4181350000000  0.5049250000000  0.4651980000000 1.0
C      1  0.4425200000000  0.4584590000000  0.4450890000000 1.0
C      1  0.4930460000000  0.5728390000000  0.4186150000000 1.0
C      1  0.4909720000000  0.5073900000000  0.6067110000000 1.0
C      1  0.4289320000000  0.5251370000000  0.5791830000000 1.0
C      1  0.5649370000000  0.5380310000000  0.4600200000000 1.0
C      1  0.4496650000000  0.4349210000000  0.4849370000000 1.0
C      1  0.4238500000000  0.4386810000000  0.4953560000000 1.0
C      1  0.5790430000000  0.5219160000000  0.4405790000000 1.0
C      1  0.4814070000000  0.4521830000000  0.5145460000000 1.0
C      1  0.4544650000000  0.4944970000000  0.5187320000000 1.0
C      1  0.4423300000000  0.5279170000000  0.6039270000000 1.0
C      1  0.4098320000000  0.4608070000000  0.4844640000000 1.0
C      1  0.4162970000000  0.4295120000000  0.5207640000000 1.0
C      1  0.5275190000000  0.4751190000000  0.4411260000000 1.0
C      1  0.5596470000000  0.4119390000000  0.5039520000000 1.0
C      1  0.5690940000000  0.4450290000000  0.5436070000000 1.0
C      1  0.4125180000000  0.4351920000000  0.5465670000000 1.0
C      1  0.3926800000000  0.4756430000000  0.5016990000000 1.0
C      1  0.5254080000000  0.5433140000000  0.5548260000000 1.0
C      1  0.4583140000000  0.5338520000000  0.4509340000000 1.0
C      1  0.5176250000000  0.4608670000000  0.4632740000000 1.0
C      1  0.4953210000000  0.4050350000000  0.5278350000000 1.0
C      1  0.5108190000000  0.4968190000000  0.5529780000000 1.0
C      1  0.5143800000000  0.3753120000000  0.4944470000000 1.0
C      1  0.5235130000000  0.3943930000000  0.4735660000000 1.0
C      1  0.4901460000000  0.5010600000000  0.4298900000000 1.0
C      1  0.5762560000000  0.4746060000000  0.4227340000000 1.0
C      1  0.5224610000000  0.5385770000000  0.5830150000000 1.0
C      1  0.4815190000000  0.4298140000000  0.5323140000000 1.0
C      1  0.4316980000000  0.5968050000000  0.5139730000000 1.0
C      1  0.5780590000000  0.4939500000000  0.5430290000000 1.0
C      1  0.4161960000000  0.5735830000000  0.5075740000000 1.0
C      1  0.4597510000000  0.5918010000000  0.4573290000000 1.0
C      1  0.4955570000000  0.4812270000000  0.5682530000000 1.0
C      1  0.4895570000000  0.4635680000000  0.4668460000000 1.0
C      1  0.5695930000000  0.3978700000000  0.4585520000000 1.0
C      1  0.4556030000000  0.5120600000000  0.4956840000000 1.0
C      1  0.5521530000000  0.4778600000000  0.5796470000000 1.0
C      1  0.5151630000000  0.5824550000000  0.4739000000000 1.0
C      1  0.4968650000000  0.4971880000000  0.5031060000000 1.0
C      1  0.5107100000000  0.5401540000000  0.4938900000000 1.0
C      1  0.4653160000000  0.5424620000000  0.5494900000000 1.0
C      1  0.5786980000000  0.4253050000000  0.5603350000000 1.0
C      1  0.5171000000000  0.5863420000000  0.4248530000000 1.0
C      1  0.5644270000000  0.4377550000000  0.5159730000000 1.0
C      1  0.4779680000000  0.3978650000000  0.4812760000000 1.0
C      1  0.5028160000000  0.5561090000000  0.4724840000000 1.0
C      1  0.4799180000000  0.5513990000000  0.4556180000000 1.0
C      1  0.5140490000000  0.3972690000000  0.5475460000000 1.0
C      1  0.4347330000000  0.5213730000000  0.4490070000000 1.0
C      1  0.5718740000000  0.4861160000000  0.3971530000000 1.0
C      1  0.4801920000000  0.5206880000000  0.4105790000000 1.0
C      1  0.3976570000000  0.5018190000000  0.5116500000000 1.0
C      1  0.4037960000000  0.5168240000000  0.5653130000000 1.0
C      1  0.6190430000000  0.5281080000000  0.4831170000000 1.0
C      1  0.5921210000000  0.4865260000000  0.4705520000000 1.0
C      1  0.4641420000000  0.5597550000000  0.5025040000000 1.0
C      1  0.5450410000000  0.5223040000000  0.4721280000000 1.0
C      1  0.4818150000000  0.4904040000000  0.4565470000000 1.0
C      1  0.4960170000000  0.4562340000000  0.6102430000000 1.0
C      1  0.4061490000000  0.5196120000000  0.4898420000000 1.0
C      1  0.5383950000000  0.4947420000000  0.5958990000000 1.0
C      1  0.5230470000000  0.3999190000000  0.5726250000000 1.0
C      1  0.4188440000000  0.5455640000000  0.4977670000000 1.0
C      1  0.5631220000000  0.4490870000000  0.4253940000000 1.0
C      1  0.4747560000000  0.4478870000000  0.4868210000000 1.0
C      1  0.4637990000000  0.4401400000000  0.4378500000000 1.0
C      1  0.5584270000000  0.4573180000000  0.4965720000000 1.0
C      1  0.4909040000000  0.3886670000000  0.5053060000000 1.0
C      1  0.5513990000000  0.5024190000000  0.4888790000000 1.0
C      1  0.5179040000000  0.5204450000000  0.5392450000000 1.0
C      1  0.4479220000000  0.5225150000000  0.5573530000000 1.0
C      1  0.5510850000000  0.6277690000000  0.5968570000000 1.0
C      1  0.4467920000000  0.5384810000000  0.4972770000000 1.0
END
