TITL C-3866675-3766-76 20.1590352775553 125000 -1106.91522661153 0 0 184 (C1) n - 1
REM
REM in /home/nfs/bkarasulu/CARBON/AIRSS/Generating-Clusters/LCBOP/Only-C1/SD-CG/HFTN-CG/FIRE-CG
REM
REM
REM
REM
REM
REM ./C.cell (11c1c37f851c82e70ff6c80c92926a4b)
REM AIRSS Version 0.9.1 bugfix July 2018 build 013d7b7c2542+ Fri, 06 Jul 2018 19:26:36 +0100
REM compiler GCC version 9.2.1 20190827 (Red Hat 9.2.1-1)
REM options -cpp -mtune=generic -march=x86-64 -g -O0 -fpre-include=/usr/include/finclude/math-vector-fortran.h
REM seed -1650179102 -1861959394 -1144404569 -2061549500 -908504187 -1434916398 -1146447127 -2100847461 1708419204 -899600579 -1082071791 -996217784 522406667 1842876401 -54593853 -444890452 -21832850 -1020418527 -1001484701 -1755801703 2145289088 122828543 452812820 2105877202 -844612840 1853643428 -1174237411 1232637729 1218843311 2056660299 353646242 765205281 -1534337909
REM
CELL 1.54180   50.00000   50.00000   50.00000   90.00000   90.00000   90.00000
LATT -1
SFAC C  
C      1  0.4377370000000  0.5205740000000  0.5233200000000 1.0
C      1  0.3264970000000  0.5595920000000  0.3883300000000 1.0
C      1  0.5016700000000  0.4782970000000  0.4646620000000 1.0
C      1  0.6094090000000  0.5329660000000  0.4333700000000 1.0
C      1  0.5669540000000  0.5260150000000  0.4829290000000 1.0
C      1  0.4470260000000  0.4873780000000  0.6291220000000 1.0
C      1  0.5290290000000  0.4563380000000  0.5299000000000 1.0
C      1  0.5969520000000  0.5655700000000  0.5279180000000 1.0
C      1  0.4018370000000  0.5815900000000  0.5552810000000 1.0
C      1  0.3750350000000  0.5569320000000  0.4756840000000 1.0
C      1  0.4198570000000  0.5589600000000  0.4584000000000 1.0
C      1  0.4514100000000  0.5244090000000  0.5499400000000 1.0
C      1  0.4682920000000  0.5958790000000  0.4656860000000 1.0
C      1  0.5028830000000  0.5283910000000  0.5160640000000 1.0
C      1  0.3974830000000  0.4940950000000  0.5266570000000 1.0
C      1  0.6263410000000  0.5710220000000  0.5657370000000 1.0
C      1  0.5919460000000  0.4067360000000  0.4755190000000 1.0
C      1  0.4652940000000  0.5450110000000  0.6395910000000 1.0
C      1  0.4063700000000  0.4408930000000  0.6687670000000 1.0
C      1  0.4940380000000  0.4132040000000  0.4004090000000 1.0
C      1  0.5705240000000  0.4834340000000  0.4170170000000 1.0
C      1  0.5226640000000  0.4432400000000  0.4338380000000 1.0
C      1  0.4924340000000  0.5900070000000  0.5226380000000 1.0
C      1  0.6404870000000  0.4854730000000  0.5350880000000 1.0
C      1  0.4325150000000  0.5453720000000  0.5102770000000 1.0
C      1  0.4585720000000  0.4474940000000  0.4437470000000 1.0
C      1  0.5161320000000  0.4811660000000  0.5268060000000 1.0
C      1  0.4336030000000  0.4627580000000  0.6271710000000 1.0
C      1  0.6187530000000  0.5258830000000  0.5496900000000 1.0
C      1  0.5093340000000  0.5729860000000  0.5658840000000 1.0
C      1  0.3494450000000  0.4417370000000  0.5162380000000 1.0
C      1  0.4863220000000  0.4666930000000  0.4863710000000 1.0
C      1  0.6021790000000  0.5090520000000  0.5663640000000 1.0
C      1  0.5530420000000  0.5115160000000  0.4614900000000 1.0
C      1  0.5675890000000  0.3891840000000  0.4756370000000 1.0
C      1  0.4591710000000  0.5543200000000  0.4021950000000 1.0
C      1  0.3978330000000  0.5019520000000  0.5546560000000 1.0
C      1  0.4519730000000  0.4953460000000  0.3879490000000 1.0
C      1  0.4201880000000  0.4298100000000  0.4709430000000 1.0
C      1  0.5350770000000  0.5395000000000  0.5895080000000 1.0
C      1  0.5634520000000  0.5715060000000  0.4339480000000 1.0
C      1  0.5086870000000  0.5800170000000  0.4474700000000 1.0
C      1  0.4519340000000  0.3908010000000  0.4116960000000 1.0
C      1  0.5401290000000  0.5935070000000  0.5331290000000 1.0
C      1  0.5027880000000  0.5078060000000  0.4653630000000 1.0
C      1  0.6073280000000  0.4804810000000  0.5686380000000 1.0
C      1  0.4215010000000  0.4993600000000  0.5115970000000 1.0
C      1  0.4225420000000  0.4451720000000  0.5539430000000 1.0
C      1  0.7003360000000  0.5611570000000  0.5107220000000 1.0
C      1  0.5404890000000  0.4424790000000  0.4780150000000 1.0
C      1  0.4468690000000  0.6038160000000  0.5066040000000 1.0
C      1  0.4868050000000  0.5399620000000  0.5968500000000 1.0
C      1  0.4823490000000  0.5469770000000  0.4957420000000 1.0
C      1  0.4129730000000  0.4877410000000  0.5769550000000 1.0
C      1  0.4701110000000  0.4991300000000  0.4355810000000 1.0
C      1  0.6137270000000  0.5540110000000  0.5473840000000 1.0
C      1  0.3631020000000  0.5110430000000  0.4969520000000 1.0
C      1  0.4619570000000  0.4093920000000  0.5824620000000 1.0
C      1  0.4346460000000  0.4497080000000  0.6018420000000 1.0
C      1  0.6408660000000  0.5136680000000  0.5362220000000 1.0
C      1  0.4142820000000  0.5180260000000  0.4326830000000 1.0
C      1  0.4947890000000  0.4041600000000  0.3746970000000 1.0
C      1  0.4429970000000  0.5434320000000  0.3837970000000 1.0
C      1  0.6118710000000  0.5319880000000  0.4614230000000 1.0
C      1  0.6342560000000  0.5219610000000  0.4733190000000 1.0
C      1  0.5430290000000  0.5381170000000  0.6157790000000 1.0
C      1  0.5784840000000  0.5207020000000  0.5767120000000 1.0
C      1  0.4680270000000  0.5493100000000  0.5497910000000 1.0
C      1  0.5405850000000  0.4108740000000  0.5137530000000 1.0
C      1  0.4299100000000  0.5291260000000  0.5708780000000 1.0
C      1  0.4246660000000  0.4166690000000  0.5551290000000 1.0
C      1  0.5729390000000  0.4810000000000  0.5229940000000 1.0
C      1  0.5713450000000  0.5838460000000  0.4583160000000 1.0
C      1  0.5571480000000  0.4905130000000  0.3923750000000 1.0
C      1  0.4521300000000  0.5854430000000  0.4862080000000 1.0
C      1  0.5099810000000  0.4848830000000  0.4185430000000 1.0
C      1  0.3696640000000  0.5374310000000  0.4085640000000 1.0
C      1  0.4752170000000  0.4430270000000  0.4959740000000 1.0
C      1  0.4197130000000  0.4517990000000  0.6486450000000 1.0
C      1  0.4299600000000  0.5082230000000  0.5904250000000 1.0
C      1  0.4187540000000  0.6039920000000  0.5139380000000 1.0
C      1  0.5898500000000  0.4222070000000  0.4492270000000 1.0
C      1  0.4675020000000  0.4154990000000  0.5339150000000 1.0
C      1  0.5940480000000  0.4499760000000  0.4931980000000 1.0
C      1  0.4023710000000  0.5936920000000  0.4926550000000 1.0
C      1  0.5601410000000  0.5968600000000  0.5135270000000 1.0
C      1  0.4954040000000  0.5883710000000  0.4706940000000 1.0
C      1  0.4593560000000  0.4407440000000  0.5202220000000 1.0
C      1  0.5464130000000  0.3896650000000  0.4950550000000 1.0
C      1  0.5146470000000  0.4287130000000  0.4113630000000 1.0
C      1  0.4723560000000  0.4077920000000  0.4180420000000 1.0
C      1  0.4590310000000  0.5042850000000  0.4860520000000 1.0
C      1  0.4519390000000  0.4072880000000  0.5561280000000 1.0
C      1  0.3597870000000  0.4655840000000  0.5143650000000 1.0
C      1  0.5657180000000  0.5506940000000  0.4146880000000 1.0
C      1  0.3479170000000  0.5485440000000  0.3982680000000 1.0
C      1  0.4680590000000  0.5003290000000  0.5573710000000 1.0
C      1  0.5626420000000  0.4169830000000  0.4410120000000 1.0
C      1  0.5432090000000  0.4354610000000  0.4507280000000 1.0
C      1  0.4033030000000  0.5312610000000  0.5592030000000 1.0
C      1  0.4636940000000  0.5578200000000  0.6622300000000 1.0
C      1  0.4987510000000  0.5627240000000  0.4294480000000 1.0
C      1  0.4770700000000  0.5255120000000  0.4725590000000 1.0
C      1  0.5132090000000  0.3525430000000  0.4991430000000 1.0
C      1  0.5290800000000  0.3823440000000  0.4424490000000 1.0
C      1  0.4378130000000  0.5176970000000  0.3776110000000 1.0
C      1  0.4731280000000  0.4213020000000  0.4434670000000 1.0
C      1  0.5261000000000  0.5220640000000  0.4601740000000 1.0
C      1  0.5972310000000  0.4660650000000  0.5903040000000 1.0
C      1  0.5609260000000  0.6089870000000  0.4662890000000 1.0
C      1  0.4477980000000  0.6029770000000  0.5514610000000 1.0
C      1  0.5721810000000  0.4570530000000  0.5092550000000 1.0
C      1  0.5556210000000  0.6151040000000  0.4921650000000 1.0
C      1  0.5219670000000  0.3753870000000  0.4869080000000 1.0
C      1  0.4091710000000  0.4093790000000  0.4837030000000 1.0
C      1  0.6394720000000  0.5862310000000  0.5830020000000 1.0
C      1  0.5641730000000  0.4783940000000  0.3687650000000 1.0
C      1  0.4861310000000  0.4170450000000  0.4909820000000 1.0
C      1  0.4526130000000  0.4278890000000  0.5997470000000 1.0
C      1  0.4533750000000  0.5583060000000  0.4966600000000 1.0
C      1  0.4749520000000  0.5485610000000  0.4249420000000 1.0
C      1  0.4774790000000  0.4891670000000  0.5016180000000 1.0
C      1  0.5464520000000  0.5241240000000  0.5419120000000 1.0
C      1  0.3634860000000  0.5343910000000  0.4841240000000 1.0
C      1  0.4317790000000  0.4936580000000  0.4845430000000 1.0
C      1  0.5846550000000  0.5695410000000  0.4800730000000 1.0
C      1  0.5631170000000  0.4967300000000  0.4405850000000 1.0
C      1  0.4897030000000  0.4060500000000  0.5181810000000 1.0
C      1  0.5449160000000  0.5367760000000  0.4008020000000 1.0
C      1  0.4968210000000  0.5753370000000  0.4968580000000 1.0
C      1  0.5524070000000  0.5298320000000  0.5692350000000 1.0
C      1  0.4814700000000  0.4978580000000  0.3839220000000 1.0
C      1  0.4661740000000  0.6020770000000  0.5287780000000 1.0
C      1  0.6219650000000  0.4401760000000  0.5403570000000 1.0
C      1  0.5305680000000  0.4463020000000  0.5562050000000 1.0
C      1  0.5092740000000  0.3862810000000  0.4626750000000 1.0
C      1  0.4486050000000  0.5092220000000  0.6115700000000 1.0
C      1  0.4671120000000  0.5309910000000  0.6153130000000 1.0
C      1  0.4324160000000  0.5359750000000  0.4463390000000 1.0
C      1  0.3912500000000  0.5271860000000  0.4199850000000 1.0
C      1  0.3932370000000  0.4301200000000  0.6885430000000 1.0
C      1  0.5358430000000  0.5108880000000  0.3922820000000 1.0
C      1  0.5161640000000  0.4052440000000  0.5278850000000 1.0
C      1  0.5458210000000  0.4413040000000  0.5079760000000 1.0
C      1  0.4068540000000  0.5539610000000  0.5179570000000 1.0
C      1  0.5083090000000  0.5000990000000  0.3949220000000 1.0
C      1  0.3993660000000  0.3892300000000  0.4970210000000 1.0
C      1  0.4209580000000  0.4903320000000  0.4328180000000 1.0
C      1  0.4342740000000  0.4508100000000  0.4594530000000 1.0
C      1  0.6026060000000  0.4226730000000  0.4970880000000 1.0
C      1  0.6028620000000  0.4622910000000  0.4693770000000 1.0
C      1  0.5898270000000  0.5416200000000  0.4764890000000 1.0
C      1  0.3730590000000  0.4900360000000  0.5127590000000 1.0
C      1  0.4620640000000  0.4723400000000  0.4279640000000 1.0
C      1  0.4974690000000  0.5004070000000  0.5179500000000 1.0
C      1  0.5917220000000  0.5393770000000  0.4142620000000 1.0
C      1  0.4210040000000  0.4603300000000  0.5782860000000 1.0
C      1  0.6816970000000  0.5447060000000  0.5185650000000 1.0
C      1  0.5901260000000  0.4633770000000  0.4216580000000 1.0
C      1  0.5107630000000  0.4676510000000  0.4400450000000 1.0
C      1  0.4637140000000  0.5283900000000  0.4449410000000 1.0
C      1  0.5095790000000  0.5510310000000  0.5838030000000 1.0
C      1  0.6622770000000  0.5285030000000  0.5264570000000 1.0
C      1  0.5281660000000  0.5468480000000  0.4745560000000 1.0
C      1  0.4596110000000  0.6115750000000  0.4452970000000 1.0
C      1  0.6236060000000  0.4673140000000  0.5486850000000 1.0
C      1  0.5557800000000  0.3899920000000  0.4480520000000 1.0
C      1  0.3983590000000  0.5553010000000  0.5449950000000 1.0
C      1  0.5298510000000  0.4396790000000  0.5814010000000 1.0
C      1  0.4249160000000  0.4783570000000  0.4602870000000 1.0
C      1  0.4890030000000  0.4072270000000  0.4646280000000 1.0
C      1  0.6525810000000  0.6010830000000  0.5999480000000 1.0
C      1  0.6164360000000  0.4210360000000  0.5217790000000 1.0
C      1  0.5629040000000  0.5034350000000  0.5321510000000 1.0
C      1  0.5816260000000  0.5782060000000  0.5079300000000 1.0
C      1  0.4395970000000  0.4803230000000  0.4108720000000 1.0
C      1  0.4195460000000  0.6004020000000  0.5434920000000 1.0
C      1  0.5138290000000  0.5871570000000  0.5417800000000 1.0
C      1  0.5891920000000  0.4530570000000  0.6114050000000 1.0
C      1  0.5452060000000  0.5412040000000  0.4970990000000 1.0
C      1  0.5986660000000  0.4489830000000  0.4446380000000 1.0
C      1  0.4378850000000  0.4547260000000  0.5318790000000 1.0
C      1  0.5306170000000  0.5354280000000  0.5210140000000 1.0
C      1  0.3989950000000  0.5719110000000  0.4737170000000 1.0
END
