TITL C-3866669-3764-59 0.000204436897056854 125000 -119.462577476977 0 0 21 (C1) n - 1
REM
REM in /home/nfs/bkarasulu/CARBON/AIRSS/Generating-Clusters/LCBOP/Only-C1/SD-CG/HFTN-CG/FIRE-CG
REM
REM
REM
REM
REM
REM ./C.cell (11c1c37f851c82e70ff6c80c92926a4b)
REM AIRSS Version 0.9.1 bugfix July 2018 build 013d7b7c2542+ Fri, 06 Jul 2018 19:26:36 +0100
REM compiler GCC version 9.2.1 20190827 (Red Hat 9.2.1-1)
REM options -cpp -mtune=generic -march=x86-64 -g -O0 -fpre-include=/usr/include/finclude/math-vector-fortran.h
REM seed -721374404 -1236258835 1503975242 1314629873 -848300375 290767785 1356843197 196159937 1085556074 1582910344 -1510086816 1488994783 -59782507 -1539960131 -1196071628 831282659 519397227 1514317651 1337959353 -697411745 1522668279 -1883253633 -1698102165 -1984650956 -351546050 -316561922 -2010713848 592433102 1048544394 459980995 -698652643 -1664859403 1538491051
REM
CELL 1.54180   50.00000   50.00000   50.00000   90.00000   90.00000   90.00000
LATT -1
SFAC C  
C      1  0.5280100000000  0.4916460000000  0.5532550000000 1.0
C      1  0.4980640000000  0.5047330000000  0.4488020000000 1.0
C      1  0.4786070000000  0.4648870000000  0.5067600000000 1.0
C      1  0.5058850000000  0.5464860000000  0.4662260000000 1.0
C      1  0.4569330000000  0.4816980000000  0.4996430000000 1.0
C      1  0.5254640000000  0.5279310000000  0.4779940000000 1.0
C      1  0.4603120000000  0.5046750000000  0.4829600000000 1.0
C      1  0.4707200000000  0.5296880000000  0.5235200000000 1.0
C      1  0.5120230000000  0.4513960000000  0.4774420000000 1.0
C      1  0.4880640000000  0.4436760000000  0.4892150000000 1.0
C      1  0.5072850000000  0.4960960000000  0.5352510000000 1.0
C      1  0.5038510000000  0.4801470000000  0.5122530000000 1.0
C      1  0.4821310000000  0.5499550000000  0.4814510000000 1.0
C      1  0.5008450000000  0.5328700000000  0.4405210000000 1.0
C      1  0.5193700000000  0.4780130000000  0.4868070000000 1.0
C      1  0.5678050000000  0.4827000000000  0.5864100000000 1.0
C      1  0.4670090000000  0.5301580000000  0.4954950000000 1.0
C      1  0.4715600000000  0.4987890000000  0.4573430000000 1.0
C      1  0.4885560000000  0.5168170000000  0.5389250000000 1.0
C      1  0.5194490000000  0.5004910000000  0.4697440000000 1.0
C      1  0.5480570000000  0.4871470000000  0.5699820000000 1.0
END
