TITL C-3866669-3764-436 -171.333110361417 125000 -660.405842064824 0 0 111 (C1) n - 1
REM
REM in /home/nfs/bkarasulu/CARBON/AIRSS/Generating-Clusters/LCBOP/Only-C1/SD-CG/FIRE-CG
REM
REM
REM
REM
REM
REM ./C.cell (11c1c37f851c82e70ff6c80c92926a4b)
REM AIRSS Version 0.9.1 bugfix July 2018 build 013d7b7c2542+ Fri, 06 Jul 2018 19:26:36 +0100
REM compiler GCC version 9.2.1 20190827 (Red Hat 9.2.1-1)
REM options -cpp -mtune=generic -march=x86-64 -g -O0 -fpre-include=/usr/include/finclude/math-vector-fortran.h
REM seed -561693687 327111275 -1404570240 1798627337 -316148484 -1876192325 1940467321 -989953935 -935051172 -803692906 -930271210 381778643 -96855125 -1344760971 26753830 -686788776 -1278695085 611500817 -1072012393 1480236102 -2091233999 -570239326 2090742440 -529411837 2138335247 -1207749892 202060471 -186360250 1411580328 -1717287781 1523101756 509189530 -2063491290
REM
CELL 1.54180   50.00000   50.00000   50.00000   90.00000   90.00000   90.00000
LATT -1
SFAC C  
C      1  0.4618410000000  0.5113950000000  0.5568500000000 1.0
C      1  0.6023820000000  0.4883100000000  0.5180790000000 1.0
C      1  0.5306600000000  0.4912980000000  0.5538490000000 1.0
C      1  0.5045270000000  0.4225720000000  0.5133150000000 1.0
C      1  0.4566680000000  0.4250480000000  0.5066210000000 1.0
C      1  0.4761860000000  0.4814940000000  0.4680010000000 1.0
C      1  0.4129410000000  0.5095100000000  0.5480620000000 1.0
C      1  0.4579210000000  0.4150860000000  0.4793540000000 1.0
C      1  0.5461790000000  0.5382810000000  0.5708900000000 1.0
C      1  0.4566080000000  0.3838120000000  0.5860920000000 1.0
C      1  0.3707940000000  0.5600480000000  0.4698150000000 1.0
C      1  0.4362800000000  0.4742240000000  0.4832890000000 1.0
C      1  0.5157370000000  0.4436150000000  0.4326920000000 1.0
C      1  0.4407940000000  0.5703880000000  0.4871540000000 1.0
C      1  0.5851860000000  0.5967010000000  0.4643700000000 1.0
C      1  0.4987400000000  0.4614980000000  0.4164620000000 1.0
C      1  0.5730130000000  0.4929720000000  0.4237610000000 1.0
C      1  0.5445920000000  0.4824780000000  0.5020210000000 1.0
C      1  0.4380270000000  0.4950060000000  0.5486540000000 1.0
C      1  0.5182930000000  0.4096760000000  0.4690200000000 1.0
C      1  0.4859810000000  0.5779570000000  0.4284540000000 1.0
C      1  0.4400130000000  0.4448410000000  0.5213580000000 1.0
C      1  0.4342060000000  0.4580580000000  0.4590890000000 1.0
C      1  0.4723900000000  0.4823730000000  0.5177750000000 1.0
C      1  0.4984230000000  0.5934510000000  0.5147740000000 1.0
C      1  0.4615410000000  0.4914470000000  0.4241490000000 1.0
C      1  0.4944040000000  0.5439720000000  0.4708680000000 1.0
C      1  0.3846930000000  0.5123850000000  0.5940390000000 1.0
C      1  0.5740500000000  0.5839640000000  0.4859640000000 1.0
C      1  0.4702970000000  0.4639090000000  0.4229470000000 1.0
C      1  0.5201900000000  0.4908820000000  0.5805940000000 1.0
C      1  0.3950730000000  0.5531240000000  0.4804130000000 1.0
C      1  0.5230290000000  0.5095960000000  0.5327770000000 1.0
C      1  0.4749360000000  0.4203230000000  0.5504960000000 1.0
C      1  0.5855240000000  0.4464370000000  0.5394080000000 1.0
C      1  0.5368400000000  0.5427620000000  0.4572960000000 1.0
C      1  0.4898970000000  0.5810910000000  0.5616510000000 1.0
C      1  0.4488260000000  0.5214280000000  0.4927500000000 1.0
C      1  0.4249150000000  0.5591380000000  0.4400510000000 1.0
C      1  0.5946500000000  0.5152940000000  0.5151680000000 1.0
C      1  0.4497640000000  0.5487400000000  0.5050930000000 1.0
C      1  0.5040210000000  0.5142300000000  0.5863750000000 1.0
C      1  0.5926510000000  0.5291240000000  0.4882060000000 1.0
C      1  0.3980370000000  0.5110410000000  0.5716940000000 1.0
C      1  0.5176320000000  0.5380430000000  0.4275160000000 1.0
C      1  0.4981610000000  0.4679010000000  0.4749170000000 1.0
C      1  0.5656820000000  0.4271750000000  0.5311510000000 1.0
C      1  0.5854030000000  0.5150120000000  0.4362520000000 1.0
C      1  0.4817060000000  0.4475650000000  0.5568200000000 1.0
C      1  0.4770290000000  0.5303990000000  0.5400030000000 1.0
C      1  0.5878100000000  0.4570220000000  0.5651500000000 1.0
C      1  0.4887590000000  0.4637110000000  0.5329690000000 1.0
C      1  0.4678930000000  0.5751800000000  0.4502550000000 1.0
C      1  0.4665950000000  0.5397650000000  0.4097260000000 1.0
C      1  0.4613380000000  0.4994640000000  0.4515030000000 1.0
C      1  0.5017450000000  0.4242530000000  0.4506910000000 1.0
C      1  0.4829750000000  0.5785680000000  0.5343250000000 1.0
C      1  0.5874080000000  0.5119780000000  0.4653400000000 1.0
C      1  0.5386920000000  0.5330960000000  0.4912380000000 1.0
C      1  0.5825060000000  0.5062120000000  0.5771200000000 1.0
C      1  0.4090710000000  0.4519250000000  0.4496080000000 1.0
C      1  0.5261410000000  0.4133090000000  0.4961030000000 1.0
C      1  0.4475810000000  0.3664640000000  0.6033310000000 1.0
C      1  0.4506080000000  0.4932820000000  0.5010410000000 1.0
C      1  0.4576680000000  0.4478340000000  0.4439670000000 1.0
C      1  0.5768440000000  0.4840380000000  0.4677990000000 1.0
C      1  0.4690140000000  0.5464170000000  0.4582300000000 1.0
C      1  0.4031390000000  0.5220530000000  0.5247570000000 1.0
C      1  0.5845380000000  0.5580830000000  0.4949700000000 1.0
C      1  0.5364180000000  0.4570150000000  0.5093300000000 1.0
C      1  0.4439660000000  0.3919950000000  0.4736550000000 1.0
C      1  0.5875630000000  0.4800640000000  0.5786230000000 1.0
C      1  0.5102190000000  0.4508270000000  0.5190900000000 1.0
C      1  0.4622240000000  0.5875530000000  0.4762780000000 1.0
C      1  0.5810580000000  0.5316760000000  0.5356590000000 1.0
C      1  0.4754350000000  0.5100360000000  0.5824370000000 1.0
C      1  0.5120450000000  0.4668410000000  0.5921580000000 1.0
C      1  0.4362830000000  0.4668090000000  0.5383620000000 1.0
C      1  0.5036240000000  0.5181900000000  0.4708330000000 1.0
C      1  0.5113270000000  0.4869430000000  0.4091890000000 1.0
C      1  0.4537180000000  0.5235460000000  0.4640500000000 1.0
C      1  0.5051130000000  0.5687050000000  0.4779760000000 1.0
C      1  0.5435170000000  0.5522680000000  0.5118100000000 1.0
C      1  0.4880560000000  0.5892430000000  0.4887600000000 1.0
C      1  0.4192340000000  0.5628990000000  0.4684520000000 1.0
C      1  0.5179100000000  0.5090230000000  0.4260230000000 1.0
C      1  0.5186290000000  0.5018700000000  0.4539190000000 1.0
C      1  0.3963210000000  0.5365690000000  0.5033500000000 1.0
C      1  0.4729200000000  0.4273630000000  0.4574530000000 1.0
C      1  0.5040000000000  0.5646400000000  0.5777560000000 1.0
C      1  0.5347100000000  0.5081510000000  0.5066540000000 1.0
C      1  0.4787280000000  0.4154790000000  0.5226700000000 1.0
C      1  0.4918540000000  0.4522380000000  0.5824260000000 1.0
C      1  0.4676380000000  0.5540520000000  0.5269090000000 1.0
C      1  0.5156260000000  0.5383560000000  0.5711310000000 1.0
C      1  0.5709550000000  0.5268500000000  0.5619580000000 1.0
C      1  0.4415760000000  0.5522790000000  0.4192160000000 1.0
C      1  0.5965740000000  0.4458820000000  0.4928540000000 1.0
C      1  0.5058300000000  0.5296880000000  0.5429900000000 1.0
C      1  0.5703680000000  0.5537570000000  0.5209000000000 1.0
C      1  0.5984400000000  0.4603180000000  0.5174150000000 1.0
C      1  0.4657570000000  0.4014920000000  0.5686120000000 1.0
C      1  0.5638920000000  0.4726920000000  0.4430190000000 1.0
C      1  0.4934150000000  0.5522330000000  0.4169320000000 1.0
C      1  0.5512490000000  0.5961450000000  0.5002350000000 1.0
C      1  0.4640990000000  0.5118890000000  0.4051650000000 1.0
C      1  0.5220100000000  0.4758160000000  0.4628060000000 1.0
C      1  0.5509280000000  0.4300810000000  0.5041060000000 1.0
C      1  0.5740410000000  0.4322030000000  0.4853360000000 1.0
C      1  0.5379080000000  0.4594270000000  0.4454550000000 1.0
C      1  0.5271640000000  0.5991760000000  0.5135250000000 1.0
END
