TITL C-3866672-3872-287 -7.10894592461189e-07 125000 -390.338445170237 0 0 64 (C1) n - 1
REM
REM in /home/nfs/bkarasulu/CARBON/AIRSS/Generating-Clusters/LCBOP/Only-C1/SD-CG/FIRE-CG
REM
REM
REM
REM
REM
REM ./C.cell (11c1c37f851c82e70ff6c80c92926a4b)
REM AIRSS Version 0.9.1 bugfix July 2018 build 013d7b7c2542+ Fri, 06 Jul 2018 19:26:36 +0100
REM compiler GCC version 9.2.1 20190827 (Red Hat 9.2.1-1)
REM options -cpp -mtune=generic -march=x86-64 -g -O0 -fpre-include=/usr/include/finclude/math-vector-fortran.h
REM seed 1678872109 1806821534 1581185344 350763503 -1757499569 1766744980 -2143356311 1881551085 441914 635257837 -208208558 -1619138359 219085914 -1786052318 -1393771053 1180005965 936874466 -388362900 -42876015 814374929 98679504 491630711 -1220721991 1530250881 297510836 1900596073 -184407627 -272770859 1966227410 1382946648 1064865431 2033316362 -1943869720
REM
CELL 1.54180   50.00000   50.00000   50.00000   90.00000   90.00000   90.00000
LATT -1
SFAC C  
C      1  0.4871290000000  0.5268960000000  0.4903900000000 1.0
C      1  0.5405880000000  0.5520050000000  0.5367410000000 1.0
C      1  0.5141240000000  0.4847910000000  0.5734030000000 1.0
C      1  0.5127720000000  0.4674970000000  0.5110540000000 1.0
C      1  0.4815170000000  0.5093420000000  0.4269710000000 1.0
C      1  0.5421720000000  0.5176640000000  0.4500260000000 1.0
C      1  0.5320300000000  0.5057250000000  0.4266700000000 1.0
C      1  0.5940740000000  0.5402740000000  0.4888290000000 1.0
C      1  0.4282550000000  0.5348450000000  0.4674000000000 1.0
C      1  0.4713460000000  0.4813030000000  0.4948560000000 1.0
C      1  0.4355040000000  0.5132870000000  0.5348670000000 1.0
C      1  0.5235950000000  0.4073550000000  0.5060340000000 1.0
C      1  0.5525790000000  0.4914380000000  0.5247320000000 1.0
C      1  0.4463550000000  0.4714740000000  0.4452260000000 1.0
C      1  0.5572590000000  0.4695680000000  0.5435770000000 1.0
C      1  0.4607250000000  0.4411660000000  0.5210690000000 1.0
C      1  0.4554770000000  0.4283140000000  0.4745080000000 1.0
C      1  0.4963670000000  0.4702160000000  0.4884590000000 1.0
C      1  0.5444280000000  0.5892140000000  0.4671700000000 1.0
C      1  0.4915150000000  0.4682230000000  0.5799640000000 1.0
C      1  0.4623930000000  0.5744050000000  0.4220830000000 1.0
C      1  0.4803020000000  0.5337190000000  0.4428960000000 1.0
C      1  0.4428040000000  0.5611370000000  0.5143500000000 1.0
C      1  0.4398100000000  0.4871320000000  0.5300580000000 1.0
C      1  0.4956750000000  0.5694380000000  0.5447560000000 1.0
C      1  0.4934090000000  0.5564360000000  0.5690510000000 1.0
C      1  0.4834160000000  0.4454500000000  0.5652270000000 1.0
C      1  0.4498300000000  0.4447720000000  0.4538670000000 1.0
C      1  0.4375720000000  0.5395570000000  0.5295620000000 1.0
C      1  0.4550040000000  0.4688840000000  0.5144950000000 1.0
C      1  0.4650060000000  0.5080490000000  0.4878700000000 1.0
C      1  0.5010580000000  0.5323220000000  0.5150020000000 1.0
C      1  0.5405330000000  0.4734410000000  0.5674630000000 1.0
C      1  0.4981700000000  0.4114480000000  0.4918440000000 1.0
C      1  0.4711990000000  0.4240780000000  0.4986980000000 1.0
C      1  0.4635200000000  0.4873560000000  0.4290120000000 1.0
C      1  0.4297410000000  0.4873060000000  0.4617760000000 1.0
C      1  0.5384400000000  0.4281160000000  0.5193890000000 1.0
C      1  0.5072430000000  0.5037790000000  0.4164020000000 1.0
C      1  0.5077520000000  0.5102040000000  0.5320530000000 1.0
C      1  0.4985370000000  0.5343360000000  0.4653130000000 1.0
C      1  0.5244160000000  0.4911470000000  0.5199330000000 1.0
C      1  0.5131590000000  0.5564820000000  0.5256190000000 1.0
C      1  0.5054990000000  0.4356740000000  0.5510180000000 1.0
C      1  0.4610100000000  0.4373990000000  0.5494860000000 1.0
C      1  0.5049120000000  0.4615960000000  0.4631940000000 1.0
C      1  0.4622510000000  0.5561170000000  0.4423330000000 1.0
C      1  0.5164490000000  0.4449230000000  0.5272730000000 1.0
C      1  0.5606320000000  0.4427830000000  0.5313540000000 1.0
C      1  0.5658440000000  0.5136530000000  0.5137690000000 1.0
C      1  0.5839860000000  0.5560800000000  0.5091730000000 1.0
C      1  0.4391100000000  0.5103300000000  0.4750210000000 1.0
C      1  0.5369640000000  0.5643670000000  0.4647090000000 1.0
C      1  0.4441750000000  0.5579370000000  0.4645640000000 1.0
C      1  0.5081150000000  0.4375430000000  0.4514950000000 1.0
C      1  0.4472920000000  0.5710400000000  0.4895070000000 1.0
C      1  0.5081750000000  0.5101700000000  0.5612240000000 1.0
C      1  0.5131640000000  0.5358450000000  0.5731520000000 1.0
C      1  0.5791240000000  0.5153940000000  0.4872880000000 1.0
C      1  0.5034540000000  0.4137100000000  0.4635190000000 1.0
C      1  0.5630850000000  0.5419390000000  0.5232570000000 1.0
C      1  0.5389310000000  0.5460170000000  0.5649880000000 1.0
C      1  0.5648290000000  0.5089780000000  0.4640920000000 1.0
C      1  0.5261990000000  0.5389140000000  0.4609260000000 1.0
END
