TITL C-3866674-3872-39 0.104087285586539 125000 -403.757772307088 0 0 68 (C1) n - 1
REM
REM in /home/nfs/bkarasulu/CARBON/AIRSS/Generating-Clusters/LCBOP/Only-C1/SD-CG/HFTN-CG/FIRE-CG
REM
REM
REM
REM
REM
REM ./C.cell (11c1c37f851c82e70ff6c80c92926a4b)
REM AIRSS Version 0.9.1 bugfix July 2018 build 013d7b7c2542+ Fri, 06 Jul 2018 19:26:36 +0100
REM compiler GCC version 9.2.1 20190827 (Red Hat 9.2.1-1)
REM options -cpp -mtune=generic -march=x86-64 -g -O0 -fpre-include=/usr/include/finclude/math-vector-fortran.h
REM seed 189262949 900075879 1825734893 -1544370210 1778568301 -1211462927 -679728285 -1086603954 -2058775083 -1456228076 -713110728 771380676 638824299 -1313574376 669346525 1576023130 234505619 732948413 -991313837 1399485186 1835931450 -162609954 607729728 -245367716 1211470949 -1915573963 1481453354 792355651 1166224547 1298268364 326789464 2018675431 762314857
REM
CELL 1.54180   50.00000   50.00000   50.00000   90.00000   90.00000   90.00000
LATT -1
SFAC C  
C      1  0.4795020000000  0.4896630000000  0.5890970000000 1.0
C      1  0.4902550000000  0.5126670000000  0.4182550000000 1.0
C      1  0.4480340000000  0.5687790000000  0.5185710000000 1.0
C      1  0.4950370000000  0.5688480000000  0.5369170000000 1.0
C      1  0.5553130000000  0.4199080000000  0.4654910000000 1.0
C      1  0.5134050000000  0.5631700000000  0.5585310000000 1.0
C      1  0.4451100000000  0.4780310000000  0.4965980000000 1.0
C      1  0.4459210000000  0.4935600000000  0.5569300000000 1.0
C      1  0.4892810000000  0.4838680000000  0.4567710000000 1.0
C      1  0.5039710000000  0.5892150000000  0.4745070000000 1.0
C      1  0.5768690000000  0.4771100000000  0.5083140000000 1.0
C      1  0.5506730000000  0.4696910000000  0.4610840000000 1.0
C      1  0.4490840000000  0.5140470000000  0.5364780000000 1.0
C      1  0.5328190000000  0.4981260000000  0.5074140000000 1.0
C      1  0.4637090000000  0.5362410000000  0.5497880000000 1.0
C      1  0.4895160000000  0.4807590000000  0.5624570000000 1.0
C      1  0.5524100000000  0.4257810000000  0.4919910000000 1.0
C      1  0.4647160000000  0.5619100000000  0.4548920000000 1.0
C      1  0.4669500000000  0.5621150000000  0.5383040000000 1.0
C      1  0.5237260000000  0.5496010000000  0.4303480000000 1.0
C      1  0.5712400000000  0.4812840000000  0.4785670000000 1.0
C      1  0.4659770000000  0.5178890000000  0.4346720000000 1.0
C      1  0.5275490000000  0.4716780000000  0.4183020000000 1.0
C      1  0.5546870000000  0.5018480000000  0.5524470000000 1.0
C      1  0.4550770000000  0.4538860000000  0.5100510000000 1.0
C      1  0.5036780000000  0.5333880000000  0.5049980000000 1.0
C      1  0.5069450000000  0.4974080000000  0.5468270000000 1.0
C      1  0.4818590000000  0.5817470000000  0.4609150000000 1.0
C      1  0.5769440000000  0.5498450000000  0.5266510000000 1.0
C      1  0.5060660000000  0.4883530000000  0.4142580000000 1.0
C      1  0.4779530000000  0.4417400000000  0.4699630000000 1.0
C      1  0.5470480000000  0.4581250000000  0.4347430000000 1.0
C      1  0.5695560000000  0.5098800000000  0.4773670000000 1.0
C      1  0.5520600000000  0.5197320000000  0.4975850000000 1.0
C      1  0.4382670000000  0.5535380000000  0.4985530000000 1.0
C      1  0.4735850000000  0.4359010000000  0.4973870000000 1.0
C      1  0.5199350000000  0.5773400000000  0.4945480000000 1.0
C      1  0.5470900000000  0.5695640000000  0.4944930000000 1.0
C      1  0.4467840000000  0.5063120000000  0.5060730000000 1.0
C      1  0.4533100000000  0.4504660000000  0.4572490000000 1.0
C      1  0.5526010000000  0.4302060000000  0.4401020000000 1.0
C      1  0.4529440000000  0.4502770000000  0.5375680000000 1.0
C      1  0.5421240000000  0.5674420000000  0.4211640000000 1.0
C      1  0.5093250000000  0.5089730000000  0.5202000000000 1.0
C      1  0.5372620000000  0.4413410000000  0.5113960000000 1.0
C      1  0.4565970000000  0.5341790000000  0.4576860000000 1.0
C      1  0.4403220000000  0.4287050000000  0.5496240000000 1.0
C      1  0.4998180000000  0.4594800000000  0.4648730000000 1.0
C      1  0.4178240000000  0.3868170000000  0.5720260000000 1.0
C      1  0.4835700000000  0.5316490000000  0.5705340000000 1.0
C      1  0.5053750000000  0.5607820000000  0.5123020000000 1.0
C      1  0.4289390000000  0.4076220000000  0.5609270000000 1.0
C      1  0.5161990000000  0.4271790000000  0.5237170000000 1.0
C      1  0.4917940000000  0.4221050000000  0.5136370000000 1.0
C      1  0.5585470000000  0.5463480000000  0.5065970000000 1.0
C      1  0.5284410000000  0.5123780000000  0.5611260000000 1.0
C      1  0.4922880000000  0.5072660000000  0.4680500000000 1.0
C      1  0.4389450000000  0.4707170000000  0.4693520000000 1.0
C      1  0.4642620000000  0.4712900000000  0.5511240000000 1.0
C      1  0.5128800000000  0.5364660000000  0.5694790000000 1.0
C      1  0.5058230000000  0.5293720000000  0.4768120000000 1.0
C      1  0.5309120000000  0.4688960000000  0.5026430000000 1.0
C      1  0.5258280000000  0.4642510000000  0.4749070000000 1.0
C      1  0.4525550000000  0.4978530000000  0.5854490000000 1.0
C      1  0.5056200000000  0.5361980000000  0.4133940000000 1.0
C      1  0.5212750000000  0.5427640000000  0.4575370000000 1.0
C      1  0.5700670000000  0.4876440000000  0.5337080000000 1.0
C      1  0.4459530000000  0.5287890000000  0.4856770000000 1.0
END
