TITL C-3866676-3738-515 -0.16549085472068 125000 -569.724151136213 0 0 95 (C1) n - 1
REM
REM in /home/nfs/bkarasulu/CARBON/AIRSS/Generating-Clusters/LCBOP/Only-C1/SD-CG/FIRE-CG
REM
REM
REM
REM
REM
REM ./C.cell (11c1c37f851c82e70ff6c80c92926a4b)
REM AIRSS Version 0.9.1 bugfix July 2018 build 013d7b7c2542+ Fri, 06 Jul 2018 19:26:36 +0100
REM compiler GCC version 9.2.1 20190827 (Red Hat 9.2.1-1)
REM options -cpp -mtune=generic -march=x86-64 -g -O0 -fpre-include=/usr/include/finclude/math-vector-fortran.h
REM seed -1251664961 -1019661257 2091790206 -804870428 -659812475 -2055799504 -352000795 2046204197 -1705171456 639848603 113392244 978155738 -2121022116 -1563208535 426376919 -544676256 1820663345 1486269905 1473748353 -1492027478 -1297136071 -688901507 -122841725 -1806060372 -125139555 1994134925 970804637 -1588625131 -959608074 -920918269 -467408779 212216372 -389155253
REM
CELL 1.54180   50.00000   50.00000   50.00000   90.00000   90.00000   90.00000
LATT -1
SFAC C  
C      1  0.4637330000000  0.5038690000000  0.6241070000000 1.0
C      1  0.4194970000000  0.4665960000000  0.5240570000000 1.0
C      1  0.3841110000000  0.4615160000000  0.4458730000000 1.0
C      1  0.4638530000000  0.4795360000000  0.4784320000000 1.0
C      1  0.6415470000000  0.4717590000000  0.4962260000000 1.0
C      1  0.4913710000000  0.4500390000000  0.5113880000000 1.0
C      1  0.5168140000000  0.4829170000000  0.4461200000000 1.0
C      1  0.4952540000000  0.4780460000000  0.5130200000000 1.0
C      1  0.4814340000000  0.4248500000000  0.5487100000000 1.0
C      1  0.4528640000000  0.5274310000000  0.4642580000000 1.0
C      1  0.5036870000000  0.4074520000000  0.5418730000000 1.0
C      1  0.5170990000000  0.5034450000000  0.4259780000000 1.0
C      1  0.4713970000000  0.5872660000000  0.4421630000000 1.0
C      1  0.4701950000000  0.4353970000000  0.5242220000000 1.0
C      1  0.4130860000000  0.5176410000000  0.5706790000000 1.0
C      1  0.4579900000000  0.5922580000000  0.4648220000000 1.0
C      1  0.4944300000000  0.5494450000000  0.4195810000000 1.0
C      1  0.4881280000000  0.4591600000000  0.4102260000000 1.0
C      1  0.4743920000000  0.4474080000000  0.3894290000000 1.0
C      1  0.5162310000000  0.4528400000000  0.4127160000000 1.0
C      1  0.4457400000000  0.4263140000000  0.5134530000000 1.0
C      1  0.4303850000000  0.5205310000000  0.4833710000000 1.0
C      1  0.5251180000000  0.4226380000000  0.5288850000000 1.0
C      1  0.5477350000000  0.5355350000000  0.4389650000000 1.0
C      1  0.4307600000000  0.4991550000000  0.5588330000000 1.0
C      1  0.4697650000000  0.5411840000000  0.5050390000000 1.0
C      1  0.5987190000000  0.4905350000000  0.5018670000000 1.0
C      1  0.5510850000000  0.5546710000000  0.5656450000000 1.0
C      1  0.5980120000000  0.4702960000000  0.4779370000000 1.0
C      1  0.5775570000000  0.5174360000000  0.4685250000000 1.0
C      1  0.5681940000000  0.4913060000000  0.5406860000000 1.0
C      1  0.5570860000000  0.5347770000000  0.5470120000000 1.0
C      1  0.5799470000000  0.5054570000000  0.5177180000000 1.0
C      1  0.5117980000000  0.4826380000000  0.5711080000000 1.0
C      1  0.5339260000000  0.3956850000000  0.4499050000000 1.0
C      1  0.5513080000000  0.5077190000000  0.5567690000000 1.0
C      1  0.5244080000000  0.5253290000000  0.5934080000000 1.0
C      1  0.5105240000000  0.5850000000000  0.6155640000000 1.0
C      1  0.4701460000000  0.5056130000000  0.4238800000000 1.0
C      1  0.5212820000000  0.4887900000000  0.5109960000000 1.0
C      1  0.4494640000000  0.4949410000000  0.6033740000000 1.0
C      1  0.4431440000000  0.3996430000000  0.5074190000000 1.0
C      1  0.4951350000000  0.5764560000000  0.4310990000000 1.0
C      1  0.5022020000000  0.5845290000000  0.5676500000000 1.0
C      1  0.4006930000000  0.5046200000000  0.4235170000000 1.0
C      1  0.5364660000000  0.5735240000000  0.4593250000000 1.0
C      1  0.4789860000000  0.5369400000000  0.4773180000000 1.0
C      1  0.3966900000000  0.5353230000000  0.5805640000000 1.0
C      1  0.3920330000000  0.4456650000000  0.4656750000000 1.0
C      1  0.4583120000000  0.5666600000000  0.5086500000000 1.0
C      1  0.3866210000000  0.4832090000000  0.4306970000000 1.0
C      1  0.5154060000000  0.4355380000000  0.5046340000000 1.0
C      1  0.4489250000000  0.5192690000000  0.4370220000000 1.0
C      1  0.5644440000000  0.4563300000000  0.4357080000000 1.0
C      1  0.5024890000000  0.5797070000000  0.5414330000000 1.0
C      1  0.5703660000000  0.5416370000000  0.4562350000000 1.0
C      1  0.4881700000000  0.5132440000000  0.6293200000000 1.0
C      1  0.4650680000000  0.4689930000000  0.4537850000000 1.0
C      1  0.5806450000000  0.4624940000000  0.4566320000000 1.0
C      1  0.4764140000000  0.4768590000000  0.5693970000000 1.0
C      1  0.4885470000000  0.4455790000000  0.5668150000000 1.0
C      1  0.4252180000000  0.4929630000000  0.5312440000000 1.0
C      1  0.5101240000000  0.5650340000000  0.5206430000000 1.0
C      1  0.5291520000000  0.5042690000000  0.5742450000000 1.0
C      1  0.5593310000000  0.5005560000000  0.4791950000000 1.0
C      1  0.5373700000000  0.4860350000000  0.4881330000000 1.0
C      1  0.6268260000000  0.4901720000000  0.5105840000000 1.0
C      1  0.5249760000000  0.5462990000000  0.4539550000000 1.0
C      1  0.5353960000000  0.4405420000000  0.5492750000000 1.0
C      1  0.5666640000000  0.5334460000000  0.5190830000000 1.0
C      1  0.5197240000000  0.5886200000000  0.4417000000000 1.0
C      1  0.4338660000000  0.5112010000000  0.5110660000000 1.0
C      1  0.5299790000000  0.4186480000000  0.4615960000000 1.0
C      1  0.5605520000000  0.5633110000000  0.4747510000000 1.0
C      1  0.5258170000000  0.4683370000000  0.4688520000000 1.0
C      1  0.5223680000000  0.5490520000000  0.5010600000000 1.0
C      1  0.4730120000000  0.4768540000000  0.4277300000000 1.0
C      1  0.6254650000000  0.4595400000000  0.4773940000000 1.0
C      1  0.4065030000000  0.4391490000000  0.4869630000000 1.0
C      1  0.5243370000000  0.4406210000000  0.4778150000000 1.0
C      1  0.5519650000000  0.5501870000000  0.5000380000000 1.0
C      1  0.4941930000000  0.5201750000000  0.4202800000000 1.0
C      1  0.5109200000000  0.5202130000000  0.6173450000000 1.0
C      1  0.5078750000000  0.5404590000000  0.4762090000000 1.0
C      1  0.5143690000000  0.5743000000000  0.5908150000000 1.0
C      1  0.5314530000000  0.5521330000000  0.5859850000000 1.0
C      1  0.5178960000000  0.4545980000000  0.5667580000000 1.0
C      1  0.4536110000000  0.5861070000000  0.4905610000000 1.0
C      1  0.4236790000000  0.4436550000000  0.5086430000000 1.0
C      1  0.4522140000000  0.4892130000000  0.5757060000000 1.0
C      1  0.5424670000000  0.4522790000000  0.4201320000000 1.0
C      1  0.5418700000000  0.5154770000000  0.4210040000000 1.0
C      1  0.4743000000000  0.4921230000000  0.5018120000000 1.0
C      1  0.4232430000000  0.5185500000000  0.4259710000000 1.0
C      1  0.4624360000000  0.5152390000000  0.5137440000000 1.0
END
