TITL C-3866670-4165-329 161.558685624608 125000 -900.595454966615 0 0 147 (C1) n - 1
REM
REM in /home/nfs/bkarasulu/CARBON/AIRSS/Generating-Clusters/LCBOP/Only-C1/SD-CG/FIRE-CG
REM
REM
REM
REM
REM
REM ./C.cell (11c1c37f851c82e70ff6c80c92926a4b)
REM AIRSS Version 0.9.1 bugfix July 2018 build 013d7b7c2542+ Fri, 06 Jul 2018 19:26:36 +0100
REM compiler GCC version 9.2.1 20190827 (Red Hat 9.2.1-1)
REM options -cpp -mtune=generic -march=x86-64 -g -O0 -fpre-include=/usr/include/finclude/math-vector-fortran.h
REM seed 438378036 2030212433 919935126 2124685883 265433781 579361106 1401034560 -1289460955 -256365676 -572357713 1021783993 917195162 1947543521 1405409909 -1760730339 -1358788673 -1932707666 1669154164 -1381261549 1667077957 -787586526 -685402192 -269018799 -1852400870 -999988417 72523814 169244880 -1634374943 -150322437 -1232296872 369426700 -164188294 284392983
REM
CELL 1.54180   50.00000   50.00000   50.00000   90.00000   90.00000   90.00000
LATT -1
SFAC C  
C      1  0.4923850000000  0.3519320000000  0.4412830000000 1.0
C      1  0.5504890000000  0.5137170000000  0.5136680000000 1.0
C      1  0.4605390000000  0.5586890000000  0.4117730000000 1.0
C      1  0.5442700000000  0.4534750000000  0.5095350000000 1.0
C      1  0.5358640000000  0.4490670000000  0.3928430000000 1.0
C      1  0.5970310000000  0.4357820000000  0.4992350000000 1.0
C      1  0.4709290000000  0.5422330000000  0.3909600000000 1.0
C      1  0.5431730000000  0.5772100000000  0.4435160000000 1.0
C      1  0.6125730000000  0.5912590000000  0.5232530000000 1.0
C      1  0.5979380000000  0.5170090000000  0.5041020000000 1.0
C      1  0.3893900000000  0.4841890000000  0.5292910000000 1.0
C      1  0.5392990000000  0.3917760000000  0.5580220000000 1.0
C      1  0.5139230000000  0.4648860000000  0.4572300000000 1.0
C      1  0.5366770000000  0.5098030000000  0.4061790000000 1.0
C      1  0.5797100000000  0.3997150000000  0.4490810000000 1.0
C      1  0.5522920000000  0.5484190000000  0.4384780000000 1.0
C      1  0.5390550000000  0.4372340000000  0.4839600000000 1.0
C      1  0.5870030000000  0.3945010000000  0.4743270000000 1.0
C      1  0.4282710000000  0.5663640000000  0.5502880000000 1.0
C      1  0.5934910000000  0.4902730000000  0.5096300000000 1.0
C      1  0.4371730000000  0.4864940000000  0.4934820000000 1.0
C      1  0.4455340000000  0.5701760000000  0.5279060000000 1.0
C      1  0.4736920000000  0.5311080000000  0.6259090000000 1.0
C      1  0.4238080000000  0.5420200000000  0.5650300000000 1.0
C      1  0.3792500000000  0.4823890000000  0.5016350000000 1.0
C      1  0.4403240000000  0.4857210000000  0.4034120000000 1.0
C      1  0.5768820000000  0.4433490000000  0.5446880000000 1.0
C      1  0.5600820000000  0.4835700000000  0.5020540000000 1.0
C      1  0.4581150000000  0.5259140000000  0.6023900000000 1.0
C      1  0.3923910000000  0.5042310000000  0.4884180000000 1.0
C      1  0.4525280000000  0.4912030000000  0.5163570000000 1.0
C      1  0.5647130000000  0.4061240000000  0.5177470000000 1.0
C      1  0.5176540000000  0.4578120000000  0.5207310000000 1.0
C      1  0.5158790000000  0.6143410000000  0.5723660000000 1.0
C      1  0.5678620000000  0.4190050000000  0.4349140000000 1.0
C      1  0.4341510000000  0.5370960000000  0.5914520000000 1.0
C      1  0.5158930000000  0.5680150000000  0.5140360000000 1.0
C      1  0.4089680000000  0.4499930000000  0.4132030000000 1.0
C      1  0.5658120000000  0.5937250000000  0.5809430000000 1.0
C      1  0.4444730000000  0.4874310000000  0.4316910000000 1.0
C      1  0.5530430000000  0.5887350000000  0.5573180000000 1.0
C      1  0.5515380000000  0.4614700000000  0.4133040000000 1.0
C      1  0.4792930000000  0.4844840000000  0.5206600000000 1.0
C      1  0.5164110000000  0.4004900000000  0.6005620000000 1.0
C      1  0.5398750000000  0.5383970000000  0.4143610000000 1.0
C      1  0.5858000000000  0.4087290000000  0.4983770000000 1.0
C      1  0.4994150000000  0.4171720000000  0.4099680000000 1.0
C      1  0.5531990000000  0.3875100000000  0.5352590000000 1.0
C      1  0.4933760000000  0.4609210000000  0.4380450000000 1.0
C      1  0.5129740000000  0.5518610000000  0.4660170000000 1.0
C      1  0.4730690000000  0.5645560000000  0.4364400000000 1.0
C      1  0.3952350000000  0.5135830000000  0.5330470000000 1.0
C      1  0.5130830000000  0.5931670000000  0.5271630000000 1.0
C      1  0.5314230000000  0.4732140000000  0.6086430000000 1.0
C      1  0.4858710000000  0.4047660000000  0.4322430000000 1.0
C      1  0.3611210000000  0.4650010000000  0.4915390000000 1.0
C      1  0.5534240000000  0.5710090000000  0.4875120000000 1.0
C      1  0.4515460000000  0.5107590000000  0.4466720000000 1.0
C      1  0.5423590000000  0.4545310000000  0.4603430000000 1.0
C      1  0.4445930000000  0.4128260000000  0.4942560000000 1.0
C      1  0.5148040000000  0.4462110000000  0.5460500000000 1.0
C      1  0.5004290000000  0.5557070000000  0.4389490000000 1.0
C      1  0.4220640000000  0.4197330000000  0.4521930000000 1.0
C      1  0.4116780000000  0.4411900000000  0.5189250000000 1.0
C      1  0.4048390000000  0.4615880000000  0.5382780000000 1.0
C      1  0.5149420000000  0.4572360000000  0.5922380000000 1.0
C      1  0.4521640000000  0.6736920000000  0.4910740000000 1.0
C      1  0.5549500000000  0.4437670000000  0.4354210000000 1.0
C      1  0.4884830000000  0.5416850000000  0.5408780000000 1.0
C      1  0.4875040000000  0.4657640000000  0.5871810000000 1.0
C      1  0.4187070000000  0.4689250000000  0.3961910000000 1.0
C      1  0.5033750000000  0.3937690000000  0.6226250000000 1.0
C      1  0.5735990000000  0.5316840000000  0.5065820000000 1.0
C      1  0.6222700000000  0.5273960000000  0.4958060000000 1.0
C      1  0.4466170000000  0.5731590000000  0.4770100000000 1.0
C      1  0.5135810000000  0.5436220000000  0.5285020000000 1.0
C      1  0.5227110000000  0.5250000000000  0.4675540000000 1.0
C      1  0.5253840000000  0.5669720000000  0.4876400000000 1.0
C      1  0.4970660000000  0.6132440000000  0.5161600000000 1.0
C      1  0.5211960000000  0.5943960000000  0.4499700000000 1.0
C      1  0.4617020000000  0.4951720000000  0.3877650000000 1.0
C      1  0.5132700000000  0.5497100000000  0.4137780000000 1.0
C      1  0.5289910000000  0.6191560000000  0.5958520000000 1.0
C      1  0.5603680000000  0.4472630000000  0.5681930000000 1.0
C      1  0.4493440000000  0.4254820000000  0.5427230000000 1.0
C      1  0.5902170000000  0.4544510000000  0.4765050000000 1.0
C      1  0.4982000000000  0.5357020000000  0.3944140000000 1.0
C      1  0.4831400000000  0.6346140000000  0.5090050000000 1.0
C      1  0.5494620000000  0.5241240000000  0.4562880000000 1.0
C      1  0.4366250000000  0.6925150000000  0.4819130000000 1.0
C      1  0.4681690000000  0.5820360000000  0.4588830000000 1.0
C      1  0.4217220000000  0.4439950000000  0.4377440000000 1.0
C      1  0.5600430000000  0.4980480000000  0.4485700000000 1.0
C      1  0.5089500000000  0.4417370000000  0.3986890000000 1.0
C      1  0.4574140000000  0.5214740000000  0.3777810000000 1.0
C      1  0.4445420000000  0.4612870000000  0.4433120000000 1.0
C      1  0.5539290000000  0.6088990000000  0.6003240000000 1.0
C      1  0.5186670000000  0.5395790000000  0.6042790000000 1.0
C      1  0.6454140000000  0.5358580000000  0.4873240000000 1.0
C      1  0.5013720000000  0.5072010000000  0.4700550000000 1.0
C      1  0.4405670000000  0.5052200000000  0.5377640000000 1.0
C      1  0.5342350000000  0.5244530000000  0.5349600000000 1.0
C      1  0.4953170000000  0.4642470000000  0.4098470000000 1.0
C      1  0.5584530000000  0.4330620000000  0.5255330000000 1.0
C      1  0.4448670000000  0.4431540000000  0.5648340000000 1.0
C      1  0.5052690000000  0.4811600000000  0.4789250000000 1.0
C      1  0.5647920000000  0.4757860000000  0.4701940000000 1.0
C      1  0.4992960000000  0.4727100000000  0.5051000000000 1.0
C      1  0.4890650000000  0.3773050000000  0.4363540000000 1.0
C      1  0.5284160000000  0.4098050000000  0.5770990000000 1.0
C      1  0.5049200000000  0.5545090000000  0.5844910000000 1.0
C      1  0.5405690000000  0.5211520000000  0.5630550000000 1.0
C      1  0.4283960000000  0.5495080000000  0.4745900000000 1.0
C      1  0.4064290000000  0.5493670000000  0.4942740000000 1.0
C      1  0.4187180000000  0.5014930000000  0.4779920000000 1.0
C      1  0.4777100000000  0.5129400000000  0.4561820000000 1.0
C      1  0.5091540000000  0.5083750000000  0.3941730000000 1.0
C      1  0.3930920000000  0.5274610000000  0.5066740000000 1.0
C      1  0.4839320000000  0.4911020000000  0.5741160000000 1.0
C      1  0.4755330000000  0.5168210000000  0.5817640000000 1.0
C      1  0.6001460000000  0.4473340000000  0.5270470000000 1.0
C      1  0.5939180000000  0.5757980000000  0.5136500000000 1.0
C      1  0.4878340000000  0.5389510000000  0.5683470000000 1.0
C      1  0.4186400000000  0.5194640000000  0.5480720000000 1.0
C      1  0.5518100000000  0.4897530000000  0.4206370000000 1.0
C      1  0.4891670000000  0.4876930000000  0.3950670000000 1.0
C      1  0.5268750000000  0.5984840000000  0.5511820000000 1.0
C      1  0.4696800000000  0.4483560000000  0.4467920000000 1.0
C      1  0.4460410000000  0.4120800000000  0.4660000000000 1.0
C      1  0.4439020000000  0.5844670000000  0.5034330000000 1.0
C      1  0.4208040000000  0.4587700000000  0.5619600000000 1.0
C      1  0.6088100000000  0.4738800000000  0.5255200000000 1.0
C      1  0.4693700000000  0.4199460000000  0.4505860000000 1.0
C      1  0.5426800000000  0.4973800000000  0.6061840000000 1.0
C      1  0.4315590000000  0.5228570000000  0.4629670000000 1.0
C      1  0.4678940000000  0.6544700000000  0.5003250000000 1.0
C      1  0.4943500000000  0.5976130000000  0.4592880000000 1.0
C      1  0.5371070000000  0.5208990000000  0.5919030000000 1.0
C      1  0.4879570000000  0.4893970000000  0.5466630000000 1.0
C      1  0.5265730000000  0.4129560000000  0.4827840000000 1.0
C      1  0.5298280000000  0.4396920000000  0.5716970000000 1.0
C      1  0.4665050000000  0.5516430000000  0.5277080000000 1.0
C      1  0.4900900000000  0.3878830000000  0.6442680000000 1.0
C      1  0.5740450000000  0.5596780000000  0.5025540000000 1.0
C      1  0.5011340000000  0.5341250000000  0.6265090000000 1.0
C      1  0.4352030000000  0.4248660000000  0.5179710000000 1.0
C      1  0.4653120000000  0.4484620000000  0.5835900000000 1.0
END
