TITL C-3866673-4222-643 -152.388591585377 125000 -1127.62936604323 0 0 181 (C1) n - 1
REM
REM in /home/nfs/bkarasulu/CARBON/AIRSS/Generating-Clusters/LCBOP/Only-C1/SD-CG/FIRE-CG
REM
REM
REM
REM
REM
REM ./C.cell (11c1c37f851c82e70ff6c80c92926a4b)
REM AIRSS Version 0.9.1 bugfix July 2018 build 013d7b7c2542+ Fri, 06 Jul 2018 19:26:36 +0100
REM compiler GCC version 9.2.1 20190827 (Red Hat 9.2.1-1)
REM options -cpp -mtune=generic -march=x86-64 -g -O0 -fpre-include=/usr/include/finclude/math-vector-fortran.h
REM seed 1180816919 471746909 1116191945 -1295289161 1118154167 -21823599 -1652937900 -717899567 -1192825797 1074842841 -43797163 1291622864 -247928375 -1358372596 895243279 874199856 -997719689 -1249774194 -1852981655 1676593741 -408851253 1854271377 752636051 -1930031190 -1833763397 -1386846413 169921654 -1109561535 -804676857 -1211042224 138523236 -1405792363 444800362
REM
CELL 1.54180   50.00000   50.00000   50.00000   90.00000   90.00000   90.00000
LATT -1
SFAC C  
C      1  0.3790300000000  0.5286470000000  0.5535730000000 1.0
C      1  0.4521470000000  0.5955380000000  0.5253030000000 1.0
C      1  0.4642670000000  0.5517110000000  0.5948470000000 1.0
C      1  0.4323650000000  0.5089920000000  0.4238670000000 1.0
C      1  0.4895640000000  0.5546750000000  0.4519410000000 1.0
C      1  0.4378770000000  0.5236750000000  0.4914070000000 1.0
C      1  0.5680300000000  0.5337910000000  0.4875300000000 1.0
C      1  0.5603860000000  0.4245300000000  0.4294760000000 1.0
C      1  0.5443650000000  0.4377960000000  0.4090400000000 1.0
C      1  0.4810730000000  0.4817560000000  0.5902010000000 1.0
C      1  0.4896450000000  0.4608660000000  0.4222690000000 1.0
C      1  0.5270690000000  0.4891490000000  0.5023280000000 1.0
C      1  0.4254160000000  0.4781260000000  0.5187980000000 1.0
C      1  0.4433910000000  0.5995660000000  0.4735640000000 1.0
C      1  0.5282800000000  0.4322870000000  0.5645430000000 1.0
C      1  0.4328590000000  0.5827270000000  0.4526980000000 1.0
C      1  0.5927760000000  0.5448440000000  0.4779910000000 1.0
C      1  0.5033460000000  0.5780610000000  0.6059840000000 1.0
C      1  0.4948940000000  0.6115070000000  0.4606080000000 1.0
C      1  0.4890380000000  0.3990730000000  0.5196550000000 1.0
C      1  0.5156540000000  0.3702960000000  0.5483810000000 1.0
C      1  0.4248330000000  0.4124810000000  0.4161550000000 1.0
C      1  0.5647940000000  0.5982950000000  0.5204080000000 1.0
C      1  0.5383980000000  0.5308760000000  0.4433900000000 1.0
C      1  0.4567520000000  0.4986480000000  0.4122340000000 1.0
C      1  0.5043790000000  0.4190950000000  0.5063800000000 1.0
C      1  0.5877720000000  0.5835630000000  0.5100770000000 1.0
C      1  0.3795960000000  0.4954040000000  0.5156760000000 1.0
C      1  0.5024830000000  0.4154570000000  0.5648800000000 1.0
C      1  0.5088260000000  0.4879350000000  0.5895320000000 1.0
C      1  0.4784470000000  0.5775860000000  0.4902320000000 1.0
C      1  0.4234080000000  0.5553710000000  0.6365740000000 1.0
C      1  0.5556670000000  0.5772130000000  0.4395490000000 1.0
C      1  0.5279110000000  0.4091240000000  0.4929290000000 1.0
C      1  0.4689050000000  0.3849160000000  0.4747620000000 1.0
C      1  0.4503410000000  0.4495740000000  0.3968320000000 1.0
C      1  0.4992290000000  0.3930200000000  0.5460370000000 1.0
C      1  0.4309580000000  0.5337150000000  0.4408250000000 1.0
C      1  0.5006690000000  0.6374230000000  0.5595380000000 1.0
C      1  0.5204120000000  0.5240020000000  0.5392100000000 1.0
C      1  0.5493880000000  0.4468540000000  0.4916730000000 1.0
C      1  0.4197470000000  0.5299960000000  0.4674940000000 1.0
C      1  0.5671410000000  0.5351290000000  0.5388580000000 1.0
C      1  0.4684350000000  0.5249500000000  0.4860090000000 1.0
C      1  0.5227550000000  0.5343880000000  0.4915930000000 1.0
C      1  0.6009170000000  0.5679400000000  0.5306470000000 1.0
C      1  0.4937650000000  0.4846910000000  0.3811010000000 1.0
C      1  0.4775590000000  0.5853260000000  0.5167520000000 1.0
C      1  0.4886070000000  0.5136530000000  0.3738400000000 1.0
C      1  0.3790000000000  0.5084690000000  0.4905390000000 1.0
C      1  0.4597720000000  0.4295080000000  0.4730730000000 1.0
C      1  0.5538310000000  0.4389580000000  0.5194110000000 1.0
C      1  0.5197680000000  0.4234010000000  0.4037050000000 1.0
C      1  0.4507120000000  0.5974130000000  0.5536980000000 1.0
C      1  0.4621680000000  0.4785090000000  0.4665430000000 1.0
C      1  0.5641490000000  0.4373640000000  0.5679180000000 1.0
C      1  0.6104140000000  0.5208970000000  0.4761860000000 1.0
C      1  0.4115820000000  0.4838990000000  0.5987910000000 1.0
C      1  0.5463820000000  0.4660370000000  0.4023830000000 1.0
C      1  0.5426170000000  0.5099100000000  0.4227660000000 1.0
C      1  0.4501330000000  0.4242650000000  0.4116370000000 1.0
C      1  0.5173020000000  0.4573040000000  0.5551480000000 1.0
C      1  0.5409350000000  0.3678500000000  0.5394710000000 1.0
C      1  0.4714270000000  0.5621170000000  0.4303390000000 1.0
C      1  0.4359460000000  0.4938640000000  0.6017200000000 1.0
C      1  0.4367310000000  0.5538050000000  0.5881210000000 1.0
C      1  0.5344600000000  0.5556370000000  0.5072420000000 1.0
C      1  0.5034400000000  0.4473700000000  0.5098600000000 1.0
C      1  0.4732660000000  0.4531460000000  0.4653100000000 1.0
C      1  0.5444560000000  0.5275430000000  0.4725400000000 1.0
C      1  0.5478860000000  0.3772380000000  0.4402600000000 1.0
C      1  0.5123970000000  0.5773200000000  0.4112430000000 1.0
C      1  0.5184940000000  0.6121060000000  0.5203180000000 1.0
C      1  0.5849600000000  0.4220310000000  0.5529170000000 1.0
C      1  0.5211330000000  0.4439790000000  0.4553130000000 1.0
C      1  0.4462880000000  0.4328300000000  0.5260130000000 1.0
C      1  0.3906950000000  0.4053810000000  0.4547550000000 1.0
C      1  0.4441680000000  0.5437650000000  0.6495250000000 1.0
C      1  0.4698110000000  0.5277240000000  0.6105060000000 1.0
C      1  0.4757700000000  0.4298910000000  0.5695370000000 1.0
C      1  0.4951100000000  0.4512020000000  0.4477440000000 1.0
C      1  0.5403300000000  0.4656560000000  0.4536260000000 1.0
C      1  0.4762070000000  0.5035130000000  0.4651420000000 1.0
C      1  0.4786020000000  0.5150470000000  0.4174950000000 1.0
C      1  0.5599110000000  0.5503540000000  0.4336650000000 1.0
C      1  0.5117680000000  0.5710800000000  0.5481850000000 1.0
C      1  0.4717860000000  0.4120000000000  0.4266790000000 1.0
C      1  0.4433630000000  0.5602940000000  0.4371750000000 1.0
C      1  0.5582120000000  0.3882400000000  0.5309770000000 1.0
C      1  0.5021890000000  0.5896760000000  0.5287840000000 1.0
C      1  0.3924700000000  0.5238410000000  0.4729800000000 1.0
C      1  0.5982890000000  0.4705740000000  0.5017480000000 1.0
C      1  0.4914030000000  0.5121890000000  0.4422910000000 1.0
C      1  0.6183950000000  0.5105350000000  0.5035430000000 1.0
C      1  0.5792010000000  0.4371480000000  0.4467970000000 1.0
C      1  0.5646810000000  0.4916580000000  0.4199960000000 1.0
C      1  0.5456380000000  0.4040310000000  0.4443920000000 1.0
C      1  0.5932090000000  0.4248100000000  0.4909860000000 1.0
C      1  0.5218070000000  0.6044740000000  0.4558390000000 1.0
C      1  0.5291410000000  0.4165650000000  0.4643550000000 1.0
C      1  0.4045920000000  0.4059630000000  0.4321150000000 1.0
C      1  0.4708060000000  0.4680310000000  0.5439060000000 1.0
C      1  0.5468270000000  0.5177620000000  0.5490850000000 1.0
C      1  0.5481090000000  0.4097180000000  0.5155080000000 1.0
C      1  0.5892140000000  0.5496730000000  0.5497520000000 1.0
C      1  0.4713560000000  0.4717330000000  0.4005540000000 1.0
C      1  0.5872290000000  0.5744370000000  0.4817710000000 1.0
C      1  0.6066650000000  0.5025810000000  0.4516480000000 1.0
C      1  0.3885460000000  0.4718630000000  0.5936060000000 1.0
C      1  0.5294800000000  0.5885250000000  0.4320380000000 1.0
C      1  0.3824590000000  0.4259940000000  0.5019650000000 1.0
C      1  0.4288710000000  0.5457910000000  0.5624960000000 1.0
C      1  0.5118350000000  0.5133160000000  0.5107800000000 1.0
C      1  0.3970940000000  0.4730640000000  0.5205310000000 1.0
C      1  0.5265240000000  0.4797150000000  0.5695670000000 1.0
C      1  0.5423020000000  0.6074710000000  0.5044270000000 1.0
C      1  0.4820380000000  0.5193240000000  0.5126690000000 1.0
C      1  0.5616110000000  0.4788020000000  0.4645380000000 1.0
C      1  0.6026070000000  0.4523680000000  0.4422040000000 1.0
C      1  0.4352290000000  0.6015130000000  0.5019930000000 1.0
C      1  0.4346880000000  0.4797410000000  0.4722770000000 1.0
C      1  0.4972240000000  0.4117070000000  0.4134500000000 1.0
C      1  0.4864910000000  0.5330140000000  0.3958610000000 1.0
C      1  0.4465380000000  0.4617780000000  0.5292950000000 1.0
C      1  0.3663050000000  0.4596780000000  0.5875670000000 1.0
C      1  0.4313870000000  0.4942860000000  0.4963790000000 1.0
C      1  0.4543070000000  0.4203150000000  0.5513380000000 1.0
C      1  0.4520120000000  0.4205340000000  0.5005140000000 1.0
C      1  0.4012510000000  0.5420150000000  0.5591540000000 1.0
C      1  0.5368720000000  0.5790930000000  0.5587220000000 1.0
C      1  0.4970330000000  0.4596250000000  0.5344620000000 1.0
C      1  0.5603920000000  0.5444440000000  0.5131890000000 1.0
C      1  0.4465030000000  0.5410540000000  0.5402950000000 1.0
C      1  0.6027720000000  0.4404180000000  0.5382520000000 1.0
C      1  0.4630730000000  0.5012470000000  0.6006270000000 1.0
C      1  0.5805060000000  0.4635340000000  0.5716570000000 1.0
C      1  0.5878860000000  0.5086210000000  0.4297370000000 1.0
C      1  0.4726540000000  0.4599850000000  0.5727980000000 1.0
C      1  0.5568370000000  0.4722790000000  0.5336220000000 1.0
C      1  0.4725130000000  0.5998090000000  0.4726020000000 1.0
C      1  0.4789510000000  0.5762000000000  0.5919560000000 1.0
C      1  0.3834620000000  0.4118510000000  0.4794870000000 1.0
C      1  0.5551660000000  0.4881060000000  0.5098860000000 1.0
C      1  0.5229590000000  0.4618400000000  0.4948290000000 1.0
C      1  0.5717370000000  0.4347620000000  0.4748590000000 1.0
C      1  0.4659010000000  0.5317870000000  0.6385180000000 1.0
C      1  0.6030610000000  0.4430140000000  0.5096210000000 1.0
C      1  0.5538650000000  0.5654270000000  0.6119120000000 1.0
C      1  0.4244260000000  0.4590050000000  0.3893150000000 1.0
C      1  0.5486730000000  0.4900980000000  0.5556370000000 1.0
C      1  0.3872980000000  0.4470500000000  0.5174680000000 1.0
C      1  0.6098970000000  0.4883110000000  0.5212090000000 1.0
C      1  0.4850130000000  0.6225830000000  0.5756010000000 1.0
C      1  0.5659450000000  0.5870110000000  0.4652300000000 1.0
C      1  0.5432530000000  0.6031140000000  0.4761830000000 1.0
C      1  0.4128980000000  0.4881000000000  0.4274480000000 1.0
C      1  0.4196480000000  0.5592700000000  0.6100580000000 1.0
C      1  0.4696880000000  0.5985880000000  0.5754410000000 1.0
C      1  0.5087030000000  0.5347600000000  0.4455810000000 1.0
C      1  0.5138710000000  0.6351390000000  0.5361020000000 1.0
C      1  0.5287690000000  0.5087710000000  0.3985190000000 1.0
C      1  0.3695690000000  0.5094460000000  0.5377220000000 1.0
C      1  0.4888320000000  0.5603730000000  0.4064100000000 1.0
C      1  0.5011130000000  0.5442680000000  0.5476870000000 1.0
C      1  0.4326640000000  0.5399050000000  0.5154440000000 1.0
C      1  0.5744330000000  0.4820640000000  0.4898080000000 1.0
C      1  0.4069130000000  0.4732440000000  0.4042370000000 1.0
C      1  0.6019840000000  0.4682400000000  0.5504020000000 1.0
C      1  0.5574140000000  0.5929310000000  0.5476210000000 1.0
C      1  0.4747620000000  0.5352780000000  0.5372240000000 1.0
C      1  0.5764290000000  0.5584250000000  0.5995210000000 1.0
C      1  0.6149920000000  0.4753090000000  0.4497000000000 1.0
C      1  0.5808320000000  0.3952740000000  0.5460090000000 1.0
C      1  0.5833370000000  0.5367020000000  0.4249460000000 1.0
C      1  0.4664490000000  0.4063610000000  0.4551090000000 1.0
C      1  0.4784710000000  0.5527710000000  0.4778100000000 1.0
C      1  0.4146860000000  0.4760070000000  0.4529280000000 1.0
C      1  0.5905380000000  0.5528430000000  0.5775300000000 1.0
C      1  0.5227660000000  0.4815680000000  0.3894090000000 1.0
C      1  0.4663370000000  0.3940020000000  0.5025940000000 1.0
C      1  0.5282840000000  0.5727230000000  0.6136980000000 1.0
END
