TITL C-3866670-4165-406 99.1403884944959 125000 -1123.71875368015 0 0 185 (C1) n - 1
REM
REM in /home/nfs/bkarasulu/CARBON/AIRSS/Generating-Clusters/LCBOP/Only-C1/SD-CG/FIRE-CG
REM
REM
REM
REM
REM
REM ./C.cell (11c1c37f851c82e70ff6c80c92926a4b)
REM AIRSS Version 0.9.1 bugfix July 2018 build 013d7b7c2542+ Fri, 06 Jul 2018 19:26:36 +0100
REM compiler GCC version 9.2.1 20190827 (Red Hat 9.2.1-1)
REM options -cpp -mtune=generic -march=x86-64 -g -O0 -fpre-include=/usr/include/finclude/math-vector-fortran.h
REM seed 746135103 -569741310 1216104198 760002856 1340735687 1595341274 685604905 -323799204 -304013814 -2129975200 147814463 211647251 160541198 741499807 268432932 757966737 -1169502376 -930473882 1965416172 1049402679 873135665 493761455 797515238 554806094 1403019203 -1672453163 -156428557 -225896962 -233833608 -901672105 1976387212 1757954466 -1264415877
REM
CELL 1.54180   50.00000   50.00000   50.00000   90.00000   90.00000   90.00000
LATT -1
SFAC C  
C      1  0.5080860000000  0.4691430000000  0.5101120000000 1.0
C      1  0.6175890000000  0.5030160000000  0.5286600000000 1.0
C      1  0.4158450000000  0.4435900000000  0.5678560000000 1.0
C      1  0.3869870000000  0.4949430000000  0.5003070000000 1.0
C      1  0.5130620000000  0.5508010000000  0.4249580000000 1.0
C      1  0.5397910000000  0.3998650000000  0.4693070000000 1.0
C      1  0.5651250000000  0.5532870000000  0.4819110000000 1.0
C      1  0.4729340000000  0.4882360000000  0.5728930000000 1.0
C      1  0.5245360000000  0.6052980000000  0.4346570000000 1.0
C      1  0.4610540000000  0.4350710000000  0.5219760000000 1.0
C      1  0.3873600000000  0.4781190000000  0.5435070000000 1.0
C      1  0.4761580000000  0.5797770000000  0.4257410000000 1.0
C      1  0.4753610000000  0.4514700000000  0.5403250000000 1.0
C      1  0.4758300000000  0.5664820000000  0.3998880000000 1.0
C      1  0.4520010000000  0.4752430000000  0.5000470000000 1.0
C      1  0.5369350000000  0.4609360000000  0.6068960000000 1.0
C      1  0.4969800000000  0.5178450000000  0.3906050000000 1.0
C      1  0.4960140000000  0.6009010000000  0.4309950000000 1.0
C      1  0.5814110000000  0.5932170000000  0.5052100000000 1.0
C      1  0.4001810000000  0.5773820000000  0.5541450000000 1.0
C      1  0.5535380000000  0.4431100000000  0.4066380000000 1.0
C      1  0.3982600000000  0.4485970000000  0.4989800000000 1.0
C      1  0.4404630000000  0.4141170000000  0.6048990000000 1.0
C      1  0.4354480000000  0.4631550000000  0.4018250000000 1.0
C      1  0.5579730000000  0.5626540000000  0.6030230000000 1.0
C      1  0.4182180000000  0.4659210000000  0.4562640000000 1.0
C      1  0.4734830000000  0.3921760000000  0.5666180000000 1.0
C      1  0.4042400000000  0.5543520000000  0.4836150000000 1.0
C      1  0.5249990000000  0.5818990000000  0.5428380000000 1.0
C      1  0.5042380000000  0.5182220000000  0.4579960000000 1.0
C      1  0.5694670000000  0.5106490000000  0.4254610000000 1.0
C      1  0.4653380000000  0.5815500000000  0.5135560000000 1.0
C      1  0.5405470000000  0.6091620000000  0.4589930000000 1.0
C      1  0.5964750000000  0.5213510000000  0.5372590000000 1.0
C      1  0.5091370000000  0.5889130000000  0.4889810000000 1.0
C      1  0.4147670000000  0.4933700000000  0.5811560000000 1.0
C      1  0.5254620000000  0.5106290000000  0.3845440000000 1.0
C      1  0.5817670000000  0.5299620000000  0.4828050000000 1.0
C      1  0.5336260000000  0.3902770000000  0.4961340000000 1.0
C      1  0.5470150000000  0.5295900000000  0.3893700000000 1.0
C      1  0.5429730000000  0.6198600000000  0.5077560000000 1.0
C      1  0.4829370000000  0.3843220000000  0.5189070000000 1.0
C      1  0.4404460000000  0.4104080000000  0.6319810000000 1.0
C      1  0.5519570000000  0.5035520000000  0.4456750000000 1.0
C      1  0.5835610000000  0.5363380000000  0.5593660000000 1.0
C      1  0.5197940000000  0.5335240000000  0.5615090000000 1.0
C      1  0.4181270000000  0.5117500000000  0.4596150000000 1.0
C      1  0.5669720000000  0.5813260000000  0.4300850000000 1.0
C      1  0.5470260000000  0.4733480000000  0.5565970000000 1.0
C      1  0.4058850000000  0.5009040000000  0.4815220000000 1.0
C      1  0.5040850000000  0.4553300000000  0.5361360000000 1.0
C      1  0.4854500000000  0.5442190000000  0.3870970000000 1.0
C      1  0.5466620000000  0.4401960000000  0.5188220000000 1.0
C      1  0.6100240000000  0.4750290000000  0.5222020000000 1.0
C      1  0.5627610000000  0.6036480000000  0.5515380000000 1.0
C      1  0.4449210000000  0.4767970000000  0.4472800000000 1.0
C      1  0.5320220000000  0.4029890000000  0.4232640000000 1.0
C      1  0.5713620000000  0.5374810000000  0.6056960000000 1.0
C      1  0.5889170000000  0.5266260000000  0.5855540000000 1.0
C      1  0.4287410000000  0.4253210000000  0.4315180000000 1.0
C      1  0.5249100000000  0.4917420000000  0.5068600000000 1.0
C      1  0.4393780000000  0.6003870000000  0.4698330000000 1.0
C      1  0.5538210000000  0.4221610000000  0.4265190000000 1.0
C      1  0.5502020000000  0.4892840000000  0.4930720000000 1.0
C      1  0.5231180000000  0.4316150000000  0.5347360000000 1.0
C      1  0.4976810000000  0.4906060000000  0.4476500000000 1.0
C      1  0.3857590000000  0.4881310000000  0.4301580000000 1.0
C      1  0.5017830000000  0.4922570000000  0.6301100000000 1.0
C      1  0.4555170000000  0.4458410000000  0.4961080000000 1.0
C      1  0.5010590000000  0.5962990000000  0.5392560000000 1.0
C      1  0.4428060000000  0.4832540000000  0.5287610000000 1.0
C      1  0.4564440000000  0.3978750000000  0.5881990000000 1.0
C      1  0.4263890000000  0.4232720000000  0.4618840000000 1.0
C      1  0.5516420000000  0.4556890000000  0.5830040000000 1.0
C      1  0.5616290000000  0.4170130000000  0.4556880000000 1.0
C      1  0.4331800000000  0.5588070000000  0.4852920000000 1.0
C      1  0.4702280000000  0.5639170000000  0.5367580000000 1.0
C      1  0.4924520000000  0.4012040000000  0.4514080000000 1.0
C      1  0.4710450000000  0.5610580000000  0.4483360000000 1.0
C      1  0.4977390000000  0.5407420000000  0.6140090000000 1.0
C      1  0.3751270000000  0.5054160000000  0.5419670000000 1.0
C      1  0.4707510000000  0.4186190000000  0.4501860000000 1.0
C      1  0.5348110000000  0.5742350000000  0.5901560000000 1.0
C      1  0.4193910000000  0.5301400000000  0.5409560000000 1.0
C      1  0.4116110000000  0.4446110000000  0.4744570000000 1.0
C      1  0.5644190000000  0.4567090000000  0.5359840000000 1.0
C      1  0.5839610000000  0.4279970000000  0.4698170000000 1.0
C      1  0.6021090000000  0.5320630000000  0.4630670000000 1.0
C      1  0.4391220000000  0.5411530000000  0.5903840000000 1.0
C      1  0.5011740000000  0.3971100000000  0.5683800000000 1.0
C      1  0.4798890000000  0.5217490000000  0.5311920000000 1.0
C      1  0.5647000000000  0.6083370000000  0.5227800000000 1.0
C      1  0.5059040000000  0.5649660000000  0.5981340000000 1.0
C      1  0.5670200000000  0.5339860000000  0.4094340000000 1.0
C      1  0.5063120000000  0.3851760000000  0.5048460000000 1.0
C      1  0.4484830000000  0.5184960000000  0.4609060000000 1.0
C      1  0.5014260000000  0.4904340000000  0.5703530000000 1.0
C      1  0.5923940000000  0.4646060000000  0.5426440000000 1.0
C      1  0.4585310000000  0.4280090000000  0.4251230000000 1.0
C      1  0.5975690000000  0.4988650000000  0.5849180000000 1.0
C      1  0.4820060000000  0.5766820000000  0.5848100000000 1.0
C      1  0.5289080000000  0.6097580000000  0.4849440000000 1.0
C      1  0.4978730000000  0.5485210000000  0.4512610000000 1.0
C      1  0.4623730000000  0.4510040000000  0.4063470000000 1.0
C      1  0.4351570000000  0.4891100000000  0.4136200000000 1.0
C      1  0.5388110000000  0.4449370000000  0.4899180000000 1.0
C      1  0.4228620000000  0.4247700000000  0.5470500000000 1.0
C      1  0.6410620000000  0.4834410000000  0.4564510000000 1.0
C      1  0.5538700000000  0.3881670000000  0.5161910000000 1.0
C      1  0.4605090000000  0.4741270000000  0.5505360000000 1.0
C      1  0.5734610000000  0.5083540000000  0.5256560000000 1.0
C      1  0.5149830000000  0.5127060000000  0.5804910000000 1.0
C      1  0.5326350000000  0.5105540000000  0.6021680000000 1.0
C      1  0.4448030000000  0.5838690000000  0.4936970000000 1.0
C      1  0.3993500000000  0.4636670000000  0.4332970000000 1.0
C      1  0.4351690000000  0.5112230000000  0.5283820000000 1.0
C      1  0.5247250000000  0.5392350000000  0.5134900000000 1.0
C      1  0.4145760000000  0.5675940000000  0.4358450000000 1.0
C      1  0.3893710000000  0.4700880000000  0.5150720000000 1.0
C      1  0.4638000000000  0.3922950000000  0.5394250000000 1.0
C      1  0.4677620000000  0.5019100000000  0.5978750000000 1.0
C      1  0.5394580000000  0.5481260000000  0.4718350000000 1.0
C      1  0.5486180000000  0.5286050000000  0.5557610000000 1.0
C      1  0.5119530000000  0.5162090000000  0.5046930000000 1.0
C      1  0.5689580000000  0.4090300000000  0.5621610000000 1.0
C      1  0.4897200000000  0.5433760000000  0.5455420000000 1.0
C      1  0.5112470000000  0.4634460000000  0.4122620000000 1.0
C      1  0.5319540000000  0.5618610000000  0.5250400000000 1.0
C      1  0.4215810000000  0.5164170000000  0.4146270000000 1.0
C      1  0.5348890000000  0.5222470000000  0.4588410000000 1.0
C      1  0.4922040000000  0.5154660000000  0.4848920000000 1.0
C      1  0.5659930000000  0.5939100000000  0.4568610000000 1.0
C      1  0.4148410000000  0.4464190000000  0.4157890000000 1.0
C      1  0.5975810000000  0.4764590000000  0.5690760000000 1.0
C      1  0.4536360000000  0.4260560000000  0.4733920000000 1.0
C      1  0.5182210000000  0.4111510000000  0.5532720000000 1.0
C      1  0.4626210000000  0.5072180000000  0.4879390000000 1.0
C      1  0.4856570000000  0.5964200000000  0.5638890000000 1.0
C      1  0.4020530000000  0.5107200000000  0.4355570000000 1.0
C      1  0.4571450000000  0.5616860000000  0.5884760000000 1.0
C      1  0.6130900000000  0.4145210000000  0.5053870000000 1.0
C      1  0.4461470000000  0.4144190000000  0.5338700000000 1.0
C      1  0.5348590000000  0.4836630000000  0.3768530000000 1.0
C      1  0.5196370000000  0.3963540000000  0.4480980000000 1.0
C      1  0.4094890000000  0.5536950000000  0.5484500000000 1.0
C      1  0.5504600000000  0.4670910000000  0.4752830000000 1.0
C      1  0.6013270000000  0.5473600000000  0.4404240000000 1.0
C      1  0.5145040000000  0.5641250000000  0.4729710000000 1.0
C      1  0.5339720000000  0.4615580000000  0.3955310000000 1.0
C      1  0.6023640000000  0.4351670000000  0.4905930000000 1.0
C      1  0.5745660000000  0.5801660000000  0.4808220000000 1.0
C      1  0.5707510000000  0.5079530000000  0.4979100000000 1.0
C      1  0.5415200000000  0.5882100000000  0.4175800000000 1.0
C      1  0.5656210000000  0.3944150000000  0.5396840000000 1.0
C      1  0.4801620000000  0.5004590000000  0.4073260000000 1.0
C      1  0.6261400000000  0.4749840000000  0.4760740000000 1.0
C      1  0.5637600000000  0.4300740000000  0.5783100000000 1.0
C      1  0.4841920000000  0.4704880000000  0.4050760000000 1.0
C      1  0.5417490000000  0.5882980000000  0.5648880000000 1.0
C      1  0.4287440000000  0.5915290000000  0.4454710000000 1.0
C      1  0.3782160000000  0.5178370000000  0.5156230000000 1.0
C      1  0.5436970000000  0.4765570000000  0.4493800000000 1.0
C      1  0.5188260000000  0.4719840000000  0.6237400000000 1.0
C      1  0.4744750000000  0.4739890000000  0.4552090000000 1.0
C      1  0.3956880000000  0.5593250000000  0.4564720000000 1.0
C      1  0.4507170000000  0.5484220000000  0.4643080000000 1.0
C      1  0.5442100000000  0.4795710000000  0.3513450000000 1.0
C      1  0.6121610000000  0.4618490000000  0.4965460000000 1.0
C      1  0.5182620000000  0.4736930000000  0.4375000000000 1.0
C      1  0.4911150000000  0.5940660000000  0.5113670000000 1.0
C      1  0.4227720000000  0.5464210000000  0.4162740000000 1.0
C      1  0.4658760000000  0.5139600000000  0.4305630000000 1.0
C      1  0.3865870000000  0.5424450000000  0.5031480000000 1.0
C      1  0.5269890000000  0.5663370000000  0.4081160000000 1.0
C      1  0.5167920000000  0.4725570000000  0.5559810000000 1.0
C      1  0.4574760000000  0.5214840000000  0.5141050000000 1.0
C      1  0.5097800000000  0.4506800000000  0.4882820000000 1.0
C      1  0.4052530000000  0.4709070000000  0.5649450000000 1.0
C      1  0.4866380000000  0.5131650000000  0.6170960000000 1.0
C      1  0.4245590000000  0.4343240000000  0.5931760000000 1.0
C      1  0.5540920000000  0.5179710000000  0.6163060000000 1.0
C      1  0.4887710000000  0.4532640000000  0.4699560000000 1.0
C      1  0.5801190000000  0.5565040000000  0.4230830000000 1.0
C      1  0.5531290000000  0.5023310000000  0.5455060000000 1.0
C      1  0.4245410000000  0.5179170000000  0.5885450000000 1.0
END
