TITL C-3866674-3872-432 1.98348808656539e-05 125000 -563.843544732443 0 0 93 (C1) n - 1
REM
REM in /home/nfs/bkarasulu/CARBON/AIRSS/Generating-Clusters/LCBOP/Only-C1/SD-CG/FIRE-CG
REM
REM
REM
REM
REM
REM ./C.cell (11c1c37f851c82e70ff6c80c92926a4b)
REM AIRSS Version 0.9.1 bugfix July 2018 build 013d7b7c2542+ Fri, 06 Jul 2018 19:26:36 +0100
REM compiler GCC version 9.2.1 20190827 (Red Hat 9.2.1-1)
REM options -cpp -mtune=generic -march=x86-64 -g -O0 -fpre-include=/usr/include/finclude/math-vector-fortran.h
REM seed -2061619405 -740777214 2044473014 -928058115 -327596060 -1914297661 627368635 1442715838 -992726961 -147598838 -618597357 -1445541353 -1343444244 -1143219787 1580131113 894228321 636874771 -2008677652 -1428628283 1642258305 39142111 -1322161981 484496163 -634517486 189569221 -1325280128 33401852 -502952190 -443464732 814787678 712294393 -1949706917 1993606652
REM
CELL 1.54180   50.00000   50.00000   50.00000   90.00000   90.00000   90.00000
LATT -1
SFAC C  
C      1  0.5712950000000  0.4889900000000  0.5052090000000 1.0
C      1  0.4740410000000  0.5101640000000  0.4128500000000 1.0
C      1  0.5021250000000  0.5322640000000  0.4631410000000 1.0
C      1  0.4138960000000  0.5177210000000  0.5144630000000 1.0
C      1  0.5617470000000  0.5763440000000  0.4929200000000 1.0
C      1  0.4759960000000  0.4224180000000  0.4704670000000 1.0
C      1  0.5107760000000  0.5802990000000  0.4985370000000 1.0
C      1  0.4339100000000  0.4428860000000  0.4797390000000 1.0
C      1  0.4707760000000  0.4724920000000  0.4595790000000 1.0
C      1  0.4405720000000  0.5741630000000  0.4829780000000 1.0
C      1  0.4439740000000  0.5600490000000  0.5345730000000 1.0
C      1  0.4360290000000  0.4340970000000  0.5091550000000 1.0
C      1  0.5808270000000  0.5097090000000  0.5745810000000 1.0
C      1  0.5428680000000  0.4866450000000  0.4204230000000 1.0
C      1  0.4797110000000  0.5146940000000  0.5220600000000 1.0
C      1  0.4585710000000  0.4453640000000  0.4656120000000 1.0
C      1  0.4542810000000  0.4880680000000  0.4991510000000 1.0
C      1  0.5588160000000  0.4527120000000  0.4533470000000 1.0
C      1  0.4810180000000  0.5362060000000  0.5034750000000 1.0
C      1  0.5023080000000  0.4241230000000  0.4577550000000 1.0
C      1  0.4729870000000  0.4680790000000  0.5090430000000 1.0
C      1  0.4054980000000  0.5130250000000  0.4619630000000 1.0
C      1  0.4098260000000  0.4718430000000  0.5041160000000 1.0
C      1  0.6147540000000  0.4865280000000  0.4238430000000 1.0
C      1  0.5061100000000  0.4296950000000  0.5033280000000 1.0
C      1  0.4321000000000  0.5631410000000  0.5087340000000 1.0
C      1  0.5764840000000  0.4554560000000  0.5400870000000 1.0
C      1  0.5377880000000  0.5916380000000  0.4911490000000 1.0
C      1  0.4139960000000  0.4642650000000  0.4758980000000 1.0
C      1  0.5110520000000  0.4896920000000  0.5418890000000 1.0
C      1  0.5634860000000  0.4726910000000  0.4338780000000 1.0
C      1  0.4507800000000  0.4975120000000  0.4179710000000 1.0
C      1  0.5369130000000  0.5084160000000  0.5926570000000 1.0
C      1  0.5131500000000  0.4928700000000  0.5869270000000 1.0
C      1  0.5187150000000  0.5661350000000  0.4347630000000 1.0
C      1  0.4946830000000  0.4493360000000  0.5630360000000 1.0
C      1  0.4979210000000  0.4542730000000  0.5154150000000 1.0
C      1  0.4252160000000  0.5696630000000  0.4354550000000 1.0
C      1  0.4651300000000  0.5720750000000  0.5493940000000 1.0
C      1  0.5014280000000  0.5358890000000  0.5573160000000 1.0
C      1  0.5226530000000  0.5384230000000  0.4826660000000 1.0
C      1  0.5471220000000  0.5636050000000  0.4313730000000 1.0
C      1  0.4307660000000  0.4653360000000  0.5475780000000 1.0
C      1  0.5732190000000  0.4204000000000  0.5968350000000 1.0
C      1  0.5609060000000  0.4429410000000  0.5858470000000 1.0
C      1  0.4646300000000  0.4979530000000  0.4740750000000 1.0
C      1  0.5046120000000  0.4458880000000  0.4396780000000 1.0
C      1  0.5664420000000  0.5528740000000  0.4768750000000 1.0
C      1  0.4419520000000  0.5335230000000  0.5456920000000 1.0
C      1  0.5228050000000  0.5027320000000  0.4128330000000 1.0
C      1  0.5032810000000  0.5069710000000  0.5637050000000 1.0
C      1  0.5156420000000  0.4826350000000  0.4706160000000 1.0
C      1  0.5672140000000  0.5574860000000  0.4486580000000 1.0
C      1  0.4609450000000  0.4233310000000  0.5209420000000 1.0
C      1  0.5054800000000  0.5008570000000  0.5168720000000 1.0
C      1  0.5341550000000  0.4489550000000  0.5926710000000 1.0
C      1  0.5235290000000  0.4940080000000  0.4952330000000 1.0
C      1  0.5077180000000  0.4620790000000  0.5404020000000 1.0
C      1  0.4144750000000  0.4862460000000  0.4556520000000 1.0
C      1  0.4837830000000  0.5574130000000  0.5629410000000 1.0
C      1  0.5837220000000  0.4657120000000  0.5149100000000 1.0
C      1  0.4733990000000  0.4313910000000  0.5490510000000 1.0
C      1  0.4197030000000  0.4528150000000  0.5244350000000 1.0
C      1  0.4649730000000  0.5866080000000  0.4780170000000 1.0
C      1  0.4477490000000  0.4861130000000  0.5518930000000 1.0
C      1  0.5100400000000  0.4627590000000  0.5857630000000 1.0
C      1  0.5501280000000  0.5309320000000  0.4846760000000 1.0
C      1  0.5218420000000  0.5437260000000  0.5369770000000 1.0
C      1  0.5550820000000  0.5211820000000  0.5737260000000 1.0
C      1  0.5873160000000  0.4837010000000  0.5765100000000 1.0
C      1  0.4581150000000  0.5105810000000  0.5414270000000 1.0
C      1  0.5466500000000  0.5368920000000  0.5506930000000 1.0
C      1  0.5048590000000  0.5408250000000  0.4364650000000 1.0
C      1  0.4108680000000  0.5390360000000  0.4720300000000 1.0
C      1  0.4925810000000  0.5856140000000  0.4753990000000 1.0
C      1  0.5222840000000  0.4264060000000  0.4795420000000 1.0
C      1  0.4133870000000  0.5418410000000  0.5009150000000 1.0
C      1  0.6033870000000  0.4535030000000  0.5003200000000 1.0
C      1  0.5849870000000  0.3994140000000  0.6068510000000 1.0
C      1  0.5095140000000  0.5511100000000  0.5075830000000 1.0
C      1  0.5756350000000  0.4595430000000  0.5678550000000 1.0
C      1  0.5471500000000  0.4365930000000  0.4714050000000 1.0
C      1  0.4982790000000  0.4707140000000  0.4518770000000 1.0
C      1  0.4308190000000  0.4859770000000  0.4321130000000 1.0
C      1  0.4777570000000  0.5241030000000  0.4760060000000 1.0
C      1  0.5105370000000  0.5884340000000  0.4519040000000 1.0
C      1  0.4799040000000  0.4164720000000  0.4995520000000 1.0
C      1  0.5505710000000  0.5046830000000  0.4953790000000 1.0
C      1  0.4254570000000  0.5615620000000  0.4614030000000 1.0
C      1  0.5004920000000  0.5196610000000  0.4175370000000 1.0
C      1  0.5327330000000  0.6029060000000  0.4645110000000 1.0
C      1  0.5900240000000  0.4794410000000  0.4280090000000 1.0
C      1  0.4271770000000  0.4944580000000  0.5072440000000 1.0
END
