TITL C-3866672-3872-36 -1.59453075261117e-06 125000 -1210.87763168317 0 0 197 (C1) n - 1
REM
REM in /home/nfs/bkarasulu/CARBON/AIRSS/Generating-Clusters/LCBOP/Only-C1/SD-CG/HFTN-CG/FIRE-CG
REM
REM
REM
REM
REM
REM ./C.cell (11c1c37f851c82e70ff6c80c92926a4b)
REM AIRSS Version 0.9.1 bugfix July 2018 build 013d7b7c2542+ Fri, 06 Jul 2018 19:26:36 +0100
REM compiler GCC version 9.2.1 20190827 (Red Hat 9.2.1-1)
REM options -cpp -mtune=generic -march=x86-64 -g -O0 -fpre-include=/usr/include/finclude/math-vector-fortran.h
REM seed -1384529527 -1166302334 475990747 -45634245 783367331 -620322736 1930284282 600332099 -1730958278 1240889981 -2107902248 1492730923 -565544396 -2045340310 -129880473 -1777285993 -1728756175 1900648027 1051657328 -1695941673 -1005545513 -1176964055 -199748389 -1886956820 -2071778270 -275877421 -1411748969 1794944049 -1410045407 -1759968230 1942411486 -198618492 -1880399124
REM
CELL 1.54180   50.00000   50.00000   50.00000   90.00000   90.00000   90.00000
LATT -1
SFAC C  
C      1  0.5516720000000  0.4104940000000  0.5473190000000 1.0
C      1  0.5218950000000  0.5446330000000  0.5947890000000 1.0
C      1  0.5246550000000  0.4963320000000  0.5899650000000 1.0
C      1  0.6465940000000  0.4707970000000  0.5394300000000 1.0
C      1  0.5546440000000  0.6117170000000  0.4678870000000 1.0
C      1  0.5688310000000  0.5274690000000  0.5076090000000 1.0
C      1  0.5808860000000  0.4041060000000  0.5099410000000 1.0
C      1  0.3758220000000  0.5918400000000  0.5384930000000 1.0
C      1  0.3979050000000  0.5325260000000  0.4940540000000 1.0
C      1  0.5857390000000  0.4694360000000  0.5279130000000 1.0
C      1  0.5304220000000  0.5414540000000  0.5368640000000 1.0
C      1  0.5947630000000  0.4856250000000  0.5053770000000 1.0
C      1  0.4736840000000  0.5627080000000  0.3881680000000 1.0
C      1  0.5242840000000  0.4662550000000  0.6432180000000 1.0
C      1  0.4115330000000  0.5361740000000  0.5665050000000 1.0
C      1  0.5288610000000  0.4845960000000  0.5259280000000 1.0
C      1  0.6272240000000  0.5156890000000  0.4853890000000 1.0
C      1  0.5097300000000  0.6256740000000  0.4496160000000 1.0
C      1  0.4868340000000  0.3757270000000  0.5365810000000 1.0
C      1  0.4853710000000  0.4727730000000  0.4870980000000 1.0
C      1  0.6224020000000  0.4920940000000  0.5001440000000 1.0
C      1  0.4359520000000  0.5930630000000  0.4587740000000 1.0
C      1  0.6100600000000  0.5657400000000  0.4886890000000 1.0
C      1  0.4001840000000  0.5105660000000  0.5556060000000 1.0
C      1  0.4775080000000  0.4729730000000  0.5975300000000 1.0
C      1  0.5768340000000  0.5039970000000  0.4921040000000 1.0
C      1  0.5787700000000  0.5733460000000  0.4488420000000 1.0
C      1  0.4352270000000  0.5088040000000  0.5236930000000 1.0
C      1  0.5743590000000  0.4195000000000  0.5319310000000 1.0
C      1  0.5143940000000  0.6304510000000  0.5455560000000 1.0
C      1  0.6224290000000  0.5557280000000  0.5603960000000 1.0
C      1  0.4404030000000  0.5297450000000  0.4589040000000 1.0
C      1  0.5201990000000  0.4759940000000  0.5732890000000 1.0
C      1  0.6202250000000  0.5755040000000  0.5129540000000 1.0
C      1  0.4809410000000  0.6247420000000  0.4543370000000 1.0
C      1  0.4934540000000  0.4505900000000  0.6062970000000 1.0
C      1  0.4567480000000  0.5401750000000  0.3850900000000 1.0
C      1  0.4586120000000  0.6081990000000  0.4455990000000 1.0
C      1  0.5284530000000  0.4042830000000  0.5630110000000 1.0
C      1  0.5876330000000  0.5780970000000  0.4766010000000 1.0
C      1  0.4605940000000  0.4095260000000  0.5174130000000 1.0
C      1  0.5247910000000  0.4701080000000  0.4390120000000 1.0
C      1  0.6210250000000  0.4882480000000  0.5763560000000 1.0
C      1  0.3875070000000  0.5076910000000  0.5034970000000 1.0
C      1  0.5620640000000  0.4538030000000  0.5927510000000 1.0
C      1  0.6062410000000  0.5406310000000  0.5777020000000 1.0
C      1  0.4701070000000  0.5034220000000  0.4059950000000 1.0
C      1  0.3840130000000  0.5087990000000  0.5320960000000 1.0
C      1  0.4167360000000  0.3998760000000  0.4066160000000 1.0
C      1  0.4596970000000  0.3828890000000  0.5284250000000 1.0
C      1  0.5273630000000  0.4473790000000  0.4962550000000 1.0
C      1  0.4713110000000  0.5142260000000  0.5641200000000 1.0
C      1  0.5148980000000  0.3868750000000  0.4250300000000 1.0
C      1  0.4375380000000  0.4275720000000  0.4409440000000 1.0
C      1  0.4521400000000  0.4509130000000  0.4273690000000 1.0
C      1  0.6201240000000  0.3981440000000  0.5875010000000 1.0
C      1  0.3955780000000  0.4741820000000  0.4350840000000 1.0
C      1  0.5359620000000  0.4924460000000  0.4239640000000 1.0
C      1  0.5356490000000  0.5570030000000  0.4912760000000 1.0
C      1  0.4828690000000  0.4226250000000  0.5004130000000 1.0
C      1  0.4439660000000  0.5082030000000  0.4165750000000 1.0
C      1  0.4835890000000  0.5821250000000  0.5782750000000 1.0
C      1  0.5198020000000  0.4674260000000  0.5469940000000 1.0
C      1  0.5025880000000  0.5376340000000  0.5310540000000 1.0
C      1  0.4840850000000  0.3820810000000  0.4700250000000 1.0
C      1  0.6125010000000  0.4419150000000  0.5570270000000 1.0
C      1  0.4805000000000  0.5203950000000  0.4873190000000 1.0
C      1  0.4497020000000  0.5503440000000  0.5998880000000 1.0
C      1  0.4230510000000  0.5744170000000  0.4412590000000 1.0
C      1  0.4454420000000  0.4249230000000  0.5373560000000 1.0
C      1  0.5926680000000  0.5252330000000  0.4302590000000 1.0
C      1  0.5326450000000  0.5349390000000  0.4748030000000 1.0
C      1  0.5197440000000  0.3419210000000  0.5235440000000 1.0
C      1  0.4977590000000  0.5612570000000  0.4321750000000 1.0
C      1  0.3903620000000  0.4456970000000  0.5291890000000 1.0
C      1  0.4709560000000  0.5146560000000  0.3792010000000 1.0
C      1  0.5204630000000  0.6146040000000  0.4253810000000 1.0
C      1  0.4576170000000  0.5535230000000  0.5255790000000 1.0
C      1  0.5501210000000  0.5448870000000  0.4204810000000 1.0
C      1  0.5330600000000  0.5695070000000  0.5866120000000 1.0
C      1  0.5613000000000  0.5692270000000  0.5880630000000 1.0
C      1  0.4578970000000  0.4689200000000  0.5357110000000 1.0
C      1  0.5482820000000  0.5469220000000  0.5146310000000 1.0
C      1  0.5453540000000  0.4434670000000  0.4747070000000 1.0
C      1  0.4784640000000  0.5652310000000  0.4716800000000 1.0
C      1  0.6124800000000  0.5132590000000  0.5814260000000 1.0
C      1  0.4084570000000  0.3936250000000  0.5327440000000 1.0
C      1  0.5384470000000  0.5202430000000  0.4309540000000 1.0
C      1  0.3921530000000  0.5696490000000  0.5337150000000 1.0
C      1  0.4920150000000  0.3636600000000  0.4898290000000 1.0
C      1  0.4357660000000  0.4593110000000  0.4033650000000 1.0
C      1  0.5813590000000  0.4986990000000  0.4363500000000 1.0
C      1  0.5329170000000  0.4462230000000  0.3991860000000 1.0
C      1  0.5390540000000  0.5691020000000  0.4103790000000 1.0
C      1  0.5770810000000  0.5494290000000  0.4321530000000 1.0
C      1  0.5199640000000  0.5783710000000  0.4825440000000 1.0
C      1  0.5139940000000  0.5877980000000  0.5733880000000 1.0
C      1  0.5626560000000  0.6003830000000  0.5171570000000 1.0
C      1  0.4344140000000  0.4858000000000  0.5796170000000 1.0
C      1  0.4912710000000  0.4093480000000  0.4749340000000 1.0
C      1  0.5197920000000  0.4539260000000  0.6193900000000 1.0
C      1  0.4787810000000  0.4129140000000  0.4109770000000 1.0
C      1  0.4377970000000  0.5568730000000  0.5012630000000 1.0
C      1  0.5083480000000  0.4330200000000  0.5140640000000 1.0
C      1  0.3886030000000  0.5549440000000  0.5096680000000 1.0
C      1  0.5566670000000  0.4642910000000  0.3952750000000 1.0
C      1  0.4757890000000  0.5615810000000  0.5980490000000 1.0
C      1  0.5002370000000  0.3597950000000  0.5168490000000 1.0
C      1  0.4323170000000  0.4020600000000  0.4290190000000 1.0
C      1  0.5033380000000  0.5725560000000  0.4589060000000 1.0
C      1  0.5248450000000  0.4103740000000  0.4367330000000 1.0
C      1  0.5406440000000  0.5947410000000  0.4228430000000 1.0
C      1  0.4305980000000  0.5482980000000  0.4340210000000 1.0
C      1  0.4557680000000  0.4752440000000  0.4468780000000 1.0
C      1  0.4096190000000  0.4610950000000  0.5448020000000 1.0
C      1  0.5546200000000  0.6043940000000  0.5445440000000 1.0
C      1  0.4527250000000  0.4593650000000  0.3801380000000 1.0
C      1  0.4828870000000  0.4933970000000  0.3641450000000 1.0
C      1  0.4246370000000  0.5364960000000  0.4846900000000 1.0
C      1  0.5270520000000  0.6067560000000  0.5549130000000 1.0
C      1  0.5029750000000  0.4475810000000  0.5384730000000 1.0
C      1  0.5835380000000  0.5541100000000  0.5878090000000 1.0
C      1  0.3887020000000  0.4796510000000  0.4608780000000 1.0
C      1  0.5294080000000  0.6263720000000  0.4714460000000 1.0
C      1  0.5410070000000  0.5225850000000  0.5546500000000 1.0
C      1  0.4882490000000  0.5342390000000  0.4389980000000 1.0
C      1  0.5003600000000  0.3932850000000  0.5562080000000 1.0
C      1  0.5916060000000  0.4424240000000  0.5368930000000 1.0
C      1  0.4661480000000  0.5966570000000  0.4205280000000 1.0
C      1  0.4699460000000  0.5799670000000  0.5325420000000 1.0
C      1  0.4347340000000  0.4514660000000  0.5357950000000 1.0
C      1  0.4118200000000  0.5624970000000  0.5533970000000 1.0
C      1  0.5408980000000  0.4305350000000  0.4244960000000 1.0
C      1  0.4117430000000  0.4845750000000  0.5624990000000 1.0
C      1  0.5449400000000  0.5174780000000  0.4585990000000 1.0
C      1  0.4986560000000  0.5331190000000  0.5036430000000 1.0
C      1  0.3610480000000  0.6127930000000  0.5431690000000 1.0
C      1  0.3938140000000  0.4167770000000  0.5308700000000 1.0
C      1  0.5012670000000  0.4528870000000  0.3934400000000 1.0
C      1  0.5451170000000  0.4497620000000  0.4468620000000 1.0
C      1  0.5189290000000  0.4747190000000  0.5006170000000 1.0
C      1  0.4422050000000  0.5007100000000  0.4442550000000 1.0
C      1  0.4820300000000  0.4720200000000  0.4580530000000 1.0
C      1  0.4987910000000  0.4528290000000  0.4426900000000 1.0
C      1  0.5602750000000  0.5960400000000  0.4435270000000 1.0
C      1  0.4715150000000  0.3781930000000  0.4444350000000 1.0
C      1  0.4867500000000  0.3877450000000  0.4219290000000 1.0
C      1  0.5398090000000  0.4399880000000  0.6029770000000 1.0
C      1  0.4274870000000  0.3582220000000  0.4502540000000 1.0
C      1  0.4683430000000  0.5854190000000  0.4879230000000 1.0
C      1  0.4967830000000  0.4244810000000  0.5930360000000 1.0
C      1  0.4621950000000  0.5866550000000  0.5588480000000 1.0
C      1  0.4313870000000  0.3782010000000  0.5333810000000 1.0
C      1  0.4830510000000  0.5919290000000  0.5107770000000 1.0
C      1  0.4650400000000  0.4280500000000  0.5585330000000 1.0
C      1  0.5635780000000  0.4846480000000  0.4151100000000 1.0
C      1  0.6173790000000  0.4193590000000  0.5726210000000 1.0
C      1  0.5495140000000  0.4992910000000  0.5403460000000 1.0
C      1  0.4690790000000  0.4483380000000  0.4934690000000 1.0
C      1  0.6259480000000  0.5700820000000  0.5383350000000 1.0
C      1  0.4809980000000  0.4664360000000  0.3748650000000 1.0
C      1  0.6208540000000  0.5411350000000  0.4801610000000 1.0
C      1  0.4264060000000  0.4318450000000  0.4668300000000 1.0
C      1  0.4023210000000  0.4207490000000  0.4732680000000 1.0
C      1  0.4823250000000  0.4429340000000  0.4177230000000 1.0
C      1  0.4903920000000  0.5115900000000  0.4231730000000 1.0
C      1  0.4559440000000  0.4919070000000  0.5199690000000 1.0
C      1  0.5258070000000  0.4193720000000  0.5881810000000 1.0
C      1  0.4281120000000  0.5373710000000  0.5899500000000 1.0
C      1  0.4822700000000  0.5751680000000  0.4119940000000 1.0
C      1  0.4823120000000  0.4110940000000  0.5723720000000 1.0
C      1  0.6281660000000  0.4659790000000  0.5602350000000 1.0
C      1  0.5093130000000  0.5973450000000  0.5015750000000 1.0
C      1  0.4432910000000  0.3786780000000  0.4414670000000 1.0
C      1  0.3849730000000  0.4825780000000  0.4892800000000 1.0
C      1  0.3808970000000  0.4596220000000  0.5061230000000 1.0
C      1  0.5710380000000  0.4830890000000  0.5485800000000 1.0
C      1  0.5702230000000  0.5986480000000  0.4896220000000 1.0
C      1  0.5710060000000  0.4714620000000  0.5745750000000 1.0
C      1  0.5150500000000  0.6403110000000  0.5202690000000 1.0
C      1  0.4334560000000  0.5809970000000  0.5616300000000 1.0
C      1  0.5689930000000  0.5024020000000  0.4641940000000 1.0
C      1  0.4775070000000  0.4521140000000  0.5485690000000 1.0
C      1  0.4723140000000  0.4960320000000  0.4977810000000 1.0
C      1  0.4707190000000  0.5362500000000  0.4641990000000 1.0
C      1  0.4423180000000  0.4457180000000  0.4850100000000 1.0
C      1  0.6429420000000  0.4797140000000  0.5144720000000 1.0
C      1  0.4973930000000  0.5465070000000  0.6080860000000 1.0
C      1  0.5180300000000  0.6241780000000  0.4975180000000 1.0
C      1  0.4097770000000  0.4678210000000  0.4125380000000 1.0
C      1  0.4373560000000  0.5358210000000  0.4084070000000 1.0
C      1  0.5748440000000  0.6119950000000  0.5618250000000 1.0
C      1  0.4754960000000  0.5341690000000  0.5429530000000 1.0
C      1  0.5055320000000  0.4241240000000  0.4548420000000 1.0
C      1  0.4402750000000  0.5828990000000  0.4863130000000 1.0
C      1  0.4622950000000  0.4919730000000  0.5815420000000 1.0
C      1  0.5316420000000  0.5218460000000  0.5815960000000 1.0
END
