TITL C-3866669-3764-18 214998.882710174 125000 -1010.43121217285 0 0 166 (C1) n - 1
REM
REM in /home/nfs/bkarasulu/CARBON/AIRSS/Generating-Clusters/LCBOP/Only-C1/SD-CG/HFTN-CG/FIRE-CG
REM
REM
REM
REM
REM
REM ./C.cell (11c1c37f851c82e70ff6c80c92926a4b)
REM AIRSS Version 0.9.1 bugfix July 2018 build 013d7b7c2542+ Fri, 06 Jul 2018 19:26:36 +0100
REM compiler GCC version 9.2.1 20190827 (Red Hat 9.2.1-1)
REM options -cpp -mtune=generic -march=x86-64 -g -O0 -fpre-include=/usr/include/finclude/math-vector-fortran.h
REM seed -1512685751 -1431333419 -50674522 305747126 1063712223 -1630969013 -323347035 1921138234 1157756749 497016667 340110960 235716808 -1360466737 1674128587 -704165408 652202149 894205588 -1504838367 -1935371385 -1096951218 -1524189783 -1254190576 874111367 309816959 -288026509 634471270 -1076655619 -270705771 -1351402409 1602669149 1974543977 1807966882 1256671368
REM
CELL 1.54180   50.00000   50.00000   50.00000   90.00000   90.00000   90.00000
LATT -1
SFAC C  
C      1  0.4655140000000  0.4435470000000  0.5299770000000 1.0
C      1  0.4918280000000  0.6084740000000  0.5176790000000 1.0
C      1  0.4395060000000  0.4108060000000  0.5467230000000 1.0
C      1  0.4637690000000  0.6095250000000  0.5162140000000 1.0
C      1  0.4237310000000  0.5625980000000  0.5573590000000 1.0
C      1  0.5910940000000  0.5917900000000  0.5767690000000 1.0
C      1  0.3896820000000  0.5403580000000  0.5293300000000 1.0
C      1  0.5589430000000  0.4139310000000  0.5677140000000 1.0
C      1  0.4368040000000  0.5102920000000  0.5306340000000 1.0
C      1  0.3991290000000  0.5038490000000  0.4993640000000 1.0
C      1  0.4332280000000  0.4449950000000  0.4544930000000 1.0
C      1  0.5906450000000  0.4707490000000  0.4749010000000 1.0
C      1  0.4919350000000  0.5516830000000  0.5273650000000 1.0
C      1  0.4200350000000  0.4356480000000  0.5150550000000 1.0
C      1  0.5477570000000  0.4434640000000  0.4685710000000 1.0
C      1  0.4562370000000  0.5418830000000  0.4967520000000 1.0
C      1  0.5767680000000  0.5760610000000  0.4448010000000 1.0
C      1  0.3995710000000  0.5167110000000  0.4738530000000 1.0
C      1  0.4162830000000  0.5556780000000  0.5284080000000 1.0
C      1  0.5314950000000  0.6114990000000  0.4931010000000 1.0
C      1  0.4957670000000  0.4838070000000  0.4272480000000 1.0
C      1  0.4613140000000  0.4859120000000  0.4809210000000 1.0
C      1  0.4861410000000  0.6048590000000  0.4473390000000 1.0
C      1  0.4673050000000  0.6142210000000  0.4647250000000 1.0
C      1  0.5393750000000  0.4858030000000  0.4825550000000 1.0
C      1  0.5080130000000  0.5125100000000  0.5106900000000 1.0
C      1  0.3663600000000  0.3645550000000  0.4786360000000 1.0
C      1  0.5000290000000  0.5798740000000  0.5776010000000 1.0
C      1  0.4900480000000  0.4370750000000  0.5186300000000 1.0
C      1  0.4875940000000  0.4180060000000  0.4983300000000 1.0
C      1  0.5074560000000  0.5622390000000  0.4608960000000 1.0
C      1  0.5790920000000  0.6004690000000  0.4888280000000 1.0
C      1  0.4105310000000  0.5644660000000  0.4786890000000 1.0
C      1  0.5369290000000  0.5033800000000  0.3844880000000 1.0
C      1  0.5404530000000  0.4936650000000  0.4548330000000 1.0
C      1  0.5772440000000  0.5077180000000  0.4105730000000 1.0
C      1  0.5039010000000  0.4663830000000  0.3819350000000 1.0
C      1  0.5477820000000  0.5440700000000  0.4867780000000 1.0
C      1  0.5699770000000  0.5869300000000  0.5125980000000 1.0
C      1  0.5576500000000  0.4035250000000  0.4949910000000 1.0
C      1  0.5619660000000  0.3925510000000  0.5205960000000 1.0
C      1  0.5206610000000  0.5633950000000  0.5920810000000 1.0
C      1  0.4505910000000  0.5994080000000  0.5391660000000 1.0
C      1  0.5607150000000  0.5357800000000  0.6022800000000 1.0
C      1  0.4364240000000  0.4630190000000  0.4327820000000 1.0
C      1  0.3407070000000  0.4237830000000  0.5128050000000 1.0
C      1  0.4742020000000  0.3932000000000  0.5040230000000 1.0
C      1  0.5864190000000  0.5493000000000  0.4443000000000 1.0
C      1  0.5659570000000  0.4624450000000  0.5676210000000 1.0
C      1  0.4877590000000  0.4838830000000  0.5395840000000 1.0
C      1  0.4436040000000  0.4524360000000  0.5139400000000 1.0
C      1  0.4253620000000  0.4846720000000  0.5701930000000 1.0
C      1  0.4725140000000  0.5684170000000  0.5722120000000 1.0
C      1  0.4328420000000  0.4236360000000  0.4708410000000 1.0
C      1  0.4723670000000  0.5398410000000  0.5756180000000 1.0
C      1  0.4727660000000  0.4665530000000  0.5819080000000 1.0
C      1  0.5994970000000  0.5898940000000  0.4734590000000 1.0
C      1  0.3742150000000  0.3872080000000  0.4917550000000 1.0
C      1  0.4476390000000  0.3969590000000  0.5159760000000 1.0
C      1  0.5036490000000  0.4771360000000  0.6220060000000 1.0
C      1  0.4383340000000  0.5320750000000  0.4069710000000 1.0
C      1  0.4478470000000  0.5057270000000  0.4091330000000 1.0
C      1  0.5516620000000  0.4392300000000  0.5782350000000 1.0
C      1  0.5585800000000  0.4145680000000  0.4302810000000 1.0
C      1  0.5378440000000  0.4619650000000  0.5254920000000 1.0
C      1  0.5346530000000  0.4986810000000  0.5581530000000 1.0
C      1  0.5014390000000  0.4239820000000  0.4750130000000 1.0
C      1  0.5567790000000  0.4639380000000  0.4167720000000 1.0
C      1  0.5526870000000  0.5653250000000  0.5053720000000 1.0
C      1  0.5234250000000  0.4582580000000  0.6147820000000 1.0
C      1  0.5664460000000  0.5238870000000  0.4957390000000 1.0
C      1  0.4697690000000  0.4843930000000  0.5596950000000 1.0
C      1  0.3823750000000  0.5169390000000  0.5180640000000 1.0
C      1  0.5678390000000  0.5800960000000  0.5818890000000 1.0
C      1  0.5575020000000  0.4890930000000  0.4008230000000 1.0
C      1  0.4432650000000  0.4916800000000  0.4347030000000 1.0
C      1  0.5055620000000  0.5981390000000  0.4942290000000 1.0
C      1  0.4448440000000  0.4963650000000  0.5544540000000 1.0
C      1  0.5508060000000  0.3914620000000  0.4460250000000 1.0
C      1  0.4609140000000  0.4286580000000  0.5546110000000 1.0
C      1  0.5293670000000  0.5563710000000  0.3976590000000 1.0
C      1  0.5258230000000  0.5167340000000  0.4489030000000 1.0
C      1  0.4870340000000  0.4761060000000  0.4754370000000 1.0
C      1  0.5801680000000  0.4569170000000  0.5415210000000 1.0
C      1  0.4370390000000  0.4502870000000  0.4073800000000 1.0
C      1  0.5044740000000  0.5107670000000  0.4313300000000 1.0
C      1  0.4249110000000  0.4108670000000  0.4972030000000 1.0
C      1  0.4397550000000  0.5369460000000  0.5207270000000 1.0
C      1  0.6042500000000  0.4702150000000  0.5352590000000 1.0
C      1  0.5280950000000  0.5414760000000  0.4644380000000 1.0
C      1  0.5080850000000  0.6030080000000  0.5632110000000 1.0
C      1  0.5054410000000  0.5279910000000  0.5331870000000 1.0
C      1  0.5099130000000  0.5012940000000  0.6346010000000 1.0
C      1  0.5136660000000  0.4708210000000  0.4848430000000 1.0
C      1  0.3924410000000  0.5238040000000  0.5790340000000 1.0
C      1  0.4424890000000  0.4761290000000  0.4995970000000 1.0
C      1  0.5269990000000  0.4409420000000  0.5927000000000 1.0
C      1  0.5688730000000  0.5120740000000  0.5884620000000 1.0
C      1  0.5416810000000  0.4897210000000  0.5317710000000 1.0
C      1  0.3993480000000  0.4740550000000  0.5688380000000 1.0
C      1  0.5973220000000  0.4436400000000  0.4324660000000 1.0
C      1  0.4964390000000  0.5259170000000  0.5811040000000 1.0
C      1  0.5183680000000  0.3759310000000  0.4827130000000 1.0
C      1  0.5028200000000  0.4292560000000  0.5827740000000 1.0
C      1  0.4768670000000  0.4385390000000  0.5757620000000 1.0
C      1  0.5619250000000  0.3973420000000  0.5469390000000 1.0
C      1  0.5570120000000  0.4901810000000  0.5746280000000 1.0
C      1  0.4013150000000  0.3935740000000  0.4943480000000 1.0
C      1  0.4885570000000  0.4678470000000  0.4483190000000 1.0
C      1  0.4490590000000  0.4358750000000  0.3882850000000 1.0
C      1  0.6154100000000  0.4904210000000  0.5217000000000 1.0
C      1  0.4685490000000  0.4970120000000  0.3909470000000 1.0
C      1  0.6029360000000  0.4575170000000  0.4549930000000 1.0
C      1  0.4507260000000  0.5042740000000  0.4609410000000 1.0
C      1  0.5137030000000  0.4920910000000  0.3714820000000 1.0
C      1  0.5598460000000  0.6051950000000  0.5316270000000 1.0
C      1  0.4447820000000  0.5307630000000  0.4718600000000 1.0
C      1  0.4146710000000  0.4278360000000  0.5426990000000 1.0
C      1  0.3995930000000  0.4469000000000  0.5586430000000 1.0
C      1  0.5205770000000  0.5254960000000  0.6256730000000 1.0
C      1  0.6122950000000  0.5102100000000  0.5039250000000 1.0
C      1  0.5096420000000  0.5384780000000  0.6028710000000 1.0
C      1  0.5143930000000  0.4470970000000  0.5275160000000 1.0
C      1  0.3836910000000  0.4977810000000  0.5751890000000 1.0
C      1  0.5612470000000  0.4322580000000  0.4928630000000 1.0
C      1  0.5535880000000  0.6072390000000  0.4748210000000 1.0
C      1  0.4122080000000  0.5734740000000  0.5044330000000 1.0
C      1  0.6151010000000  0.5991340000000  0.5697200000000 1.0
C      1  0.4966790000000  0.5727060000000  0.4851120000000 1.0
C      1  0.6022130000000  0.5433670000000  0.4681360000000 1.0
C      1  0.4554270000000  0.6147030000000  0.4892990000000 1.0
C      1  0.4713910000000  0.4306620000000  0.3742930000000 1.0
C      1  0.4087350000000  0.5456890000000  0.5756820000000 1.0
C      1  0.4477570000000  0.5558260000000  0.4147670000000 1.0
C      1  0.5558490000000  0.5938160000000  0.4492480000000 1.0
C      1  0.5364180000000  0.5322740000000  0.3874840000000 1.0
C      1  0.5480080000000  0.4686660000000  0.4434020000000 1.0
C      1  0.5360370000000  0.6176030000000  0.5226800000000 1.0
C      1  0.5129360000000  0.5174570000000  0.5590300000000 1.0
C      1  0.4858640000000  0.4763850000000  0.4023680000000 1.0
C      1  0.5499250000000  0.5606240000000  0.5905220000000 1.0
C      1  0.5484310000000  0.5302370000000  0.6275190000000 1.0
C      1  0.4935310000000  0.3736430000000  0.4944870000000 1.0
C      1  0.5677430000000  0.4789840000000  0.4868500000000 1.0
C      1  0.4873430000000  0.5073860000000  0.3702410000000 1.0
C      1  0.5159420000000  0.5737770000000  0.4135840000000 1.0
C      1  0.5941500000000  0.5249600000000  0.4881610000000 1.0
C      1  0.4240280000000  0.4944240000000  0.5101980000000 1.0
C      1  0.5836570000000  0.5297880000000  0.4243590000000 1.0
C      1  0.5203680000000  0.4441730000000  0.4748660000000 1.0
C      1  0.4802860000000  0.5566150000000  0.5018320000000 1.0
C      1  0.4794220000000  0.4751860000000  0.6077160000000 1.0
C      1  0.5624640000000  0.4477010000000  0.5191380000000 1.0
C      1  0.4171070000000  0.5386270000000  0.4687230000000 1.0
C      1  0.4927280000000  0.5302790000000  0.4168500000000 1.0
C      1  0.5515330000000  0.3672700000000  0.4325690000000 1.0
C      1  0.3552620000000  0.4047720000000  0.5025000000000 1.0
C      1  0.5112830000000  0.6143760000000  0.5378000000000 1.0
C      1  0.5718200000000  0.4385960000000  0.4204410000000 1.0
C      1  0.5425830000000  0.3898530000000  0.4742230000000 1.0
C      1  0.5577510000000  0.5081330000000  0.5175260000000 1.0
C      1  0.4687290000000  0.5671760000000  0.4265190000000 1.0
C      1  0.4483500000000  0.5787950000000  0.5590110000000 1.0
C      1  0.6149790000000  0.5674450000000  0.4766090000000 1.0
C      1  0.4956930000000  0.4420160000000  0.3709240000000 1.0
C      1  0.4957400000000  0.5772270000000  0.4360580000000 1.0
END
