TITL C-3866672-3872-369 0.00834491964813468 125000 -45.0037946052322 0 0 9 (C1) n - 1
REM
REM in /home/nfs/bkarasulu/CARBON/AIRSS/Generating-Clusters/LCBOP/Only-C1/SD-CG/FIRE-CG
REM
REM
REM
REM
REM
REM ./C.cell (11c1c37f851c82e70ff6c80c92926a4b)
REM AIRSS Version 0.9.1 bugfix July 2018 build 013d7b7c2542+ Fri, 06 Jul 2018 19:26:36 +0100
REM compiler GCC version 9.2.1 20190827 (Red Hat 9.2.1-1)
REM options -cpp -mtune=generic -march=x86-64 -g -O0 -fpre-include=/usr/include/finclude/math-vector-fortran.h
REM seed -1196591211 1549058071 -792414071 -1175572497 -833006159 1372682331 115440359 1091619946 642566570 -1268646360 1887336090 -1760972400 39641261 1371697122 -1979530100 1096844204 -240240030 -1956609678 -687541412 1169022668 59535998 -1723564035 -1838056451 -1874780239 130270764 -1196259258 -527813468 -752907199 -1545138503 -222948298 1758994258 37012151 -393891523
REM
CELL 1.54180   50.00000   50.00000   50.00000   90.00000   90.00000   90.00000
LATT -1
SFAC C  
C      1  0.5227090000000  0.4815570000000  0.5284470000000 1.0
C      1  0.5268550000000  0.4585370000000  0.5399410000000 1.0
C      1  0.5209460000000  0.5295940000000  0.5292000000000 1.0
C      1  0.4316590000000  0.5025780000000  0.4713250000000 1.0
C      1  0.5292130000000  0.5071190000000  0.4685950000000 1.0
C      1  0.5102810000000  0.5060200000000  0.4883170000000 1.0
C      1  0.5180780000000  0.5059880000000  0.5156670000000 1.0
C      1  0.4571710000000  0.5037230000000  0.4765640000000 1.0
C      1  0.4830870000000  0.5048840000000  0.4819440000000 1.0
END
