TITL C-3866673-4222-422 -94.1616878319868 125000 -742.792007606064 0 0 122 (C1) n - 1
REM
REM in /home/nfs/bkarasulu/CARBON/AIRSS/Generating-Clusters/LCBOP/Only-C1/SD-CG/FIRE-CG
REM
REM
REM
REM
REM
REM ./C.cell (11c1c37f851c82e70ff6c80c92926a4b)
REM AIRSS Version 0.9.1 bugfix July 2018 build 013d7b7c2542+ Fri, 06 Jul 2018 19:26:36 +0100
REM compiler GCC version 9.2.1 20190827 (Red Hat 9.2.1-1)
REM options -cpp -mtune=generic -march=x86-64 -g -O0 -fpre-include=/usr/include/finclude/math-vector-fortran.h
REM seed 1317796549 -1478181187 -335014405 1068357466 -1822042557 698180188 1151762059 1092969075 -1320210526 -1722620503 -2087378517 -1465958126 1508292490 519808597 31617710 -1952582815 1452812080 -2026321029 -114235128 -471392566 -80222981 -632632839 410136248 2057095244 1580398996 758130555 644000016 1992269987 -1289203683 -1623411822 149662305 -601879907 198322119
REM
CELL 1.54180   50.00000   50.00000   50.00000   90.00000   90.00000   90.00000
LATT -1
SFAC C  
C      1  0.4575270000000  0.5251150000000  0.5974430000000 1.0
C      1  0.5348880000000  0.5443960000000  0.6011680000000 1.0
C      1  0.5146360000000  0.4846440000000  0.4570390000000 1.0
C      1  0.4444410000000  0.4421520000000  0.5581890000000 1.0
C      1  0.5533460000000  0.4323020000000  0.4800070000000 1.0
C      1  0.5543940000000  0.4330470000000  0.5372780000000 1.0
C      1  0.4307480000000  0.4440880000000  0.4896210000000 1.0
C      1  0.4737050000000  0.5802030000000  0.4933370000000 1.0
C      1  0.5548790000000  0.5577060000000  0.5111700000000 1.0
C      1  0.6177610000000  0.5055680000000  0.4813330000000 1.0
C      1  0.5211010000000  0.5662660000000  0.5608900000000 1.0
C      1  0.5141360000000  0.4114590000000  0.5429350000000 1.0
C      1  0.4845260000000  0.3949210000000  0.4731720000000 1.0
C      1  0.5682430000000  0.4784450000000  0.4666360000000 1.0
C      1  0.5109990000000  0.3993620000000  0.4809910000000 1.0
C      1  0.4077140000000  0.4755270000000  0.5160170000000 1.0
C      1  0.4843770000000  0.4719020000000  0.3916260000000 1.0
C      1  0.5013430000000  0.5679180000000  0.5401510000000 1.0
C      1  0.5285220000000  0.4992650000000  0.4075560000000 1.0
C      1  0.4968120000000  0.5475810000000  0.5191630000000 1.0
C      1  0.4516990000000  0.5186260000000  0.4331710000000 1.0
C      1  0.4895830000000  0.5556930000000  0.4926870000000 1.0
C      1  0.4526830000000  0.5112780000000  0.5720470000000 1.0
C      1  0.4856470000000  0.5196190000000  0.5274950000000 1.0
C      1  0.4703990000000  0.4686500000000  0.5303220000000 1.0
C      1  0.4660640000000  0.4602680000000  0.4640520000000 1.0
C      1  0.4227660000000  0.5491520000000  0.5075920000000 1.0
C      1  0.5483310000000  0.4730120000000  0.5696300000000 1.0
C      1  0.4607300000000  0.5835600000000  0.5196790000000 1.0
C      1  0.5424360000000  0.5488860000000  0.4433860000000 1.0
C      1  0.4468900000000  0.4118230000000  0.5216590000000 1.0
C      1  0.4744000000000  0.4139580000000  0.5151420000000 1.0
C      1  0.4920150000000  0.4388300000000  0.5801310000000 1.0
C      1  0.4936230000000  0.4608280000000  0.5981280000000 1.0
C      1  0.5330830000000  0.5143690000000  0.5393360000000 1.0
C      1  0.5006800000000  0.4326080000000  0.4488900000000 1.0
C      1  0.5624450000000  0.5034570000000  0.4572270000000 1.0
C      1  0.5943560000000  0.5440780000000  0.4842030000000 1.0
C      1  0.5041900000000  0.5132520000000  0.4092050000000 1.0
C      1  0.4752610000000  0.5310590000000  0.4445590000000 1.0
C      1  0.5606750000000  0.5404010000000  0.5927290000000 1.0
C      1  0.4171320000000  0.5206880000000  0.4702740000000 1.0
C      1  0.5928630000000  0.5362190000000  0.4563670000000 1.0
C      1  0.4405040000000  0.5630090000000  0.5243120000000 1.0
C      1  0.4386850000000  0.4252010000000  0.4670980000000 1.0
C      1  0.4147010000000  0.4865120000000  0.4340840000000 1.0
C      1  0.4080950000000  0.5050770000000  0.4942210000000 1.0
C      1  0.5328370000000  0.4148110000000  0.4934540000000 1.0
C      1  0.4374700000000  0.4926280000000  0.5573010000000 1.0
C      1  0.4497690000000  0.4672060000000  0.4866650000000 1.0
C      1  0.4721690000000  0.5264520000000  0.5542170000000 1.0
C      1  0.4581560000000  0.4032230000000  0.4692500000000 1.0
C      1  0.5026290000000  0.6045540000000  0.4359700000000 1.0
C      1  0.3893200000000  0.4885990000000  0.4240660000000 1.0
C      1  0.5098720000000  0.5026840000000  0.5806460000000 1.0
C      1  0.5867370000000  0.5126340000000  0.5236610000000 1.0
C      1  0.5415080000000  0.5320580000000  0.5154270000000 1.0
C      1  0.5696820000000  0.4736290000000  0.4108830000000 1.0
C      1  0.4956250000000  0.5794400000000  0.4459200000000 1.0
C      1  0.5426650000000  0.4771870000000  0.4182730000000 1.0
C      1  0.4656540000000  0.5753360000000  0.5737380000000 1.0
C      1  0.4651500000000  0.4297670000000  0.5738400000000 1.0
C      1  0.6117370000000  0.5132380000000  0.4536480000000 1.0
C      1  0.4175890000000  0.5007230000000  0.5380130000000 1.0
C      1  0.5341650000000  0.4979900000000  0.5650720000000 1.0
C      1  0.5546230000000  0.5774710000000  0.5307300000000 1.0
C      1  0.4275140000000  0.5094100000000  0.4459900000000 1.0
C      1  0.5650490000000  0.5309340000000  0.4487530000000 1.0
C      1  0.4913120000000  0.4477830000000  0.4009180000000 1.0
C      1  0.5492060000000  0.5679300000000  0.5560410000000 1.0
C      1  0.4655270000000  0.5086450000000  0.5089080000000 1.0
C      1  0.4521040000000  0.4685680000000  0.5519770000000 1.0
C      1  0.5691820000000  0.4896600000000  0.5191410000000 1.0
C      1  0.4601050000000  0.5219760000000  0.4862300000000 1.0
C      1  0.4564920000000  0.5091590000000  0.4067740000000 1.0
C      1  0.4383300000000  0.5699900000000  0.4612530000000 1.0
C      1  0.5173120000000  0.5048880000000  0.4744200000000 1.0
C      1  0.5141440000000  0.5561680000000  0.4385720000000 1.0
C      1  0.5778760000000  0.4322760000000  0.4954870000000 1.0
C      1  0.6110250000000  0.4965050000000  0.4311780000000 1.0
C      1  0.4306250000000  0.4312470000000  0.5348980000000 1.0
C      1  0.4137170000000  0.5232680000000  0.5176010000000 1.0
C      1  0.4174730000000  0.4487860000000  0.5148360000000 1.0
C      1  0.4465740000000  0.4458520000000  0.4470970000000 1.0
C      1  0.5099460000000  0.6286680000000  0.4277980000000 1.0
C      1  0.5150690000000  0.4318160000000  0.5641700000000 1.0
C      1  0.4240290000000  0.5801580000000  0.4398840000000 1.0
C      1  0.6028600000000  0.5213330000000  0.5009780000000 1.0
C      1  0.4743660000000  0.5064680000000  0.6125200000000 1.0
C      1  0.5709090000000  0.4740540000000  0.5853900000000 1.0
C      1  0.4943350000000  0.4888920000000  0.6002950000000 1.0
C      1  0.5091700000000  0.5017910000000  0.5279700000000 1.0
C      1  0.4247770000000  0.5493370000000  0.4779950000000 1.0
C      1  0.4986520000000  0.4331660000000  0.4221000000000 1.0
C      1  0.4516110000000  0.5465810000000  0.5443810000000 1.0
C      1  0.4948640000000  0.4575890000000  0.5191810000000 1.0
C      1  0.5947930000000  0.4818220000000  0.4156480000000 1.0
C      1  0.5456070000000  0.4759290000000  0.5148370000000 1.0
C      1  0.5349070000000  0.4157750000000  0.5232860000000 1.0
C      1  0.4597220000000  0.5549090000000  0.5926100000000 1.0
C      1  0.5404820000000  0.4470970000000  0.5594550000000 1.0
C      1  0.4655790000000  0.5809410000000  0.4656170000000 1.0
C      1  0.5305870000000  0.5213630000000  0.4908410000000 1.0
C      1  0.4976100000000  0.5278890000000  0.5737270000000 1.0
C      1  0.5784270000000  0.4351640000000  0.5226400000000 1.0
C      1  0.5823230000000  0.5297160000000  0.5473330000000 1.0
C      1  0.5515190000000  0.4551580000000  0.4621310000000 1.0
C      1  0.4880080000000  0.4364110000000  0.5008030000000 1.0
C      1  0.5166830000000  0.4757690000000  0.5186880000000 1.0
C      1  0.5324210000000  0.4668750000000  0.4435310000000 1.0
C      1  0.4882380000000  0.4437120000000  0.4718630000000 1.0
C      1  0.4986240000000  0.5339580000000  0.4284740000000 1.0
C      1  0.4287280000000  0.4619700000000  0.4327540000000 1.0
C      1  0.4766100000000  0.5825200000000  0.5461210000000 1.0
C      1  0.4784250000000  0.5373030000000  0.4722840000000 1.0
C      1  0.4814190000000  0.4990110000000  0.3984890000000 1.0
C      1  0.5173750000000  0.6524360000000  0.4200830000000 1.0
C      1  0.5673970000000  0.5469300000000  0.5657560000000 1.0
C      1  0.5138350000000  0.5494670000000  0.5823700000000 1.0
C      1  0.4910840000000  0.3997200000000  0.5329770000000 1.0
C      1  0.4591270000000  0.4820620000000  0.5082750000000 1.0
C      1  0.5749220000000  0.5615880000000  0.4925520000000 1.0
END
