TITL C-3866676-3738-628 0.0575191890257829 125000 -702.619379352159 0 0 117 (C1) n - 1
REM
REM in /home/nfs/bkarasulu/CARBON/AIRSS/Generating-Clusters/LCBOP/Only-C1/SD-CG/FIRE-CG
REM
REM
REM
REM
REM
REM ./C.cell (11c1c37f851c82e70ff6c80c92926a4b)
REM AIRSS Version 0.9.1 bugfix July 2018 build 013d7b7c2542+ Fri, 06 Jul 2018 19:26:36 +0100
REM compiler GCC version 9.2.1 20190827 (Red Hat 9.2.1-1)
REM options -cpp -mtune=generic -march=x86-64 -g -O0 -fpre-include=/usr/include/finclude/math-vector-fortran.h
REM seed 1550589987 -27002939 507693747 1164957111 517937620 1041263510 864601640 -1100127581 1504197408 -849453769 1482372621 -280649335 597592318 2000601127 661334445 -1710553436 2034127591 -2017504219 1185816833 517724076 496294408 1220672045 1992047227 -1670617300 -404778876 1477109202 1065045741 2142877603 1031833063 868452393 74631837 -400883239 1074593426
REM
CELL 1.54180   50.00000   50.00000   50.00000   90.00000   90.00000   90.00000
LATT -1
SFAC C  
C      1  0.5185780000000  0.5538650000000  0.4115080000000 1.0
C      1  0.5229020000000  0.4925850000000  0.4389210000000 1.0
C      1  0.5808000000000  0.5201230000000  0.4981170000000 1.0
C      1  0.4707830000000  0.5104990000000  0.5456410000000 1.0
C      1  0.4240770000000  0.5252430000000  0.4952380000000 1.0
C      1  0.4636500000000  0.5420640000000  0.4756120000000 1.0
C      1  0.5213240000000  0.4470220000000  0.4192540000000 1.0
C      1  0.5245240000000  0.4571780000000  0.5177850000000 1.0
C      1  0.5049670000000  0.6180880000000  0.5536770000000 1.0
C      1  0.5867090000000  0.4866550000000  0.5386080000000 1.0
C      1  0.4943350000000  0.5409290000000  0.4032890000000 1.0
C      1  0.5167540000000  0.4799470000000  0.5323420000000 1.0
C      1  0.5234150000000  0.5422490000000  0.5686840000000 1.0
C      1  0.5000820000000  0.6406790000000  0.5401610000000 1.0
C      1  0.5270150000000  0.4582060000000  0.4894860000000 1.0
C      1  0.4887090000000  0.5531330000000  0.4679830000000 1.0
C      1  0.5890050000000  0.5011090000000  0.5147860000000 1.0
C      1  0.5249990000000  0.5913120000000  0.4816240000000 1.0
C      1  0.4737340000000  0.4945460000000  0.4233870000000 1.0
C      1  0.5762510000000  0.4390880000000  0.5173270000000 1.0
C      1  0.5137050000000  0.4001670000000  0.4930530000000 1.0
C      1  0.5040630000000  0.5903120000000  0.5516450000000 1.0
C      1  0.4670680000000  0.4732840000000  0.5137650000000 1.0
C      1  0.4827060000000  0.4192080000000  0.5542240000000 1.0
C      1  0.6575220000000  0.5054130000000  0.6021100000000 1.0
C      1  0.5643030000000  0.5147340000000  0.5747030000000 1.0
C      1  0.4724150000000  0.4992630000000  0.5706730000000 1.0
C      1  0.5276120000000  0.5737820000000  0.5316840000000 1.0
C      1  0.5623880000000  0.4815690000000  0.4599560000000 1.0
C      1  0.4267550000000  0.4466280000000  0.5356510000000 1.0
C      1  0.6345970000000  0.5045750000000  0.5897250000000 1.0
C      1  0.5700260000000  0.4386060000000  0.4881860000000 1.0
C      1  0.4456530000000  0.4987370000000  0.4269360000000 1.0
C      1  0.3920450000000  0.4925980000000  0.5005370000000 1.0
C      1  0.5218780000000  0.4496710000000  0.5718540000000 1.0
C      1  0.5311320000000  0.4321970000000  0.5293600000000 1.0
C      1  0.4230970000000  0.5055580000000  0.5695300000000 1.0
C      1  0.5108840000000  0.4210400000000  0.4282910000000 1.0
C      1  0.4154900000000  0.5253700000000  0.5485760000000 1.0
C      1  0.5331480000000  0.5246670000000  0.5269080000000 1.0
C      1  0.5869230000000  0.5017460000000  0.5634330000000 1.0
C      1  0.5366470000000  0.5195760000000  0.5796590000000 1.0
C      1  0.4565850000000  0.4962580000000  0.5260210000000 1.0
C      1  0.4996730000000  0.5139140000000  0.4934780000000 1.0
C      1  0.4656550000000  0.4714200000000  0.4859920000000 1.0
C      1  0.4184420000000  0.4780820000000  0.5606410000000 1.0
C      1  0.4522060000000  0.5684200000000  0.5635660000000 1.0
C      1  0.5171020000000  0.4759710000000  0.5611630000000 1.0
C      1  0.4278670000000  0.5128250000000  0.5959660000000 1.0
C      1  0.4368060000000  0.4882270000000  0.4518370000000 1.0
C      1  0.5616940000000  0.4806440000000  0.4113450000000 1.0
C      1  0.4832000000000  0.4615090000000  0.4672520000000 1.0
C      1  0.4446200000000  0.4302420000000  0.5191930000000 1.0
C      1  0.4023270000000  0.4643570000000  0.4977420000000 1.0
C      1  0.4935230000000  0.5126500000000  0.4094220000000 1.0
C      1  0.5366670000000  0.5484360000000  0.4900370000000 1.0
C      1  0.6113250000000  0.5036500000000  0.5770990000000 1.0
C      1  0.6036440000000  0.4680740000000  0.4354500000000 1.0
C      1  0.4426960000000  0.4309060000000  0.4886180000000 1.0
C      1  0.4287730000000  0.5341590000000  0.3931710000000 1.0
C      1  0.5539970000000  0.4612120000000  0.4787550000000 1.0
C      1  0.5775960000000  0.4761200000000  0.4357120000000 1.0
C      1  0.5110200000000  0.4678680000000  0.4344840000000 1.0
C      1  0.4940740000000  0.6452290000000  0.5143550000000 1.0
C      1  0.4744110000000  0.5577310000000  0.5219710000000 1.0
C      1  0.4952230000000  0.4195550000000  0.4849520000000 1.0
C      1  0.5561080000000  0.4080150000000  0.4490520000000 1.0
C      1  0.4720620000000  0.5146660000000  0.4810820000000 1.0
C      1  0.5013690000000  0.4305850000000  0.5696580000000 1.0
C      1  0.5601300000000  0.4129080000000  0.4767820000000 1.0
C      1  0.4343670000000  0.5068680000000  0.5124300000000 1.0
C      1  0.4827110000000  0.4167530000000  0.4408530000000 1.0
C      1  0.4401650000000  0.5481700000000  0.4913130000000 1.0
C      1  0.5406670000000  0.3980870000000  0.4918220000000 1.0
C      1  0.4330220000000  0.5515190000000  0.5448380000000 1.0
C      1  0.4393290000000  0.5320290000000  0.6435210000000 1.0
C      1  0.5349150000000  0.5744930000000  0.5031210000000 1.0
C      1  0.4970810000000  0.5732860000000  0.4506380000000 1.0
C      1  0.4827510000000  0.5738640000000  0.5655310000000 1.0
C      1  0.3964700000000  0.4780320000000  0.5431910000000 1.0
C      1  0.4856600000000  0.5805650000000  0.5084440000000 1.0
C      1  0.5338710000000  0.5481900000000  0.5426830000000 1.0
C      1  0.5492310000000  0.4443140000000  0.5772290000000 1.0
C      1  0.5151770000000  0.5047110000000  0.5170660000000 1.0
C      1  0.5330770000000  0.4042750000000  0.4350410000000 1.0
C      1  0.5208960000000  0.4965100000000  0.5797780000000 1.0
C      1  0.4209980000000  0.4508380000000  0.4792630000000 1.0
C      1  0.5044060000000  0.4461630000000  0.4779320000000 1.0
C      1  0.4458440000000  0.5567630000000  0.5182360000000 1.0
C      1  0.4735460000000  0.5538700000000  0.3900050000000 1.0
C      1  0.4825800000000  0.5362370000000  0.5414320000000 1.0
C      1  0.5110470000000  0.5382710000000  0.4814450000000 1.0
C      1  0.5382870000000  0.5535690000000  0.4332320000000 1.0
C      1  0.5209060000000  0.5042310000000  0.4119270000000 1.0
C      1  0.4991920000000  0.6004570000000  0.4922990000000 1.0
C      1  0.4839930000000  0.4720400000000  0.4402710000000 1.0
C      1  0.3940950000000  0.5035460000000  0.5286220000000 1.0
C      1  0.5499320000000  0.5094150000000  0.4084590000000 1.0
C      1  0.4027790000000  0.4559670000000  0.5253130000000 1.0
C      1  0.4541900000000  0.4941500000000  0.4735620000000 1.0
C      1  0.4332200000000  0.5222340000000  0.6201470000000 1.0
C      1  0.4473460000000  0.5517230000000  0.3851470000000 1.0
C      1  0.5728210000000  0.4489390000000  0.5648190000000 1.0
C      1  0.5822550000000  0.4583240000000  0.5391480000000 1.0
C      1  0.5446660000000  0.4569930000000  0.4048340000000 1.0
C      1  0.5618850000000  0.5363640000000  0.4888170000000 1.0
C      1  0.5451150000000  0.5044110000000  0.4538600000000 1.0
C      1  0.4293950000000  0.5129990000000  0.4094650000000 1.0
C      1  0.4952950000000  0.5473220000000  0.5654820000000 1.0
C      1  0.5561810000000  0.4217140000000  0.5292750000000 1.0
C      1  0.5530680000000  0.5267890000000  0.4343820000000 1.0
C      1  0.4654420000000  0.4180260000000  0.5338320000000 1.0
C      1  0.5252940000000  0.5789830000000  0.4539920000000 1.0
C      1  0.4700080000000  0.4177310000000  0.4694960000000 1.0
C      1  0.4222890000000  0.4634900000000  0.4534370000000 1.0
C      1  0.4101900000000  0.4522270000000  0.4316710000000 1.0
C      1  0.4928840000000  0.6276960000000  0.4940130000000 1.0
END
