TITL C-3866670-4165-279 9.48238633934005 125000 -856.293967281022 0 0 141 (C1) n - 1
REM
REM in /home/nfs/bkarasulu/CARBON/AIRSS/Generating-Clusters/LCBOP/Only-C1/SD-CG/FIRE-CG
REM
REM
REM
REM
REM
REM ./C.cell (11c1c37f851c82e70ff6c80c92926a4b)
REM AIRSS Version 0.9.1 bugfix July 2018 build 013d7b7c2542+ Fri, 06 Jul 2018 19:26:36 +0100
REM compiler GCC version 9.2.1 20190827 (Red Hat 9.2.1-1)
REM options -cpp -mtune=generic -march=x86-64 -g -O0 -fpre-include=/usr/include/finclude/math-vector-fortran.h
REM seed -985603963 -1406309765 960125844 -274430352 178246841 -1239312533 -1871216067 -1475546903 817996180 -998494236 -1142343020 -794092167 -1247198897 360264603 198669590 -1952091534 -1828273635 -2146058132 -1984647486 -2069261628 2022328689 92292761 -330068395 -1393036784 -1157312022 1525520804 45030352 -270014771 1542992561 229035954 990479307 -1398069572 500994405
REM
CELL 1.54180   50.00000   50.00000   50.00000   90.00000   90.00000   90.00000
LATT -1
SFAC C  
C      1  0.5067530000000  0.4231860000000  0.4911200000000 1.0
C      1  0.4279370000000  0.4703840000000  0.4203380000000 1.0
C      1  0.4399610000000  0.5532240000000  0.5767290000000 1.0
C      1  0.4192550000000  0.5691900000000  0.4712590000000 1.0
C      1  0.5753440000000  0.4808960000000  0.4321150000000 1.0
C      1  0.4951260000000  0.5131970000000  0.4320300000000 1.0
C      1  0.5093440000000  0.5399670000000  0.4926190000000 1.0
C      1  0.4714970000000  0.5234520000000  0.4411990000000 1.0
C      1  0.5536010000000  0.5519270000000  0.5012830000000 1.0
C      1  0.5907150000000  0.5689630000000  0.5274210000000 1.0
C      1  0.4249080000000  0.4993440000000  0.4754800000000 1.0
C      1  0.5103730000000  0.5765430000000  0.4135940000000 1.0
C      1  0.4105160000000  0.4523130000000  0.4288220000000 1.0
C      1  0.5072370000000  0.4875190000000  0.3885970000000 1.0
C      1  0.5384050000000  0.4009450000000  0.5245440000000 1.0
C      1  0.4275230000000  0.5632630000000  0.5450250000000 1.0
C      1  0.4040980000000  0.5438760000000  0.4729670000000 1.0
C      1  0.4550130000000  0.4602520000000  0.5166230000000 1.0
C      1  0.5651460000000  0.5036380000000  0.5814890000000 1.0
C      1  0.5330190000000  0.5628350000000  0.4007040000000 1.0
C      1  0.4031620000000  0.4868980000000  0.4928250000000 1.0
C      1  0.4739990000000  0.5358380000000  0.5505730000000 1.0
C      1  0.4151960000000  0.5171170000000  0.5279830000000 1.0
C      1  0.5690980000000  0.4589790000000  0.4495360000000 1.0
C      1  0.4662460000000  0.5624610000000  0.5134320000000 1.0
C      1  0.4551350000000  0.3882030000000  0.4905160000000 1.0
C      1  0.5171760000000  0.4916680000000  0.6003590000000 1.0
C      1  0.4155750000000  0.4354870000000  0.5115940000000 1.0
C      1  0.5948440000000  0.5458870000000  0.4490180000000 1.0
C      1  0.6013220000000  0.4776800000000  0.5569810000000 1.0
C      1  0.4744950000000  0.4318570000000  0.4284780000000 1.0
C      1  0.4903690000000  0.4240790000000  0.6033850000000 1.0
C      1  0.5491280000000  0.4427820000000  0.4372780000000 1.0
C      1  0.5384940000000  0.5095120000000  0.5913480000000 1.0
C      1  0.5268340000000  0.5405420000000  0.5561200000000 1.0
C      1  0.4494110000000  0.5048050000000  0.4907330000000 1.0
C      1  0.5877840000000  0.4289690000000  0.5581000000000 1.0
C      1  0.5282450000000  0.5371880000000  0.3888080000000 1.0
C      1  0.3998910000000  0.4590250000000  0.5015620000000 1.0
C      1  0.4857110000000  0.5558080000000  0.5335990000000 1.0
C      1  0.4809490000000  0.4043630000000  0.5850810000000 1.0
C      1  0.4420230000000  0.4411530000000  0.5008430000000 1.0
C      1  0.4226160000000  0.4228150000000  0.5389090000000 1.0
C      1  0.5420270000000  0.6136480000000  0.5098400000000 1.0
C      1  0.5717850000000  0.5540380000000  0.4334920000000 1.0
C      1  0.5500600000000  0.5055430000000  0.5272920000000 1.0
C      1  0.5789070000000  0.4928590000000  0.4808770000000 1.0
C      1  0.5111430000000  0.5497760000000  0.6011060000000 1.0
C      1  0.4654020000000  0.4507070000000  0.5780460000000 1.0
C      1  0.4851280000000  0.4944670000000  0.5217510000000 1.0
C      1  0.4418090000000  0.5137010000000  0.5182090000000 1.0
C      1  0.5547690000000  0.5069960000000  0.4837080000000 1.0
C      1  0.4250010000000  0.5278430000000  0.4329970000000 1.0
C      1  0.5965980000000  0.4530500000000  0.5693740000000 1.0
C      1  0.5874340000000  0.5026700000000  0.5633800000000 1.0
C      1  0.3869440000000  0.5340690000000  0.4936730000000 1.0
C      1  0.4193410000000  0.4416850000000  0.5610750000000 1.0
C      1  0.4819420000000  0.5696350000000  0.4502570000000 1.0
C      1  0.3943790000000  0.4338710000000  0.4377100000000 1.0
C      1  0.5487460000000  0.4708320000000  0.5226350000000 1.0
C      1  0.4380940000000  0.4743880000000  0.5343640000000 1.0
C      1  0.3950560000000  0.5107910000000  0.5087890000000 1.0
C      1  0.5708510000000  0.5732830000000  0.5083860000000 1.0
C      1  0.4661150000000  0.4977600000000  0.6004610000000 1.0
C      1  0.4384430000000  0.4423500000000  0.5820080000000 1.0
C      1  0.5307200000000  0.5627780000000  0.4583380000000 1.0
C      1  0.4794140000000  0.4385600000000  0.5557340000000 1.0
C      1  0.5357290000000  0.4543860000000  0.4149480000000 1.0
C      1  0.5455610000000  0.4017580000000  0.5519270000000 1.0
C      1  0.5632430000000  0.5994660000000  0.5015810000000 1.0
C      1  0.4702650000000  0.4107890000000  0.5579630000000 1.0
C      1  0.4882220000000  0.4988610000000  0.3474310000000 1.0
C      1  0.5292160000000  0.5362450000000  0.5845450000000 1.0
C      1  0.4629430000000  0.5817220000000  0.4319680000000 1.0
C      1  0.4839670000000  0.4642750000000  0.5172610000000 1.0
C      1  0.4723580000000  0.5453460000000  0.4608840000000 1.0
C      1  0.5372080000000  0.4208690000000  0.4493760000000 1.0
C      1  0.6012690000000  0.5092470000000  0.4891940000000 1.0
C      1  0.4902530000000  0.4810170000000  0.6033040000000 1.0
C      1  0.4804250000000  0.5027120000000  0.4916220000000 1.0
C      1  0.5160160000000  0.6140180000000  0.5977770000000 1.0
C      1  0.5676460000000  0.3850210000000  0.4882850000000 1.0
C      1  0.5212490000000  0.5123120000000  0.3775080000000 1.0
C      1  0.5644970000000  0.4541760000000  0.5027720000000 1.0
C      1  0.5071720000000  0.4998750000000  0.5398270000000 1.0
C      1  0.4452790000000  0.4904120000000  0.4112810000000 1.0
C      1  0.4645540000000  0.5131460000000  0.5352750000000 1.0
C      1  0.5474930000000  0.5444160000000  0.4450340000000 1.0
C      1  0.6075820000000  0.5061100000000  0.5179540000000 1.0
C      1  0.5939900000000  0.4266790000000  0.5304820000000 1.0
C      1  0.5171040000000  0.5903780000000  0.5488990000000 1.0
C      1  0.4259620000000  0.5272180000000  0.5777230000000 1.0
C      1  0.4128580000000  0.5295280000000  0.5523120000000 1.0
C      1  0.5117850000000  0.5628270000000  0.5439110000000 1.0
C      1  0.5232200000000  0.6079790000000  0.5279530000000 1.0
C      1  0.4990350000000  0.4518380000000  0.5401910000000 1.0
C      1  0.4959820000000  0.4491720000000  0.4941750000000 1.0
C      1  0.5746940000000  0.4283780000000  0.5100380000000 1.0
C      1  0.4814280000000  0.5851360000000  0.4082430000000 1.0
C      1  0.4470870000000  0.4050370000000  0.5403300000000 1.0
C      1  0.5117350000000  0.5131080000000  0.3498050000000 1.0
C      1  0.5274210000000  0.4573500000000  0.5377760000000 1.0
C      1  0.4253150000000  0.5803180000000  0.4968370000000 1.0
C      1  0.5155410000000  0.6262870000000  0.6207730000000 1.0
C      1  0.5133170000000  0.4070980000000  0.5134910000000 1.0
C      1  0.4851270000000  0.5539130000000  0.5962280000000 1.0
C      1  0.4672440000000  0.5482330000000  0.5756570000000 1.0
C      1  0.4818630000000  0.4867970000000  0.3726840000000 1.0
C      1  0.5161740000000  0.6007620000000  0.5748330000000 1.0
C      1  0.5298540000000  0.5577860000000  0.4862360000000 1.0
C      1  0.5735170000000  0.4652630000000  0.4775390000000 1.0
C      1  0.4154790000000  0.5215890000000  0.4586930000000 1.0
C      1  0.4578830000000  0.4871880000000  0.3865830000000 1.0
C      1  0.4517010000000  0.3893570000000  0.5170480000000 1.0
C      1  0.5093730000000  0.5730010000000  0.4429820000000 1.0
C      1  0.5602000000000  0.4042460000000  0.5061150000000 1.0
C      1  0.4585910000000  0.3975520000000  0.4657010000000 1.0
C      1  0.5293780000000  0.5155420000000  0.5426110000000 1.0
C      1  0.4350050000000  0.5751870000000  0.4400930000000 1.0
C      1  0.5611150000000  0.5669210000000  0.4094540000000 1.0
C      1  0.6138710000000  0.4806370000000  0.5308240000000 1.0
C      1  0.4485220000000  0.5139930000000  0.4268420000000 1.0
C      1  0.5560860000000  0.5236820000000  0.5062780000000 1.0
C      1  0.5055750000000  0.5138250000000  0.4815780000000 1.0
C      1  0.5656620000000  0.4131930000000  0.5660610000000 1.0
C      1  0.5112420000000  0.4648970000000  0.4058900000000 1.0
C      1  0.4174780000000  0.4680140000000  0.5506850000000 1.0
C      1  0.5583460000000  0.5012850000000  0.4271720000000 1.0
C      1  0.4840090000000  0.4527860000000  0.6000080000000 1.0
C      1  0.6051430000000  0.5311390000000  0.4700630000000 1.0
C      1  0.5179540000000  0.4154320000000  0.4667900000000 1.0
C      1  0.5987880000000  0.5488400000000  0.5428040000000 1.0
C      1  0.4229340000000  0.5547270000000  0.4242600000000 1.0
C      1  0.4418960000000  0.5074040000000  0.5915590000000 1.0
C      1  0.4393220000000  0.5715730000000  0.5204950000000 1.0
C      1  0.5969920000000  0.5211370000000  0.5418270000000 1.0
C      1  0.5409040000000  0.5169980000000  0.4428170000000 1.0
C      1  0.5306990000000  0.5063510000000  0.4678760000000 1.0
C      1  0.4644730000000  0.4134400000000  0.4450330000000 1.0
C      1  0.4666550000000  0.5492610000000  0.4882060000000 1.0
C      1  0.4887430000000  0.4502100000000  0.4152930000000 1.0
END
