TITL C-3866669-3764-165 2.74510804870321e-05 125000 -481.410467662529 0 0 80 (C1) n - 1
REM
REM in /home/nfs/bkarasulu/CARBON/AIRSS/Generating-Clusters/LCBOP/Only-C1/SD-CG/HFTN-CG/FIRE-CG
REM
REM
REM
REM
REM
REM ./C.cell (11c1c37f851c82e70ff6c80c92926a4b)
REM AIRSS Version 0.9.1 bugfix July 2018 build 013d7b7c2542+ Fri, 06 Jul 2018 19:26:36 +0100
REM compiler GCC version 9.2.1 20190827 (Red Hat 9.2.1-1)
REM options -cpp -mtune=generic -march=x86-64 -g -O0 -fpre-include=/usr/include/finclude/math-vector-fortran.h
REM seed -1595772958 -2080509277 -1912076768 1610606433 -1104014428 -1173090437 2111407690 81470031 399185991 22007305 1332678759 -580585403 1599049090 -499332181 -523013762 1523707084 -2085749966 2133472862 1751280095 1835404529 -323226804 -177779489 735023559 207684880 2055844621 1117395634 1401792768 -506673385 1065020973 239592949 1988620850 1052822616 1785845146
REM
CELL 1.54180   50.00000   50.00000   50.00000   90.00000   90.00000   90.00000
LATT -1
SFAC C  
C      1  0.5411090000000  0.5169100000000  0.4185710000000 1.0
C      1  0.5089630000000  0.5139370000000  0.5368240000000 1.0
C      1  0.4477290000000  0.5338970000000  0.5626000000000 1.0
C      1  0.4717920000000  0.4732920000000  0.4841350000000 1.0
C      1  0.5137680000000  0.5119000000000  0.4149740000000 1.0
C      1  0.4941620000000  0.5841810000000  0.5215980000000 1.0
C      1  0.4703470000000  0.5349460000000  0.5212990000000 1.0
C      1  0.5347070000000  0.5143780000000  0.5892330000000 1.0
C      1  0.4370480000000  0.4945790000000  0.5108170000000 1.0
C      1  0.4957630000000  0.5458850000000  0.5682440000000 1.0
C      1  0.5519760000000  0.5282630000000  0.5438680000000 1.0
C      1  0.4075950000000  0.5405430000000  0.4963190000000 1.0
C      1  0.5422300000000  0.5352440000000  0.5702750000000 1.0
C      1  0.4943900000000  0.4906640000000  0.4795020000000 1.0
C      1  0.4423320000000  0.4507730000000  0.4133570000000 1.0
C      1  0.5503700000000  0.4524710000000  0.5338550000000 1.0
C      1  0.5519020000000  0.5178170000000  0.4446550000000 1.0
C      1  0.5219990000000  0.4238290000000  0.5111700000000 1.0
C      1  0.5415990000000  0.4302190000000  0.4368380000000 1.0
C      1  0.4475180000000  0.5042760000000  0.5664200000000 1.0
C      1  0.4867630000000  0.4720210000000  0.4129240000000 1.0
C      1  0.5992200000000  0.4546240000000  0.5343210000000 1.0
C      1  0.5675080000000  0.5435150000000  0.4837360000000 1.0
C      1  0.5355910000000  0.4918710000000  0.5105290000000 1.0
C      1  0.6025850000000  0.4618150000000  0.5085320000000 1.0
C      1  0.5844850000000  0.5207380000000  0.4871520000000 1.0
C      1  0.4385860000000  0.4495490000000  0.5453660000000 1.0
C      1  0.5344630000000  0.5176270000000  0.5235490000000 1.0
C      1  0.4991470000000  0.5172650000000  0.4382710000000 1.0
C      1  0.4217710000000  0.4916190000000  0.5640090000000 1.0
C      1  0.5065690000000  0.5067460000000  0.5924690000000 1.0
C      1  0.5461950000000  0.4386080000000  0.5085510000000 1.0
C      1  0.4313960000000  0.5375270000000  0.4834380000000 1.0
C      1  0.5283480000000  0.5603800000000  0.4603670000000 1.0
C      1  0.4911010000000  0.5150970000000  0.4648890000000 1.0
C      1  0.4899380000000  0.5332920000000  0.5420710000000 1.0
C      1  0.5395240000000  0.4697400000000  0.4664420000000 1.0
C      1  0.4707110000000  0.5773390000000  0.5386820000000 1.0
C      1  0.5214640000000  0.4840460000000  0.4865690000000 1.0
C      1  0.4612160000000  0.5502180000000  0.4517540000000 1.0
C      1  0.4232980000000  0.4425690000000  0.4304640000000 1.0
C      1  0.5616470000000  0.5643540000000  0.5020050000000 1.0
C      1  0.4553070000000  0.4297040000000  0.5015170000000 1.0
C      1  0.5015980000000  0.4920850000000  0.3991880000000 1.0
C      1  0.4388240000000  0.4326480000000  0.5227440000000 1.0
C      1  0.5554200000000  0.4092640000000  0.4298380000000 1.0
C      1  0.5120520000000  0.4876400000000  0.5497370000000 1.0
C      1  0.4583210000000  0.5367590000000  0.4961130000000 1.0
C      1  0.5753770000000  0.4506540000000  0.5463950000000 1.0
C      1  0.5226080000000  0.5567100000000  0.5698560000000 1.0
C      1  0.4315110000000  0.5167530000000  0.4352720000000 1.0
C      1  0.5806600000000  0.4944270000000  0.4769220000000 1.0
C      1  0.5020790000000  0.4263490000000  0.5295320000000 1.0
C      1  0.5093770000000  0.5753540000000  0.4722640000000 1.0
C      1  0.5585540000000  0.4931740000000  0.4577460000000 1.0
C      1  0.4690280000000  0.4829480000000  0.5678640000000 1.0
C      1  0.5496650000000  0.5416490000000  0.4609760000000 1.0
C      1  0.4582960000000  0.4740020000000  0.4139670000000 1.0
C      1  0.4348820000000  0.5376890000000  0.4539110000000 1.0
C      1  0.5582270000000  0.4529940000000  0.4860820000000 1.0
C      1  0.4647110000000  0.4566400000000  0.5552220000000 1.0
C      1  0.4539960000000  0.5597320000000  0.5531120000000 1.0
C      1  0.4245160000000  0.4703410000000  0.4720560000000 1.0
C      1  0.4901420000000  0.5302700000000  0.5916380000000 1.0
C      1  0.4157900000000  0.4526060000000  0.4541490000000 1.0
C      1  0.4445670000000  0.4980430000000  0.4208730000000 1.0
C      1  0.4939820000000  0.5831540000000  0.4930810000000 1.0
C      1  0.5440000000000  0.5803070000000  0.5146730000000 1.0
C      1  0.4446400000000  0.4822630000000  0.4877150000000 1.0
C      1  0.4728790000000  0.4451260000000  0.4877330000000 1.0
C      1  0.5270380000000  0.4528630000000  0.4450120000000 1.0
C      1  0.5023800000000  0.4578770000000  0.4319740000000 1.0
C      1  0.5834540000000  0.4685910000000  0.4891650000000 1.0
C      1  0.5216040000000  0.5860170000000  0.5314560000000 1.0
C      1  0.4860750000000  0.4395880000000  0.5467820000000 1.0
C      1  0.4760630000000  0.5372400000000  0.4732400000000 1.0
C      1  0.4178550000000  0.4664460000000  0.5544730000000 1.0
C      1  0.4968710000000  0.4873470000000  0.5735830000000 1.0
C      1  0.5326170000000  0.4741800000000  0.5346350000000 1.0
C      1  0.5262090000000  0.5820000000000  0.5588590000000 1.0
END
