TITL C-3866676-3738-412 -4138.70186901505 125000 -732.588015834856 0 0 121 (C1) n - 1
REM
REM in /home/nfs/bkarasulu/CARBON/AIRSS/Generating-Clusters/LCBOP/Only-C1/SD-CG/FIRE-CG
REM
REM
REM
REM
REM
REM ./C.cell (11c1c37f851c82e70ff6c80c92926a4b)
REM AIRSS Version 0.9.1 bugfix July 2018 build 013d7b7c2542+ Fri, 06 Jul 2018 19:26:36 +0100
REM compiler GCC version 9.2.1 20190827 (Red Hat 9.2.1-1)
REM options -cpp -mtune=generic -march=x86-64 -g -O0 -fpre-include=/usr/include/finclude/math-vector-fortran.h
REM seed -157096434 -670555905 -1486783693 -772775321 -1650003008 884616459 -73276855 22770433 1180974089 -550107600 1555868909 902976615 1151693991 49670398 -1002885402 746913397 481963209 -1493333253 -1185801525 1155217757 -1714020522 564855271 1641906283 -711582735 -1022068474 -413082226 1633758760 -1639356594 -493217562 1139724467 -247862250 -960505160 -5379099
REM
CELL 1.54180   50.00000   50.00000   50.00000   90.00000   90.00000   90.00000
LATT -1
SFAC C  
C      1  0.4205520000000  0.4271960000000  0.5489290000000 1.0
C      1  0.5313590000000  0.5961550000000  0.5431780000000 1.0
C      1  0.4359360000000  0.4708950000000  0.6348550000000 1.0
C      1  0.5389780000000  0.4618360000000  0.5657180000000 1.0
C      1  0.4771810000000  0.6137480000000  0.5734740000000 1.0
C      1  0.4429840000000  0.4678240000000  0.4910930000000 1.0
C      1  0.4572350000000  0.4631520000000  0.6211250000000 1.0
C      1  0.4146290000000  0.5306830000000  0.5407150000000 1.0
C      1  0.5010580000000  0.4625660000000  0.4482150000000 1.0
C      1  0.5120940000000  0.3802410000000  0.4705790000000 1.0
C      1  0.5028420000000  0.5417060000000  0.5776390000000 1.0
C      1  0.4927580000000  0.5749200000000  0.4465130000000 1.0
C      1  0.4997920000000  0.5666710000000  0.5649940000000 1.0
C      1  0.4691450000000  0.5735640000000  0.4301860000000 1.0
C      1  0.5844240000000  0.4334990000000  0.4346950000000 1.0
C      1  0.6035550000000  0.5080540000000  0.4830220000000 1.0
C      1  0.4802350000000  0.5629760000000  0.5201790000000 1.0
C      1  0.5503680000000  0.5098210000000  0.5328150000000 1.0
C      1  0.5122520000000  0.5174620000000  0.5669070000000 1.0
C      1  0.5506350000000  0.5325620000000  0.4581190000000 1.0
C      1  0.5125730000000  0.4675160000000  0.5741990000000 1.0
C      1  0.5428100000000  0.4578740000000  0.4788190000000 1.0
C      1  0.5026510000000  0.4202390000000  0.5845850000000 1.0
C      1  0.4155860000000  0.6149080000000  0.5382490000000 1.0
C      1  0.5323620000000  0.4490970000000  0.3859140000000 1.0
C      1  0.5376930000000  0.4546190000000  0.4135370000000 1.0
C      1  0.5589490000000  0.5207180000000  0.4343180000000 1.0
C      1  0.4990080000000  0.4917180000000  0.5665960000000 1.0
C      1  0.4869930000000  0.4000100000000  0.5692980000000 1.0
C      1  0.4208870000000  0.4859460000000  0.4883320000000 1.0
C      1  0.3809870000000  0.5066550000000  0.4999470000000 1.0
C      1  0.5681610000000  0.5480430000000  0.4740030000000 1.0
C      1  0.4733950000000  0.5146660000000  0.4021520000000 1.0
C      1  0.4997050000000  0.3744240000000  0.5750530000000 1.0
C      1  0.4604480000000  0.4252070000000  0.5083500000000 1.0
C      1  0.5679110000000  0.5856350000000  0.5052450000000 1.0
C      1  0.5035510000000  0.6107520000000  0.5802100000000 1.0
C      1  0.4086920000000  0.5530680000000  0.5270040000000 1.0
C      1  0.5239060000000  0.4051300000000  0.5976830000000 1.0
C      1  0.5072550000000  0.5187520000000  0.5202990000000 1.0
C      1  0.4888440000000  0.5767530000000  0.4964690000000 1.0
C      1  0.4695750000000  0.4031060000000  0.5233550000000 1.0
C      1  0.4896070000000  0.4145160000000  0.4475270000000 1.0
C      1  0.5412220000000  0.4058710000000  0.4404260000000 1.0
C      1  0.4606870000000  0.5947120000000  0.4151300000000 1.0
C      1  0.4145630000000  0.4786210000000  0.6484970000000 1.0
C      1  0.5571470000000  0.5896330000000  0.5336660000000 1.0
C      1  0.4852510000000  0.5354510000000  0.5187470000000 1.0
C      1  0.4630430000000  0.5967900000000  0.5551650000000 1.0
C      1  0.4977350000000  0.4476320000000  0.5883650000000 1.0
C      1  0.5178290000000  0.4941840000000  0.3829570000000 1.0
C      1  0.5382250000000  0.5883420000000  0.4642960000000 1.0
C      1  0.5225880000000  0.4699450000000  0.3708580000000 1.0
C      1  0.4378310000000  0.6035430000000  0.5456980000000 1.0
C      1  0.5157780000000  0.4949280000000  0.5069340000000 1.0
C      1  0.5263610000000  0.5216810000000  0.5426660000000 1.0
C      1  0.4852970000000  0.3799850000000  0.4812200000000 1.0
C      1  0.5159910000000  0.4716640000000  0.4255680000000 1.0
C      1  0.4131290000000  0.5042020000000  0.5354450000000 1.0
C      1  0.3968250000000  0.5492870000000  0.4772080000000 1.0
C      1  0.5215350000000  0.3781300000000  0.5917600000000 1.0
C      1  0.5850660000000  0.4611610000000  0.4296950000000 1.0
C      1  0.5583010000000  0.4719880000000  0.4981560000000 1.0
C      1  0.3903190000000  0.5214290000000  0.4772190000000 1.0
C      1  0.4394590000000  0.4436460000000  0.5058380000000 1.0
C      1  0.5248290000000  0.5284350000000  0.4676310000000 1.0
C      1  0.4973790000000  0.5336320000000  0.4678220000000 1.0
C      1  0.4287520000000  0.5408250000000  0.4392760000000 1.0
C      1  0.4588190000000  0.4486970000000  0.4285280000000 1.0
C      1  0.3935590000000  0.4862130000000  0.6619460000000 1.0
C      1  0.6210530000000  0.4891370000000  0.5281850000000 1.0
C      1  0.5147710000000  0.4612030000000  0.4735840000000 1.0
C      1  0.5614290000000  0.4718980000000  0.4188140000000 1.0
C      1  0.6223390000000  0.4653340000000  0.5722610000000 1.0
C      1  0.5207360000000  0.5808710000000  0.4421840000000 1.0
C      1  0.4712670000000  0.4801030000000  0.4928420000000 1.0
C      1  0.5231160000000  0.6076320000000  0.4789330000000 1.0
C      1  0.4779570000000  0.4555440000000  0.6064910000000 1.0
C      1  0.4665090000000  0.5095030000000  0.3774980000000 1.0
C      1  0.4408450000000  0.4671580000000  0.4215250000000 1.0
C      1  0.5837180000000  0.4694670000000  0.5098000000000 1.0
C      1  0.5967490000000  0.5908850000000  0.5081590000000 1.0
C      1  0.5140050000000  0.6083940000000  0.5245700000000 1.0
C      1  0.5226150000000  0.4967830000000  0.4111730000000 1.0
C      1  0.4768760000000  0.4893810000000  0.5485660000000 1.0
C      1  0.4033950000000  0.4923040000000  0.5117960000000 1.0
C      1  0.6036150000000  0.5945950000000  0.5347160000000 1.0
C      1  0.6045310000000  0.4782870000000  0.4400700000000 1.0
C      1  0.4191430000000  0.4401610000000  0.5252880000000 1.0
C      1  0.5906050000000  0.5334500000000  0.4837080000000 1.0
C      1  0.4232610000000  0.5120850000000  0.4421060000000 1.0
C      1  0.5808500000000  0.5933440000000  0.5503450000000 1.0
C      1  0.4292570000000  0.4910750000000  0.4244890000000 1.0
C      1  0.4825990000000  0.4412650000000  0.4415550000000 1.0
C      1  0.4713160000000  0.3972610000000  0.4622880000000 1.0
C      1  0.4717150000000  0.5254650000000  0.4277220000000 1.0
C      1  0.4789210000000  0.3813190000000  0.5083390000000 1.0
C      1  0.5586710000000  0.5745830000000  0.4803750000000 1.0
C      1  0.4740250000000  0.4907540000000  0.4633920000000 1.0
C      1  0.5625740000000  0.4569670000000  0.5539680000000 1.0
C      1  0.4897810000000  0.5612450000000  0.4718520000000 1.0
C      1  0.5177380000000  0.5892760000000  0.5675090000000 1.0
C      1  0.5009940000000  0.4738400000000  0.4952230000000 1.0
C      1  0.4006560000000  0.5609900000000  0.5025800000000 1.0
C      1  0.6105510000000  0.4970040000000  0.4580750000000 1.0
C      1  0.5854220000000  0.4615150000000  0.5381690000000 1.0
C      1  0.4779070000000  0.5735600000000  0.5467170000000 1.0
C      1  0.6107400000000  0.4714740000000  0.5485470000000 1.0
C      1  0.4812180000000  0.5155110000000  0.4525850000000 1.0
C      1  0.5512360000000  0.4993890000000  0.4184510000000 1.0
C      1  0.4548780000000  0.5484690000000  0.4306300000000 1.0
C      1  0.5439530000000  0.4922420000000  0.5110580000000 1.0
C      1  0.4122480000000  0.5042580000000  0.4670710000000 1.0
C      1  0.4657200000000  0.4039700000000  0.5516180000000 1.0
C      1  0.4112890000000  0.5574550000000  0.4542100000000 1.0
C      1  0.5159260000000  0.4012020000000  0.4508330000000 1.0
C      1  0.4401470000000  0.4125040000000  0.5601680000000 1.0
C      1  0.5664840000000  0.4139620000000  0.4380180000000 1.0
C      1  0.6044000000000  0.4899350000000  0.5047250000000 1.0
C      1  0.5051300000000  0.6004760000000  0.4993410000000 1.0
C      1  0.4680370000000  0.4900050000000  0.5230710000000 1.0
END
