TITL C-3866671-3735-295 -0.00930706717116702 125000 -660.982533418474 0 0 109 (C1) n - 1
REM
REM in /home/nfs/bkarasulu/CARBON/AIRSS/Generating-Clusters/LCBOP/Only-C1/SD-CG/FIRE-CG
REM
REM
REM
REM
REM
REM ./C.cell (11c1c37f851c82e70ff6c80c92926a4b)
REM AIRSS Version 0.9.1 bugfix July 2018 build 013d7b7c2542+ Fri, 06 Jul 2018 19:26:36 +0100
REM compiler GCC version 9.2.1 20190827 (Red Hat 9.2.1-1)
REM options -cpp -mtune=generic -march=x86-64 -g -O0 -fpre-include=/usr/include/finclude/math-vector-fortran.h
REM seed 1515169435 -251923575 -979305393 1600439236 -1960632243 2135240748 1918098570 1808990019 -1674392839 1998384441 -845917880 1897144194 -662166634 -454750894 -804432831 1759454488 -468949803 1945353738 1052843336 -397050258 587854628 1107889743 1864977325 -1873708104 934628567 -1563874131 -739870699 -1706774832 -276760179 1400653579 1480337283 667435707 1751944246
REM
CELL 1.54180   50.00000   50.00000   50.00000   90.00000   90.00000   90.00000
LATT -1
SFAC C  
C      1  0.4504180000000  0.5539470000000  0.5993540000000 1.0
C      1  0.5054260000000  0.4951840000000  0.5915690000000 1.0
C      1  0.4383190000000  0.4813620000000  0.6059630000000 1.0
C      1  0.5824800000000  0.5184150000000  0.4123240000000 1.0
C      1  0.4538530000000  0.4591410000000  0.4376750000000 1.0
C      1  0.5236900000000  0.4224340000000  0.4188970000000 1.0
C      1  0.5102090000000  0.5944450000000  0.4809590000000 1.0
C      1  0.5049660000000  0.4659580000000  0.4768230000000 1.0
C      1  0.5017770000000  0.5840740000000  0.4565720000000 1.0
C      1  0.5913900000000  0.4935280000000  0.4076840000000 1.0
C      1  0.3571000000000  0.4759680000000  0.5039370000000 1.0
C      1  0.4326380000000  0.4774350000000  0.4772390000000 1.0
C      1  0.4257330000000  0.4159440000000  0.5821890000000 1.0
C      1  0.5222860000000  0.4739910000000  0.5276530000000 1.0
C      1  0.5490110000000  0.4785390000000  0.5746010000000 1.0
C      1  0.5624410000000  0.5405540000000  0.4708010000000 1.0
C      1  0.4338840000000  0.6096640000000  0.5276470000000 1.0
C      1  0.4604940000000  0.4462180000000  0.5338510000000 1.0
C      1  0.4414020000000  0.4813360000000  0.4503340000000 1.0
C      1  0.5484540000000  0.4365810000000  0.4210080000000 1.0
C      1  0.4876810000000  0.5278630000000  0.5604740000000 1.0
C      1  0.5289890000000  0.4996380000000  0.5221330000000 1.0
C      1  0.5056180000000  0.4486330000000  0.5863300000000 1.0
C      1  0.5809400000000  0.4690590000000  0.4040780000000 1.0
C      1  0.5553240000000  0.4789430000000  0.4718030000000 1.0
C      1  0.4058390000000  0.4756330000000  0.4842850000000 1.0
C      1  0.5481190000000  0.4133320000000  0.5052010000000 1.0
C      1  0.3881320000000  0.4916700000000  0.5678560000000 1.0
C      1  0.5601100000000  0.5932330000000  0.4861690000000 1.0
C      1  0.4367720000000  0.4407210000000  0.5780720000000 1.0
C      1  0.5506850000000  0.4347310000000  0.5237130000000 1.0
C      1  0.5069510000000  0.5998120000000  0.5733000000000 1.0
C      1  0.3986930000000  0.4709560000000  0.5809740000000 1.0
C      1  0.5913360000000  0.4892580000000  0.5523480000000 1.0
C      1  0.5438690000000  0.5459040000000  0.5559600000000 1.0
C      1  0.5320730000000  0.4658970000000  0.4696960000000 1.0
C      1  0.3811210000000  0.4756070000000  0.4938150000000 1.0
C      1  0.5116930000000  0.5375300000000  0.4696640000000 1.0
C      1  0.5549010000000  0.4578510000000  0.4030590000000 1.0
C      1  0.4968760000000  0.5490020000000  0.4245470000000 1.0
C      1  0.5365710000000  0.5259430000000  0.5739470000000 1.0
C      1  0.5600540000000  0.5221520000000  0.4917340000000 1.0
C      1  0.4325130000000  0.5422590000000  0.4727880000000 1.0
C      1  0.5410310000000  0.5014450000000  0.3876010000000 1.0
C      1  0.5385810000000  0.5484540000000  0.5284610000000 1.0
C      1  0.4989900000000  0.4344610000000  0.4251980000000 1.0
C      1  0.4807460000000  0.5901460000000  0.4378240000000 1.0
C      1  0.5091790000000  0.4683760000000  0.3819370000000 1.0
C      1  0.4684010000000  0.5269910000000  0.5400630000000 1.0
C      1  0.4925480000000  0.5982390000000  0.5034480000000 1.0
C      1  0.5240370000000  0.3963870000000  0.4102990000000 1.0
C      1  0.4497940000000  0.5291360000000  0.6092290000000 1.0
C      1  0.5213870000000  0.4719480000000  0.5844900000000 1.0
C      1  0.4194510000000  0.5279000000000  0.5509840000000 1.0
C      1  0.4727360000000  0.5663020000000  0.4230460000000 1.0
C      1  0.4869290000000  0.5075230000000  0.4010850000000 1.0
C      1  0.3976730000000  0.5139370000000  0.5567870000000 1.0
C      1  0.4840010000000  0.4950270000000  0.6094470000000 1.0
C      1  0.5016240000000  0.4187040000000  0.4869330000000 1.0
C      1  0.5357630000000  0.4736760000000  0.3890180000000 1.0
C      1  0.5582850000000  0.5314790000000  0.4197840000000 1.0
C      1  0.4460400000000  0.5070400000000  0.4384890000000 1.0
C      1  0.5590680000000  0.5443320000000  0.4445730000000 1.0
C      1  0.5723090000000  0.4506170000000  0.5316660000000 1.0
C      1  0.5349550000000  0.5227770000000  0.4052270000000 1.0
C      1  0.5351110000000  0.5856460000000  0.4937080000000 1.0
C      1  0.5670330000000  0.4300060000000  0.4414010000000 1.0
C      1  0.5548360000000  0.5061350000000  0.5836540000000 1.0
C      1  0.5080450000000  0.5562490000000  0.4503080000000 1.0
C      1  0.4394340000000  0.5613420000000  0.5226530000000 1.0
C      1  0.5701960000000  0.4694290000000  0.5550170000000 1.0
C      1  0.4454020000000  0.5861250000000  0.5352920000000 1.0
C      1  0.4962260000000  0.4137050000000  0.5572530000000 1.0
C      1  0.5091840000000  0.5185790000000  0.5760140000000 1.0
C      1  0.4722660000000  0.4977150000000  0.4950190000000 1.0
C      1  0.5713270000000  0.4963710000000  0.4872450000000 1.0
C      1  0.5997220000000  0.4989770000000  0.5283050000000 1.0
C      1  0.4890260000000  0.4882000000000  0.3800110000000 1.0
C      1  0.4745690000000  0.4442800000000  0.4296720000000 1.0
C      1  0.4604860000000  0.4428980000000  0.5625610000000 1.0
C      1  0.4567910000000  0.5019070000000  0.6103060000000 1.0
C      1  0.5083810000000  0.4242410000000  0.5359690000000 1.0
C      1  0.5259710000000  0.4073840000000  0.4905700000000 1.0
C      1  0.4243650000000  0.4635100000000  0.5894980000000 1.0
C      1  0.4914750000000  0.5899530000000  0.5529670000000 1.0
C      1  0.5253520000000  0.4458100000000  0.5300850000000 1.0
C      1  0.4722640000000  0.4891040000000  0.3584260000000 1.0
C      1  0.5832220000000  0.4317350000000  0.4626760000000 1.0
C      1  0.5026430000000  0.5855900000000  0.5275200000000 1.0
C      1  0.4929600000000  0.4914860000000  0.4772900000000 1.0
C      1  0.5910430000000  0.4857810000000  0.5047640000000 1.0
C      1  0.4336720000000  0.5562300000000  0.4955970000000 1.0
C      1  0.4424600000000  0.5385640000000  0.5396720000000 1.0
C      1  0.4535700000000  0.4762320000000  0.4963200000000 1.0
C      1  0.5922070000000  0.4403980000000  0.4864410000000 1.0
C      1  0.4637350000000  0.5846940000000  0.5573700000000 1.0
C      1  0.5891220000000  0.4573920000000  0.5087890000000 1.0
C      1  0.5066380000000  0.5273320000000  0.4091980000000 1.0
C      1  0.4897910000000  0.4443580000000  0.4897120000000 1.0
C      1  0.5416120000000  0.5240330000000  0.5135420000000 1.0
C      1  0.5277910000000  0.5727270000000  0.5188560000000 1.0
C      1  0.4632330000000  0.5062790000000  0.4160780000000 1.0
C      1  0.4852110000000  0.4333820000000  0.5740150000000 1.0
C      1  0.4553080000000  0.5735600000000  0.5818900000000 1.0
C      1  0.4755400000000  0.5154370000000  0.5157720000000 1.0
C      1  0.5744560000000  0.5117520000000  0.6018440000000 1.0
C      1  0.4479790000000  0.5541590000000  0.4287330000000 1.0
C      1  0.4395780000000  0.5337470000000  0.4469240000000 1.0
C      1  0.4664090000000  0.4523260000000  0.5064540000000 1.0
END
