TITL C-3866670-4165-587 -6.95098340915072e-07 125000 -1039.38967271179 0 0 173 (C1) n - 1
REM
REM in /home/nfs/bkarasulu/CARBON/AIRSS/Generating-Clusters/LCBOP/Only-C1/SD-CG/FIRE-CG
REM
REM
REM
REM
REM
REM ./C.cell (11c1c37f851c82e70ff6c80c92926a4b)
REM AIRSS Version 0.9.1 bugfix July 2018 build 013d7b7c2542+ Fri, 06 Jul 2018 19:26:36 +0100
REM compiler GCC version 9.2.1 20190827 (Red Hat 9.2.1-1)
REM options -cpp -mtune=generic -march=x86-64 -g -O0 -fpre-include=/usr/include/finclude/math-vector-fortran.h
REM seed 1416512005 1877550278 1267536829 -1598765964 -1535245183 -291772325 285019913 1829996316 -1721197871 -1440544502 -200543214 1226155991 -139208666 -703362884 -558160056 -536527106 751226807 170451707 -1360974103 1395367270 2015259794 743638142 -2074200468 -1079872399 148947664 -1902428513 -1417401997 -499641352 -1520451077 1141210055 523772491 1294733946 1612866200
REM
CELL 1.54180   50.00000   50.00000   50.00000   90.00000   90.00000   90.00000
LATT -1
SFAC C  
C      1  0.4757040000000  0.6143590000000  0.4756420000000 1.0
C      1  0.4850960000000  0.4265260000000  0.6033660000000 1.0
C      1  0.4137500000000  0.4173710000000  0.5087690000000 1.0
C      1  0.5404700000000  0.4926210000000  0.5238180000000 1.0
C      1  0.5377580000000  0.4927800000000  0.6391170000000 1.0
C      1  0.5303170000000  0.5563610000000  0.4966790000000 1.0
C      1  0.5467250000000  0.4335230000000  0.5383330000000 1.0
C      1  0.4830850000000  0.4977630000000  0.4637580000000 1.0
C      1  0.4511900000000  0.4709610000000  0.4004090000000 1.0
C      1  0.5669750000000  0.4558410000000  0.4672340000000 1.0
C      1  0.6007640000000  0.5007330000000  0.5517960000000 1.0
C      1  0.4939930000000  0.5188920000000  0.4808160000000 1.0
C      1  0.4069060000000  0.5560270000000  0.4381110000000 1.0
C      1  0.5426990000000  0.5133000000000  0.4811320000000 1.0
C      1  0.4988230000000  0.6207870000000  0.5177410000000 1.0
C      1  0.4512460000000  0.4784400000000  0.5384980000000 1.0
C      1  0.5290440000000  0.4755120000000  0.5438990000000 1.0
C      1  0.5385640000000  0.5047490000000  0.3928510000000 1.0
C      1  0.5382560000000  0.4577860000000  0.3872040000000 1.0
C      1  0.5326840000000  0.5380990000000  0.5411730000000 1.0
C      1  0.5564570000000  0.5864520000000  0.5250440000000 1.0
C      1  0.4658290000000  0.5364320000000  0.5613520000000 1.0
C      1  0.4896480000000  0.5862200000000  0.5549740000000 1.0
C      1  0.4585520000000  0.4296110000000  0.6003680000000 1.0
C      1  0.4964250000000  0.4853930000000  0.4055740000000 1.0
C      1  0.5494930000000  0.5932230000000  0.4747320000000 1.0
C      1  0.5015560000000  0.4263090000000  0.4754220000000 1.0
C      1  0.4335150000000  0.3818780000000  0.4704350000000 1.0
C      1  0.4299460000000  0.4453560000000  0.4333060000000 1.0
C      1  0.4653000000000  0.5149520000000  0.3815110000000 1.0
C      1  0.5704280000000  0.4089350000000  0.4502090000000 1.0
C      1  0.5208370000000  0.5526330000000  0.4131190000000 1.0
C      1  0.5699260000000  0.4065270000000  0.4235630000000 1.0
C      1  0.4259950000000  0.4832280000000  0.4083250000000 1.0
C      1  0.3994010000000  0.4893440000000  0.5117350000000 1.0
C      1  0.4388570000000  0.4231520000000  0.5831180000000 1.0
C      1  0.5053540000000  0.5375820000000  0.4611020000000 1.0
C      1  0.5732490000000  0.4273170000000  0.4709390000000 1.0
C      1  0.6053480000000  0.4754440000000  0.4221370000000 1.0
C      1  0.5091790000000  0.4066710000000  0.5268690000000 1.0
C      1  0.5573870000000  0.4634050000000  0.5779760000000 1.0
C      1  0.4430080000000  0.5770400000000  0.5585050000000 1.0
C      1  0.4431260000000  0.5192580000000  0.4335070000000 1.0
C      1  0.6158640000000  0.5197160000000  0.5641120000000 1.0
C      1  0.4271920000000  0.4837990000000  0.6201620000000 1.0
C      1  0.4180830000000  0.5366020000000  0.5580040000000 1.0
C      1  0.4168150000000  0.5555430000000  0.4109190000000 1.0
C      1  0.4870410000000  0.4865190000000  0.6441620000000 1.0
C      1  0.5481570000000  0.4640090000000  0.4473090000000 1.0
C      1  0.4717020000000  0.4883680000000  0.3913680000000 1.0
C      1  0.4201350000000  0.4242850000000  0.5376320000000 1.0
C      1  0.4286160000000  0.4716100000000  0.5535280000000 1.0
C      1  0.5060770000000  0.5420310000000  0.6302390000000 1.0
C      1  0.4635940000000  0.5466260000000  0.6127590000000 1.0
C      1  0.5647190000000  0.4485170000000  0.3954080000000 1.0
C      1  0.5817770000000  0.5509340000000  0.5744100000000 1.0
C      1  0.6025710000000  0.4942860000000  0.4718380000000 1.0
C      1  0.5499190000000  0.5259380000000  0.4362350000000 1.0
C      1  0.4792490000000  0.5330120000000  0.6338670000000 1.0
C      1  0.4145440000000  0.5049120000000  0.4937060000000 1.0
C      1  0.4573190000000  0.4149670000000  0.4896700000000 1.0
C      1  0.6193550000000  0.4580740000000  0.5195020000000 1.0
C      1  0.4612010000000  0.5794870000000  0.4144420000000 1.0
C      1  0.4713650000000  0.5662760000000  0.5676360000000 1.0
C      1  0.5687190000000  0.4212250000000  0.4011520000000 1.0
C      1  0.4651610000000  0.3999680000000  0.4341190000000 1.0
C      1  0.5301460000000  0.4229690000000  0.5832640000000 1.0
C      1  0.6091000000000  0.5510870000000  0.5298150000000 1.0
C      1  0.4513680000000  0.4398020000000  0.4783410000000 1.0
C      1  0.5006320000000  0.6170450000000  0.4897190000000 1.0
C      1  0.5738140000000  0.5243580000000  0.6447700000000 1.0
C      1  0.5377010000000  0.5249360000000  0.3484240000000 1.0
C      1  0.4810060000000  0.5739820000000  0.5035840000000 1.0
C      1  0.5597430000000  0.4805060000000  0.4274520000000 1.0
C      1  0.4970070000000  0.5303950000000  0.5067390000000 1.0
C      1  0.5565910000000  0.5107460000000  0.6284480000000 1.0
C      1  0.4689840000000  0.5062320000000  0.6361590000000 1.0
C      1  0.5800500000000  0.4673240000000  0.4118970000000 1.0
C      1  0.6078080000000  0.5180840000000  0.4879270000000 1.0
C      1  0.5031070000000  0.5581700000000  0.5012660000000 1.0
C      1  0.4821920000000  0.5191780000000  0.5474750000000 1.0
C      1  0.4538880000000  0.4429940000000  0.4139100000000 1.0
C      1  0.5128520000000  0.3625460000000  0.5944530000000 1.0
C      1  0.4646800000000  0.4003330000000  0.5506040000000 1.0
C      1  0.3970400000000  0.4621170000000  0.5191800000000 1.0
C      1  0.6114140000000  0.4897530000000  0.4447660000000 1.0
C      1  0.4013810000000  0.4793740000000  0.4542860000000 1.0
C      1  0.4257580000000  0.5102360000000  0.4128920000000 1.0
C      1  0.5295500000000  0.5713740000000  0.4333950000000 1.0
C      1  0.4825910000000  0.5517490000000  0.4492510000000 1.0
C      1  0.5793490000000  0.5097820000000  0.5379160000000 1.0
C      1  0.5532380000000  0.5195890000000  0.5277820000000 1.0
C      1  0.5041790000000  0.5292220000000  0.4187460000000 1.0
C      1  0.4999470000000  0.4355630000000  0.4476520000000 1.0
C      1  0.5722710000000  0.5913280000000  0.4295170000000 1.0
C      1  0.4818020000000  0.3799950000000  0.4715620000000 1.0
C      1  0.5914640000000  0.4265700000000  0.4930680000000 1.0
C      1  0.4287460000000  0.5614610000000  0.5133970000000 1.0
C      1  0.4601510000000  0.4557220000000  0.5222370000000 1.0
C      1  0.5419730000000  0.5658620000000  0.5397780000000 1.0
C      1  0.5278850000000  0.4265630000000  0.5176760000000 1.0
C      1  0.4056990000000  0.4544200000000  0.4725380000000 1.0
C      1  0.5164270000000  0.4422340000000  0.4949660000000 1.0
C      1  0.4507650000000  0.6042440000000  0.4715990000000 1.0
C      1  0.5326350000000  0.5269680000000  0.4580160000000 1.0
C      1  0.5734560000000  0.5856070000000  0.4031070000000 1.0
C      1  0.5378450000000  0.5270690000000  0.3755780000000 1.0
C      1  0.6013190000000  0.5423120000000  0.5031290000000 1.0
C      1  0.4591800000000  0.5354600000000  0.4472740000000 1.0
C      1  0.5764750000000  0.5538480000000  0.4953000000000 1.0
C      1  0.4454240000000  0.5039270000000  0.6193400000000 1.0
C      1  0.5878760000000  0.4715910000000  0.4821270000000 1.0
C      1  0.4988510000000  0.3841510000000  0.5854130000000 1.0
C      1  0.4565130000000  0.5406140000000  0.3850300000000 1.0
C      1  0.4845990000000  0.4156460000000  0.5374680000000 1.0
C      1  0.4759910000000  0.3815140000000  0.5686340000000 1.0
C      1  0.5373210000000  0.5610290000000  0.5961870000000 1.0
C      1  0.5510240000000  0.5848640000000  0.4470580000000 1.0
C      1  0.4823970000000  0.4435730000000  0.5370260000000 1.0
C      1  0.5103900000000  0.5564770000000  0.6051700000000 1.0
C      1  0.6054050000000  0.5457730000000  0.5582960000000 1.0
C      1  0.4068110000000  0.5428830000000  0.4643210000000 1.0
C      1  0.3997260000000  0.4425730000000  0.4978960000000 1.0
C      1  0.4032390000000  0.5122300000000  0.4683270000000 1.0
C      1  0.5061740000000  0.4111500000000  0.5923600000000 1.0
C      1  0.4483160000000  0.4239740000000  0.3903680000000 1.0
C      1  0.5514190000000  0.6131490000000  0.5999670000000 1.0
C      1  0.4097500000000  0.5297080000000  0.4008390000000 1.0
C      1  0.5584600000000  0.5415090000000  0.5894860000000 1.0
C      1  0.4761150000000  0.4276250000000  0.4309050000000 1.0
C      1  0.5577210000000  0.5140960000000  0.5999160000000 1.0
C      1  0.4108630000000  0.4522510000000  0.5425020000000 1.0
C      1  0.4954700000000  0.5020970000000  0.4302260000000 1.0
C      1  0.4425160000000  0.5040210000000  0.4916800000000 1.0
C      1  0.4299790000000  0.5867350000000  0.4735130000000 1.0
C      1  0.4557450000000  0.5709430000000  0.5104500000000 1.0
C      1  0.6007640000000  0.4527390000000  0.5005060000000 1.0
C      1  0.4792450000000  0.5755520000000  0.4343120000000 1.0
C      1  0.5033300000000  0.4636200000000  0.5400820000000 1.0
C      1  0.4127000000000  0.4688090000000  0.4285770000000 1.0
C      1  0.4243680000000  0.5601060000000  0.5423830000000 1.0
C      1  0.5135600000000  0.4830150000000  0.6445430000000 1.0
C      1  0.4617730000000  0.4862550000000  0.4805960000000 1.0
C      1  0.4321850000000  0.4007210000000  0.4929880000000 1.0
C      1  0.4179750000000  0.5620300000000  0.4854090000000 1.0
C      1  0.5626130000000  0.6104110000000  0.5369360000000 1.0
C      1  0.4437800000000  0.5617490000000  0.4008870000000 1.0
C      1  0.4407400000000  0.5285940000000  0.5738840000000 1.0
C      1  0.5454020000000  0.5880640000000  0.5962550000000 1.0
C      1  0.4582040000000  0.3804770000000  0.4544090000000 1.0
C      1  0.5119240000000  0.4717580000000  0.4961590000000 1.0
C      1  0.5343250000000  0.4898310000000  0.4954430000000 1.0
C      1  0.4601660000000  0.4609490000000  0.4935980000000 1.0
C      1  0.4837200000000  0.4055280000000  0.4839790000000 1.0
C      1  0.4439870000000  0.5272710000000  0.6020980000000 1.0
C      1  0.3934710000000  0.5250910000000  0.5591640000000 1.0
C      1  0.5534060000000  0.5348740000000  0.4996210000000 1.0
C      1  0.5577920000000  0.5710310000000  0.3867310000000 1.0
C      1  0.4960980000000  0.6080010000000  0.5410310000000 1.0
C      1  0.4820560000000  0.5621230000000  0.5960380000000 1.0
C      1  0.5229030000000  0.4515550000000  0.4416330000000 1.0
C      1  0.5655130000000  0.5812290000000  0.4972880000000 1.0
C      1  0.4941330000000  0.4821450000000  0.5184190000000 1.0
C      1  0.5055130000000  0.5289760000000  0.5350240000000 1.0
C      1  0.5469490000000  0.4390630000000  0.5668520000000 1.0
C      1  0.5583940000000  0.4894360000000  0.5854330000000 1.0
C      1  0.4392200000000  0.4132030000000  0.5563290000000 1.0
C      1  0.5219900000000  0.4811510000000  0.3918640000000 1.0
C      1  0.5370270000000  0.5520680000000  0.3891360000000 1.0
C      1  0.4727880000000  0.4964810000000  0.5337210000000 1.0
C      1  0.4296150000000  0.4420210000000  0.4610500000000 1.0
C      1  0.5525380000000  0.5056720000000  0.4176360000000 1.0
C      1  0.5264930000000  0.6096900000000  0.4802700000000 1.0
END
