TITL C-3866675-3766-776 -6.25763763478791e-07 125000 -820.037749824812 0 0 136 (C1) n - 1
REM
REM in /home/nfs/bkarasulu/CARBON/AIRSS/Generating-Clusters/LCBOP/Only-C1/SD-CG/FIRE-CG
REM
REM
REM
REM
REM
REM ./C.cell (11c1c37f851c82e70ff6c80c92926a4b)
REM AIRSS Version 0.9.1 bugfix July 2018 build 013d7b7c2542+ Fri, 06 Jul 2018 19:26:36 +0100
REM compiler GCC version 9.2.1 20190827 (Red Hat 9.2.1-1)
REM options -cpp -mtune=generic -march=x86-64 -g -O0 -fpre-include=/usr/include/finclude/math-vector-fortran.h
REM seed 1021737855 1484796653 2095785232 622482550 1054586156 914841585 -224951264 2021868667 1297095579 1920497753 1990366964 -477988827 1119852390 2126079285 1710096068 -1913410718 1603585554 -160748665 2096893843 323884596 1191457230 2083129950 -348255488 1761789999 444043217 -554239877 146303506 99042501 -1227657989 588665066 1936416620 1331180043 -305896052
REM
CELL 1.54180   50.00000   50.00000   50.00000   90.00000   90.00000   90.00000
LATT -1
SFAC C  
C      1  0.5205040000000  0.4408180000000  0.4606870000000 1.0
C      1  0.5398960000000  0.4880860000000  0.4736030000000 1.0
C      1  0.5514380000000  0.4140660000000  0.4392980000000 1.0
C      1  0.4516520000000  0.5882940000000  0.4664820000000 1.0
C      1  0.5414280000000  0.6139200000000  0.5111650000000 1.0
C      1  0.4722250000000  0.5230550000000  0.3919470000000 1.0
C      1  0.4664060000000  0.5958310000000  0.4939000000000 1.0
C      1  0.4891110000000  0.3762040000000  0.5070800000000 1.0
C      1  0.4764600000000  0.5036910000000  0.5887280000000 1.0
C      1  0.4692640000000  0.4449980000000  0.5089900000000 1.0
C      1  0.4692330000000  0.4116140000000  0.4404640000000 1.0
C      1  0.4660980000000  0.5452720000000  0.5508940000000 1.0
C      1  0.4495230000000  0.3932050000000  0.4830160000000 1.0
C      1  0.4060940000000  0.4996720000000  0.5784210000000 1.0
C      1  0.5254520000000  0.4035960000000  0.4373790000000 1.0
C      1  0.5131570000000  0.4170270000000  0.5049530000000 1.0
C      1  0.5181270000000  0.5258840000000  0.4843580000000 1.0
C      1  0.4423660000000  0.5279830000000  0.5542140000000 1.0
C      1  0.4821390000000  0.5676280000000  0.4993610000000 1.0
C      1  0.5299050000000  0.4948880000000  0.4284690000000 1.0
C      1  0.4590280000000  0.4793860000000  0.4790270000000 1.0
C      1  0.5115420000000  0.4588960000000  0.5933770000000 1.0
C      1  0.5150010000000  0.5711300000000  0.4301730000000 1.0
C      1  0.4715400000000  0.4700220000000  0.4064710000000 1.0
C      1  0.4841450000000  0.4878320000000  0.5169460000000 1.0
C      1  0.5600410000000  0.4259020000000  0.5028620000000 1.0
C      1  0.4205640000000  0.4589350000000  0.4544010000000 1.0
C      1  0.4358030000000  0.5166990000000  0.5290090000000 1.0
C      1  0.5110460000000  0.5700280000000  0.5079150000000 1.0
C      1  0.5789610000000  0.5768740000000  0.5213320000000 1.0
C      1  0.5917300000000  0.4379060000000  0.4653430000000 1.0
C      1  0.5116720000000  0.4852060000000  0.5128500000000 1.0
C      1  0.5909910000000  0.6041190000000  0.4634130000000 1.0
C      1  0.5195530000000  0.5608410000000  0.5333500000000 1.0
C      1  0.4631110000000  0.5568730000000  0.5232140000000 1.0
C      1  0.4502420000000  0.4132380000000  0.4628960000000 1.0
C      1  0.4273140000000  0.4634880000000  0.4268550000000 1.0
C      1  0.5549630000000  0.4767450000000  0.6027620000000 1.0
C      1  0.5842710000000  0.4555090000000  0.5379200000000 1.0
C      1  0.5694330000000  0.5947710000000  0.4770540000000 1.0
C      1  0.5868840000000  0.4816720000000  0.4377220000000 1.0
C      1  0.5982880000000  0.4809240000000  0.5407660000000 1.0
C      1  0.4861140000000  0.4148320000000  0.5714090000000 1.0
C      1  0.5023470000000  0.5591960000000  0.4079450000000 1.0
C      1  0.5980000000000  0.4517640000000  0.4902550000000 1.0
C      1  0.5706970000000  0.4893080000000  0.6211910000000 1.0
C      1  0.5670030000000  0.5237630000000  0.4964320000000 1.0
C      1  0.4008690000000  0.4465480000000  0.5890820000000 1.0
C      1  0.5472390000000  0.5809840000000  0.4659650000000 1.0
C      1  0.4884220000000  0.4923790000000  0.5632750000000 1.0
C      1  0.4746060000000  0.4680500000000  0.5564510000000 1.0
C      1  0.4588090000000  0.3963800000000  0.5330940000000 1.0
C      1  0.5814850000000  0.4420960000000  0.5123110000000 1.0
C      1  0.3770150000000  0.4759700000000  0.4764560000000 1.0
C      1  0.6255170000000  0.4961210000000  0.5846500000000 1.0
C      1  0.4422610000000  0.5967010000000  0.5156470000000 1.0
C      1  0.5896580000000  0.5516500000000  0.5251880000000 1.0
C      1  0.5166440000000  0.4788970000000  0.4860970000000 1.0
C      1  0.4811200000000  0.6145880000000  0.5379180000000 1.0
C      1  0.4113280000000  0.4724570000000  0.5875880000000 1.0
C      1  0.4756650000000  0.5495180000000  0.4039460000000 1.0
C      1  0.4305760000000  0.5161720000000  0.5771880000000 1.0
C      1  0.4100350000000  0.5552380000000  0.5104630000000 1.0
C      1  0.6083230000000  0.4785990000000  0.4955290000000 1.0
C      1  0.4384910000000  0.5096410000000  0.4229230000000 1.0
C      1  0.5379950000000  0.5256240000000  0.5056660000000 1.0
C      1  0.4908250000000  0.5389990000000  0.5664520000000 1.0
C      1  0.5245630000000  0.5318230000000  0.5323150000000 1.0
C      1  0.5881360000000  0.5238780000000  0.5159830000000 1.0
C      1  0.4854240000000  0.4039630000000  0.5447570000000 1.0
C      1  0.4879070000000  0.5593870000000  0.4695140000000 1.0
C      1  0.5131190000000  0.6245970000000  0.4717110000000 1.0
C      1  0.4944330000000  0.5258240000000  0.5931700000000 1.0
C      1  0.5716550000000  0.4353460000000  0.4443090000000 1.0
C      1  0.5013910000000  0.4960170000000  0.4310250000000 1.0
C      1  0.4727900000000  0.4644350000000  0.5293030000000 1.0
C      1  0.4972260000000  0.5802430000000  0.4506970000000 1.0
C      1  0.4975370000000  0.5323650000000  0.4660110000000 1.0
C      1  0.5034770000000  0.4353030000000  0.5821510000000 1.0
C      1  0.4858620000000  0.5152890000000  0.4454170000000 1.0
C      1  0.4894850000000  0.6159040000000  0.5106720000000 1.0
C      1  0.6109570000000  0.4883750000000  0.5644700000000 1.0
C      1  0.5174910000000  0.4514070000000  0.4333660000000 1.0
C      1  0.4940820000000  0.4370550000000  0.4983470000000 1.0
C      1  0.5047730000000  0.4547670000000  0.4782940000000 1.0
C      1  0.4068250000000  0.5143950000000  0.4801890000000 1.0
C      1  0.5413850000000  0.5056410000000  0.4510210000000 1.0
C      1  0.4609400000000  0.3835660000000  0.5067980000000 1.0
C      1  0.6011340000000  0.4972090000000  0.5173250000000 1.0
C      1  0.4525520000000  0.6113140000000  0.5382480000000 1.0
C      1  0.4566590000000  0.4576770000000  0.5753710000000 1.0
C      1  0.4451500000000  0.5385560000000  0.4585940000000 1.0
C      1  0.5650310000000  0.4567530000000  0.5856510000000 1.0
C      1  0.4372250000000  0.4391660000000  0.4687090000000 1.0
C      1  0.4937390000000  0.4685090000000  0.4244500000000 1.0
C      1  0.5943450000000  0.5014250000000  0.4554050000000 1.0
C      1  0.5655480000000  0.5976730000000  0.5058020000000 1.0
C      1  0.5577450000000  0.5491830000000  0.4325550000000 1.0
C      1  0.4703990000000  0.4954400000000  0.3917360000000 1.0
C      1  0.4472870000000  0.5167530000000  0.5032230000000 1.0
C      1  0.4503440000000  0.4518260000000  0.4135740000000 1.0
C      1  0.4671960000000  0.4985340000000  0.4977820000000 1.0
C      1  0.5293500000000  0.5730290000000  0.4865370000000 1.0
C      1  0.5781560000000  0.5215350000000  0.4691230000000 1.0
C      1  0.5153930000000  0.5799070000000  0.5539020000000 1.0
C      1  0.5674010000000  0.4611920000000  0.4312530000000 1.0
C      1  0.4020130000000  0.4856170000000  0.4710790000000 1.0
C      1  0.4575930000000  0.5197430000000  0.4407760000000 1.0
C      1  0.5586840000000  0.5273530000000  0.4493530000000 1.0
C      1  0.4520210000000  0.4535000000000  0.4879660000000 1.0
C      1  0.5151920000000  0.6211920000000  0.4998680000000 1.0
C      1  0.4994520000000  0.6080820000000  0.4552900000000 1.0
C      1  0.4989320000000  0.6014550000000  0.5556250000000 1.0
C      1  0.3948570000000  0.5349930000000  0.4979000000000 1.0
C      1  0.5404460000000  0.4678540000000  0.4241020000000 1.0
C      1  0.5622690000000  0.4771730000000  0.4840470000000 1.0
C      1  0.4335880000000  0.5246950000000  0.4799040000000 1.0
C      1  0.5270290000000  0.4825800000000  0.6002700000000 1.0
C      1  0.5300890000000  0.4787310000000  0.5319950000000 1.0
C      1  0.4586610000000  0.4251600000000  0.4177160000000 1.0
C      1  0.4631450000000  0.4080650000000  0.5870750000000 1.0
C      1  0.4559330000000  0.5642200000000  0.4200630000000 1.0
C      1  0.5182080000000  0.5107230000000  0.6021260000000 1.0
C      1  0.5721120000000  0.4469780000000  0.5618040000000 1.0
C      1  0.5420690000000  0.5712170000000  0.4393470000000 1.0
C      1  0.4368020000000  0.4097940000000  0.5919400000000 1.0
C      1  0.5363960000000  0.4207460000000  0.4886910000000 1.0
C      1  0.5044940000000  0.5170660000000  0.5497640000000 1.0
C      1  0.4474190000000  0.5656290000000  0.4482200000000 1.0
C      1  0.4132250000000  0.4226510000000  0.5914790000000 1.0
C      1  0.4216960000000  0.4895110000000  0.4177620000000 1.0
C      1  0.5038540000000  0.3966020000000  0.5221080000000 1.0
C      1  0.4975630000000  0.4031820000000  0.4396190000000 1.0
C      1  0.4350190000000  0.5683930000000  0.5179910000000 1.0
C      1  0.4401290000000  0.4732050000000  0.5919380000000 1.0
C      1  0.4493490000000  0.5004210000000  0.5932370000000 1.0
END
