TITL C-3866670-4165-353 -0.000140041456406707 125000 -787.399291605363 0 0 131 (C1) n - 1
REM
REM in /home/nfs/bkarasulu/CARBON/AIRSS/Generating-Clusters/LCBOP/Only-C1/SD-CG/FIRE-CG
REM
REM
REM
REM
REM
REM ./C.cell (11c1c37f851c82e70ff6c80c92926a4b)
REM AIRSS Version 0.9.1 bugfix July 2018 build 013d7b7c2542+ Fri, 06 Jul 2018 19:26:36 +0100
REM compiler GCC version 9.2.1 20190827 (Red Hat 9.2.1-1)
REM options -cpp -mtune=generic -march=x86-64 -g -O0 -fpre-include=/usr/include/finclude/math-vector-fortran.h
REM seed -105430629 253585049 -129403324 759618771 1924834048 1220808491 1335435034 -1699700273 385823234 -243809766 1236476383 -1253672567 -2125568209 859240542 -1946863543 1805306541 -1572135454 -2071506813 440443700 1021229988 -228942174 -427498814 -1655001823 75259937 977266594 354621525 1865797207 810855831 1696219011 1873087691 -1541809806 -554460095 1169601233
REM
CELL 1.54180   50.00000   50.00000   50.00000   90.00000   90.00000   90.00000
LATT -1
SFAC C  
C      1  0.4147850000000  0.4830690000000  0.5430550000000 1.0
C      1  0.4770950000000  0.4519710000000  0.4204970000000 1.0
C      1  0.5625830000000  0.5306580000000  0.4379090000000 1.0
C      1  0.5951920000000  0.4746540000000  0.5498670000000 1.0
C      1  0.4624360000000  0.5320960000000  0.5892100000000 1.0
C      1  0.4812150000000  0.4509680000000  0.6206340000000 1.0
C      1  0.5653280000000  0.4436940000000  0.5050890000000 1.0
C      1  0.5321280000000  0.4618930000000  0.5752930000000 1.0
C      1  0.5572720000000  0.4933100000000  0.5094990000000 1.0
C      1  0.5913820000000  0.4330460000000  0.5047330000000 1.0
C      1  0.6319390000000  0.5422500000000  0.4850410000000 1.0
C      1  0.5509970000000  0.5719550000000  0.4567720000000 1.0
C      1  0.5754970000000  0.4611820000000  0.4417270000000 1.0
C      1  0.4922880000000  0.5287360000000  0.4065300000000 1.0
C      1  0.4440700000000  0.5897760000000  0.4708730000000 1.0
C      1  0.3821330000000  0.4348880000000  0.5926560000000 1.0
C      1  0.4357810000000  0.5477930000000  0.5276710000000 1.0
C      1  0.5688120000000  0.4282040000000  0.5523980000000 1.0
C      1  0.4775250000000  0.4641640000000  0.5984580000000 1.0
C      1  0.4921690000000  0.5853700000000  0.4271220000000 1.0
C      1  0.5535100000000  0.5912540000000  0.4771420000000 1.0
C      1  0.5206820000000  0.4192720000000  0.5566050000000 1.0
C      1  0.5700080000000  0.5588240000000  0.5131830000000 1.0
C      1  0.4571100000000  0.5018940000000  0.5318190000000 1.0
C      1  0.5025940000000  0.5143230000000  0.5282260000000 1.0
C      1  0.4493740000000  0.5604760000000  0.4250590000000 1.0
C      1  0.6123100000000  0.4490880000000  0.4984590000000 1.0
C      1  0.4279290000000  0.4365150000000  0.5634070000000 1.0
C      1  0.4630990000000  0.5014440000000  0.4362600000000 1.0
C      1  0.4814230000000  0.4475290000000  0.5189030000000 1.0
C      1  0.4112870000000  0.4927620000000  0.4409300000000 1.0
C      1  0.4247060000000  0.4499580000000  0.4184030000000 1.0
C      1  0.5102480000000  0.5915210000000  0.4501560000000 1.0
C      1  0.4479460000000  0.4168290000000  0.5661390000000 1.0
C      1  0.5280350000000  0.6051400000000  0.4804130000000 1.0
C      1  0.4505900000000  0.4432070000000  0.4193050000000 1.0
C      1  0.4504300000000  0.4054130000000  0.4690560000000 1.0
C      1  0.5572880000000  0.5186790000000  0.5520400000000 1.0
C      1  0.5214090000000  0.5798900000000  0.5778630000000 1.0
C      1  0.5225370000000  0.6092970000000  0.5081350000000 1.0
C      1  0.4253480000000  0.5420810000000  0.4717780000000 1.0
C      1  0.5411310000000  0.4699260000000  0.4754630000000 1.0
C      1  0.5500300000000  0.5155400000000  0.5243790000000 1.0
C      1  0.4819960000000  0.5697410000000  0.4926860000000 1.0
C      1  0.4529470000000  0.4302920000000  0.4815390000000 1.0
C      1  0.4543980000000  0.4912530000000  0.4605710000000 1.0
C      1  0.4539680000000  0.5400130000000  0.4719500000000 1.0
C      1  0.5447990000000  0.5329540000000  0.4150690000000 1.0
C      1  0.5631110000000  0.5115300000000  0.4595680000000 1.0
C      1  0.4558800000000  0.5821580000000  0.4964260000000 1.0
C      1  0.4775590000000  0.5024000000000  0.4120720000000 1.0
C      1  0.5476790000000  0.4437710000000  0.4832740000000 1.0
C      1  0.4545370000000  0.4563620000000  0.5264940000000 1.0
C      1  0.5435400000000  0.5398010000000  0.5680120000000 1.0
C      1  0.4792220000000  0.5540610000000  0.4677590000000 1.0
C      1  0.4151720000000  0.5181480000000  0.4278570000000 1.0
C      1  0.5608190000000  0.4674880000000  0.5200960000000 1.0
C      1  0.4431730000000  0.5153980000000  0.5739260000000 1.0
C      1  0.4612160000000  0.5229400000000  0.4928940000000 1.0
C      1  0.5416570000000  0.3989390000000  0.5193410000000 1.0
C      1  0.4318560000000  0.4580770000000  0.5452570000000 1.0
C      1  0.4302070000000  0.5396280000000  0.4207000000000 1.0
C      1  0.6089920000000  0.4977180000000  0.5060400000000 1.0
C      1  0.5491870000000  0.4612060000000  0.4286510000000 1.0
C      1  0.5863710000000  0.5252670000000  0.5470570000000 1.0
C      1  0.4427130000000  0.5810770000000  0.4448440000000 1.0
C      1  0.6217630000000  0.5207590000000  0.4956990000000 1.0
C      1  0.4292900000000  0.4457420000000  0.4875450000000 1.0
C      1  0.5002440000000  0.4412750000000  0.4353940000000 1.0
C      1  0.5939950000000  0.4712120000000  0.4601370000000 1.0
C      1  0.4125660000000  0.5316910000000  0.5355520000000 1.0
C      1  0.5016650000000  0.4599470000000  0.5363610000000 1.0
C      1  0.4683510000000  0.4944910000000  0.4864560000000 1.0
C      1  0.5279520000000  0.4938710000000  0.3995930000000 1.0
C      1  0.5235060000000  0.5662700000000  0.4517610000000 1.0
C      1  0.4882630000000  0.5438440000000  0.5805870000000 1.0
C      1  0.4823750000000  0.5530680000000  0.5540380000000 1.0
C      1  0.5227630000000  0.5408250000000  0.4972060000000 1.0
C      1  0.4975510000000  0.4923250000000  0.4864570000000 1.0
C      1  0.4495330000000  0.3824030000000  0.4568570000000 1.0
C      1  0.5679360000000  0.4769700000000  0.6047420000000 1.0
C      1  0.5559160000000  0.4938030000000  0.4807670000000 1.0
C      1  0.4546460000000  0.5278260000000  0.5197260000000 1.0
C      1  0.4060060000000  0.4891850000000  0.5143680000000 1.0
C      1  0.5118290000000  0.4711240000000  0.3951980000000 1.0
C      1  0.5590930000000  0.5648190000000  0.5575200000000 1.0
C      1  0.6068550000000  0.4746870000000  0.4868340000000 1.0
C      1  0.4286230000000  0.5953420000000  0.5346130000000 1.0
C      1  0.5214020000000  0.5226660000000  0.4014060000000 1.0
C      1  0.4983320000000  0.4035950000000  0.5629320000000 1.0
C      1  0.5020340000000  0.5582130000000  0.5091110000000 1.0
C      1  0.5307570000000  0.6020570000000  0.5333120000000 1.0
C      1  0.4523940000000  0.4813390000000  0.5092870000000 1.0
C      1  0.4953570000000  0.5424740000000  0.5322950000000 1.0
C      1  0.4851830000000  0.4748680000000  0.4039680000000 1.0
C      1  0.5031770000000  0.4883970000000  0.5385000000000 1.0
C      1  0.4398640000000  0.5752010000000  0.5197330000000 1.0
C      1  0.5774210000000  0.4547160000000  0.5618400000000 1.0
C      1  0.5998610000000  0.4999040000000  0.5349970000000 1.0
C      1  0.5261750000000  0.4258180000000  0.4794820000000 1.0
C      1  0.4180860000000  0.5114960000000  0.5575490000000 1.0
C      1  0.5164640000000  0.4471770000000  0.5569910000000 1.0
C      1  0.5593430000000  0.4652680000000  0.5816800000000 1.0
C      1  0.5456360000000  0.4121510000000  0.5442790000000 1.0
C      1  0.5176180000000  0.5504040000000  0.5818750000000 1.0
C      1  0.5281640000000  0.4031000000000  0.4960640000000 1.0
C      1  0.4725410000000  0.4778350000000  0.5762640000000 1.0
C      1  0.5018370000000  0.4441560000000  0.4670600000000 1.0
C      1  0.5702740000000  0.5828260000000  0.4983400000000 1.0
C      1  0.5088650000000  0.5198380000000  0.4493300000000 1.0
C      1  0.5815950000000  0.5548090000000  0.5398770000000 1.0
C      1  0.5251080000000  0.4463130000000  0.4197940000000 1.0
C      1  0.5710230000000  0.5561710000000  0.4461450000000 1.0
C      1  0.5100770000000  0.5138870000000  0.4998320000000 1.0
C      1  0.5380850000000  0.4876990000000  0.4264070000000 1.0
C      1  0.4244920000000  0.4756940000000  0.4937250000000 1.0
C      1  0.4045360000000  0.4349160000000  0.5785160000000 1.0
C      1  0.4076020000000  0.4696170000000  0.4250780000000 1.0
C      1  0.4260330000000  0.4876190000000  0.4650720000000 1.0
C      1  0.5039530000000  0.5460840000000  0.4555970000000 1.0
C      1  0.4015140000000  0.5180840000000  0.5116280000000 1.0
C      1  0.4050660000000  0.5321270000000  0.4870390000000 1.0
C      1  0.4605660000000  0.4967920000000  0.5597130000000 1.0
C      1  0.5485400000000  0.5401030000000  0.5087440000000 1.0
C      1  0.4717620000000  0.4047650000000  0.5660270000000 1.0
C      1  0.5178880000000  0.4938940000000  0.4456830000000 1.0
C      1  0.4780900000000  0.5596060000000  0.4167900000000 1.0
C      1  0.5126790000000  0.4745040000000  0.4682720000000 1.0
C      1  0.5394880000000  0.5869590000000  0.5560640000000 1.0
C      1  0.4797080000000  0.4395560000000  0.4895580000000 1.0
C      1  0.3600390000000  0.4350650000000  0.6064940000000 1.0
END
