TITL C-3866669-3764-159 8051.6533545646 125000 -1008.94700291608 0 0 164 (C1) n - 1
REM
REM in /home/nfs/bkarasulu/CARBON/AIRSS/Generating-Clusters/LCBOP/Only-C1/SD-CG/HFTN-CG/FIRE-CG
REM
REM
REM
REM
REM
REM ./C.cell (11c1c37f851c82e70ff6c80c92926a4b)
REM AIRSS Version 0.9.1 bugfix July 2018 build 013d7b7c2542+ Fri, 06 Jul 2018 19:26:36 +0100
REM compiler GCC version 9.2.1 20190827 (Red Hat 9.2.1-1)
REM options -cpp -mtune=generic -march=x86-64 -g -O0 -fpre-include=/usr/include/finclude/math-vector-fortran.h
REM seed -877726457 949963134 1781496940 -1836307156 1850981395 -245653857 -1932083969 816378564 -421672662 -2131612201 -402341906 -2040850632 1267694729 -1531428664 -904434817 26123358 301602881 1660239324 -989564791 -1281205616 -1805362090 -2070738414 1379264496 -1780561520 1153710632 1024338374 -823966519 1451145234 2778254 1699293522 189744170 -1741253035 1204956949
REM
CELL 1.54180   50.00000   50.00000   50.00000   90.00000   90.00000   90.00000
LATT -1
SFAC C  
C      1  0.4758990000000  0.4924660000000  0.4399900000000 1.0
C      1  0.4754820000000  0.6049290000000  0.4571450000000 1.0
C      1  0.4018120000000  0.4472180000000  0.5649850000000 1.0
C      1  0.4549320000000  0.5851860000000  0.4554310000000 1.0
C      1  0.5531800000000  0.5249800000000  0.5868150000000 1.0
C      1  0.4692420000000  0.3895770000000  0.4714480000000 1.0
C      1  0.4647920000000  0.5152630000000  0.5967460000000 1.0
C      1  0.6253460000000  0.5687830000000  0.5398420000000 1.0
C      1  0.4782900000000  0.5322900000000  0.5336780000000 1.0
C      1  0.4639180000000  0.5739760000000  0.5625570000000 1.0
C      1  0.5295130000000  0.4515610000000  0.5251690000000 1.0
C      1  0.5109980000000  0.5764840000000  0.5939590000000 1.0
C      1  0.5866430000000  0.4357710000000  0.5595920000000 1.0
C      1  0.5810710000000  0.5820060000000  0.5556460000000 1.0
C      1  0.4259370000000  0.5279930000000  0.4533600000000 1.0
C      1  0.5125440000000  0.5121000000000  0.5593370000000 1.0
C      1  0.5842610000000  0.4272470000000  0.5119320000000 1.0
C      1  0.5576690000000  0.3897540000000  0.4709750000000 1.0
C      1  0.5580120000000  0.4765630000000  0.5734080000000 1.0
C      1  0.5424890000000  0.5885690000000  0.4943440000000 1.0
C      1  0.5298630000000  0.4740550000000  0.3842130000000 1.0
C      1  0.4247660000000  0.4586310000000  0.4281290000000 1.0
C      1  0.4105310000000  0.4982420000000  0.5585790000000 1.0
C      1  0.5589860000000  0.4297530000000  0.5659460000000 1.0
C      1  0.4942720000000  0.5049240000000  0.4937700000000 1.0
C      1  0.3966840000000  0.4747810000000  0.5634210000000 1.0
C      1  0.4468670000000  0.4420830000000  0.5284920000000 1.0
C      1  0.5359020000000  0.5859460000000  0.5824240000000 1.0
C      1  0.4391530000000  0.5604060000000  0.5504210000000 1.0
C      1  0.4189240000000  0.5010830000000  0.4596680000000 1.0
C      1  0.5736690000000  0.5833530000000  0.5278150000000 1.0
C      1  0.5745530000000  0.4801900000000  0.4248420000000 1.0
C      1  0.5034720000000  0.4071600000000  0.5689480000000 1.0
C      1  0.4825250000000  0.5650900000000  0.5847160000000 1.0
C      1  0.5874210000000  0.4342270000000  0.4841760000000 1.0
C      1  0.5660270000000  0.5483900000000  0.5857030000000 1.0
C      1  0.5356510000000  0.5461680000000  0.3899380000000 1.0
C      1  0.5701350000000  0.4519690000000  0.4364330000000 1.0
C      1  0.3835120000000  0.4901900000000  0.4831060000000 1.0
C      1  0.4343220000000  0.5502540000000  0.5209740000000 1.0
C      1  0.4367030000000  0.5202890000000  0.5210210000000 1.0
C      1  0.5490090000000  0.5438260000000  0.4512600000000 1.0
C      1  0.5233450000000  0.5086780000000  0.4866550000000 1.0
C      1  0.4534060000000  0.5679660000000  0.4787220000000 1.0
C      1  0.4010860000000  0.5259660000000  0.5526340000000 1.0
C      1  0.4328300000000  0.4938550000000  0.5112860000000 1.0
C      1  0.5176350000000  0.4549870000000  0.5908950000000 1.0
C      1  0.4761150000000  0.5424840000000  0.3968330000000 1.0
C      1  0.4640310000000  0.4205500000000  0.5383010000000 1.0
C      1  0.4532350000000  0.4702810000000  0.5280450000000 1.0
C      1  0.4016370000000  0.4329660000000  0.5405920000000 1.0
C      1  0.5231680000000  0.5016790000000  0.5320380000000 1.0
C      1  0.4225590000000  0.6477250000000  0.5123430000000 1.0
C      1  0.4309680000000  0.5585490000000  0.4934050000000 1.0
C      1  0.4755870000000  0.4935300000000  0.3951000000000 1.0
C      1  0.3909770000000  0.4969190000000  0.4563630000000 1.0
C      1  0.5008960000000  0.6004500000000  0.5433600000000 1.0
C      1  0.4789390000000  0.4798420000000  0.5376070000000 1.0
C      1  0.4814140000000  0.5321110000000  0.4594180000000 1.0
C      1  0.5014640000000  0.5385220000000  0.5490330000000 1.0
C      1  0.6167300000000  0.5642580000000  0.5144260000000 1.0
C      1  0.5474140000000  0.5929890000000  0.5217930000000 1.0
C      1  0.4557500000000  0.4996520000000  0.4185900000000 1.0
C      1  0.5171730000000  0.4061260000000  0.4805000000000 1.0
C      1  0.4446810000000  0.4213800000000  0.4476560000000 1.0
C      1  0.4226300000000  0.5432030000000  0.5688470000000 1.0
C      1  0.5617780000000  0.5745260000000  0.5755970000000 1.0
C      1  0.4185420000000  0.4384240000000  0.5858210000000 1.0
C      1  0.5022750000000  0.5705890000000  0.4776830000000 1.0
C      1  0.4985630000000  0.4883680000000  0.5188490000000 1.0
C      1  0.5255740000000  0.5658390000000  0.4921680000000 1.0
C      1  0.5811420000000  0.5684330000000  0.4773420000000 1.0
C      1  0.5240690000000  0.5854970000000  0.5379930000000 1.0
C      1  0.5652660000000  0.4762700000000  0.5069650000000 1.0
C      1  0.4394800000000  0.5221170000000  0.5840960000000 1.0
C      1  0.3917960000000  0.4623910000000  0.4833530000000 1.0
C      1  0.4391470000000  0.5020930000000  0.5625850000000 1.0
C      1  0.4823980000000  0.5324200000000  0.5052090000000 1.0
C      1  0.3892100000000  0.5278830000000  0.5260250000000 1.0
C      1  0.6090270000000  0.5781940000000  0.5594880000000 1.0
C      1  0.4773790000000  0.5021780000000  0.4678880000000 1.0
C      1  0.4231780000000  0.4293220000000  0.4657320000000 1.0
C      1  0.4088730000000  0.4518440000000  0.4518150000000 1.0
C      1  0.4551140000000  0.6169250000000  0.5397360000000 1.0
C      1  0.5645280000000  0.4998920000000  0.4055680000000 1.0
C      1  0.5440250000000  0.4390310000000  0.4307540000000 1.0
C      1  0.5257920000000  0.4615500000000  0.4300510000000 1.0
C      1  0.5230130000000  0.4005070000000  0.5491530000000 1.0
C      1  0.4204330000000  0.4346370000000  0.5195700000000 1.0
C      1  0.5343250000000  0.5190510000000  0.5109140000000 1.0
C      1  0.5914220000000  0.4457550000000  0.5330350000000 1.0
C      1  0.5412580000000  0.4620860000000  0.5024980000000 1.0
C      1  0.4558150000000  0.5499210000000  0.4160300000000 1.0
C      1  0.5096520000000  0.5311220000000  0.6058200000000 1.0
C      1  0.4325430000000  0.4907540000000  0.4829970000000 1.0
C      1  0.4708690000000  0.6317290000000  0.4576000000000 1.0
C      1  0.5882240000000  0.5253500000000  0.4399400000000 1.0
C      1  0.5061940000000  0.3962030000000  0.5940430000000 1.0
C      1  0.6010330000000  0.4772860000000  0.4637040000000 1.0
C      1  0.4556780000000  0.5163710000000  0.5424080000000 1.0
C      1  0.6416640000000  0.4882000000000  0.4972060000000 1.0
C      1  0.4709490000000  0.4400930000000  0.5846690000000 1.0
C      1  0.4887460000000  0.4609850000000  0.5941170000000 1.0
C      1  0.4917850000000  0.5185470000000  0.3899150000000 1.0
C      1  0.4838710000000  0.4387820000000  0.4882610000000 1.0
C      1  0.5164900000000  0.6069040000000  0.4152230000000 1.0
C      1  0.4308830000000  0.4830110000000  0.4159710000000 1.0
C      1  0.5494630000000  0.4106610000000  0.5463800000000 1.0
C      1  0.5201020000000  0.5568060000000  0.5377260000000 1.0
C      1  0.5868910000000  0.4515160000000  0.4614130000000 1.0
C      1  0.5272850000000  0.4560090000000  0.4785340000000 1.0
C      1  0.4823650000000  0.5374910000000  0.5976950000000 1.0
C      1  0.5407750000000  0.4992560000000  0.3889580000000 1.0
C      1  0.4657900000000  0.3957390000000  0.5229540000000 1.0
C      1  0.4699220000000  0.4071260000000  0.4495980000000 1.0
C      1  0.4131460000000  0.4353610000000  0.4927160000000 1.0
C      1  0.5542130000000  0.3899320000000  0.5004520000000 1.0
C      1  0.4383980000000  0.6328840000000  0.5267810000000 1.0
C      1  0.5099460000000  0.4332500000000  0.4819320000000 1.0
C      1  0.4582900000000  0.4818930000000  0.4781970000000 1.0
C      1  0.5337910000000  0.4000440000000  0.4573220000000 1.0
C      1  0.5610440000000  0.5478710000000  0.4000760000000 1.0
C      1  0.4584770000000  0.3915540000000  0.4961180000000 1.0
C      1  0.5184920000000  0.5568740000000  0.6151440000000 1.0
C      1  0.4861730000000  0.3776700000000  0.5305310000000 1.0
C      1  0.5820430000000  0.4728370000000  0.5295670000000 1.0
C      1  0.4732550000000  0.5977370000000  0.5486830000000 1.0
C      1  0.5026910000000  0.5357090000000  0.4407830000000 1.0
C      1  0.5744030000000  0.4855640000000  0.5537760000000 1.0
C      1  0.5293590000000  0.5016590000000  0.4603280000000 1.0
C      1  0.3917530000000  0.5212190000000  0.4980370000000 1.0
C      1  0.5611900000000  0.5896180000000  0.4730800000000 1.0
C      1  0.5910750000000  0.4962830000000  0.4446340000000 1.0
C      1  0.5438940000000  0.4520950000000  0.5784920000000 1.0
C      1  0.5303800000000  0.5467800000000  0.5129210000000 1.0
C      1  0.4652880000000  0.4558130000000  0.4816360000000 1.0
C      1  0.4887170000000  0.4924570000000  0.5623690000000 1.0
C      1  0.5012740000000  0.5928560000000  0.4592570000000 1.0
C      1  0.6223390000000  0.4822050000000  0.4807820000000 1.0
C      1  0.4787080000000  0.4888320000000  0.5892450000000 1.0
C      1  0.4434870000000  0.5274680000000  0.4288820000000 1.0
C      1  0.5261160000000  0.4740020000000  0.4554470000000 1.0
C      1  0.4511690000000  0.5742680000000  0.4294350000000 1.0
C      1  0.4741660000000  0.4418520000000  0.4158400000000 1.0
C      1  0.5224120000000  0.5999950000000  0.4410730000000 1.0
C      1  0.5653380000000  0.4068460000000  0.5207560000000 1.0
C      1  0.4856070000000  0.4652360000000  0.4019490000000 1.0
C      1  0.5248450000000  0.3898100000000  0.5028240000000 1.0
C      1  0.5286610000000  0.5257410000000  0.4451080000000 1.0
C      1  0.4136670000000  0.5412460000000  0.4780030000000 1.0
C      1  0.5137370000000  0.4647120000000  0.4048300000000 1.0
C      1  0.5903680000000  0.5707080000000  0.5056580000000 1.0
C      1  0.4797830000000  0.4228740000000  0.5630510000000 1.0
C      1  0.5769520000000  0.5457580000000  0.4583710000000 1.0
C      1  0.5259360000000  0.5180110000000  0.5858190000000 1.0
C      1  0.5260610000000  0.4160910000000  0.4352700000000 1.0
C      1  0.5129370000000  0.3851890000000  0.5275870000000 1.0
C      1  0.4788010000000  0.5520630000000  0.4819900000000 1.0
C      1  0.4913640000000  0.4201660000000  0.4313410000000 1.0
C      1  0.4442660000000  0.4379110000000  0.5930410000000 1.0
C      1  0.5495370000000  0.5992450000000  0.4494600000000 1.0
C      1  0.4465000000000  0.4398680000000  0.4254030000000 1.0
C      1  0.5752000000000  0.5265280000000  0.4125780000000 1.0
C      1  0.5215010000000  0.5213420000000  0.3875780000000 1.0
END
