TITL C-3866670-4165-500 0.000307967483448117 125000 -139.457399923674 0 0 25 (C1) n - 1
REM
REM in /home/nfs/bkarasulu/CARBON/AIRSS/Generating-Clusters/LCBOP/Only-C1/SD-CG/FIRE-CG
REM
REM
REM
REM
REM
REM ./C.cell (11c1c37f851c82e70ff6c80c92926a4b)
REM AIRSS Version 0.9.1 bugfix July 2018 build 013d7b7c2542+ Fri, 06 Jul 2018 19:26:36 +0100
REM compiler GCC version 9.2.1 20190827 (Red Hat 9.2.1-1)
REM options -cpp -mtune=generic -march=x86-64 -g -O0 -fpre-include=/usr/include/finclude/math-vector-fortran.h
REM seed 1792237580 1202153791 -1994041321 29376479 869508456 1858439877 1224761053 805097006 -1069449502 -1793828531 1878267530 1706495125 -229806775 -323248605 -253305891 1336030802 1990577152 -2024540613 1995689966 784816404 -61420903 788885723 -1015582173 -1911991627 -546451294 -2050608851 -278111098 122138426 1600353027 642199273 1587606115 -551603477 -1654279765
REM
CELL 1.54180   50.00000   50.00000   50.00000   90.00000   90.00000   90.00000
LATT -1
SFAC C  
C      1  0.4907280000000  0.4526030000000  0.5262750000000 1.0
C      1  0.4679730000000  0.5532300000000  0.4337960000000 1.0
C      1  0.5401790000000  0.5067510000000  0.5332360000000 1.0
C      1  0.5710360000000  0.4235790000000  0.5799220000000 1.0
C      1  0.5583530000000  0.4419390000000  0.5664430000000 1.0
C      1  0.4617030000000  0.4087880000000  0.5262550000000 1.0
C      1  0.4518460000000  0.5625260000000  0.4138370000000 1.0
C      1  0.4562420000000  0.5237160000000  0.5093740000000 1.0
C      1  0.4990510000000  0.5746220000000  0.4706040000000 1.0
C      1  0.5454150000000  0.4605540000000  0.5527350000000 1.0
C      1  0.5633460000000  0.5180160000000  0.5418210000000 1.0
C      1  0.4983610000000  0.5006630000000  0.5128240000000 1.0
C      1  0.5197960000000  0.5196900000000  0.5174040000000 1.0
C      1  0.4827270000000  0.5706620000000  0.4500200000000 1.0
C      1  0.4802210000000  0.5021960000000  0.4504280000000 1.0
C      1  0.4520340000000  0.4708910000000  0.4742380000000 1.0
C      1  0.4705070000000  0.5258130000000  0.4389860000000 1.0
C      1  0.5057080000000  0.4758470000000  0.5257680000000 1.0
C      1  0.4762570000000  0.4304150000000  0.5264920000000 1.0
C      1  0.5128250000000  0.5652090000000  0.4912750000000 1.0
C      1  0.4687220000000  0.4926050000000  0.4746120000000 1.0
C      1  0.5202220000000  0.5455380000000  0.5074830000000 1.0
C      1  0.5008790000000  0.4885850000000  0.4387220000000 1.0
C      1  0.5314910000000  0.4796360000000  0.5383310000000 1.0
C      1  0.4743780000000  0.5059270000000  0.4991210000000 1.0
END
