TITL C-3866673-4222-651 5.99938770037833e-08 125000 -451.5458819702 0 0 75 (C1) n - 1
REM
REM in /home/nfs/bkarasulu/CARBON/AIRSS/Generating-Clusters/LCBOP/Only-C1/SD-CG/FIRE-CG
REM
REM
REM
REM
REM
REM ./C.cell (11c1c37f851c82e70ff6c80c92926a4b)
REM AIRSS Version 0.9.1 bugfix July 2018 build 013d7b7c2542+ Fri, 06 Jul 2018 19:26:36 +0100
REM compiler GCC version 9.2.1 20190827 (Red Hat 9.2.1-1)
REM options -cpp -mtune=generic -march=x86-64 -g -O0 -fpre-include=/usr/include/finclude/math-vector-fortran.h
REM seed -1980436590 1918520414 -503816803 -860421082 -1228105591 2063867400 -1745409796 -364752618 489990957 263750492 25519397 877631955 9482538 801580712 -230593066 -233574988 629272953 319615670 -537496321 1242463616 -1524330189 -781047421 -77789326 1450074156 403689457 -198014789 1294474593 -810098275 -1040555919 954998978 1542745965 129457495 1170169521
REM
CELL 1.54180   50.00000   50.00000   50.00000   90.00000   90.00000   90.00000
LATT -1
SFAC C  
C      1  0.4823180000000  0.5384160000000  0.5645990000000 1.0
C      1  0.4316910000000  0.4372180000000  0.4627790000000 1.0
C      1  0.4681590000000  0.4683890000000  0.5094590000000 1.0
C      1  0.5654530000000  0.4440890000000  0.5207350000000 1.0
C      1  0.5842340000000  0.4648100000000  0.5273910000000 1.0
C      1  0.5513080000000  0.5744950000000  0.5077410000000 1.0
C      1  0.4960630000000  0.4630870000000  0.4451610000000 1.0
C      1  0.4723610000000  0.5637160000000  0.5565460000000 1.0
C      1  0.5291930000000  0.4535790000000  0.4128040000000 1.0
C      1  0.5314640000000  0.5108940000000  0.5203030000000 1.0
C      1  0.4666850000000  0.5154430000000  0.5585110000000 1.0
C      1  0.5675900000000  0.4277380000000  0.4977900000000 1.0
C      1  0.4430870000000  0.4332900000000  0.4868950000000 1.0
C      1  0.5389020000000  0.4340010000000  0.4288290000000 1.0
C      1  0.5116850000000  0.5376340000000  0.6036320000000 1.0
C      1  0.4527470000000  0.5407840000000  0.4489550000000 1.0
C      1  0.5745180000000  0.4918140000000  0.5284460000000 1.0
C      1  0.5567450000000  0.5237740000000  0.5660320000000 1.0
C      1  0.4983800000000  0.5213920000000  0.4313930000000 1.0
C      1  0.5101890000000  0.5000600000000  0.4137760000000 1.0
C      1  0.4506840000000  0.4966990000000  0.5444390000000 1.0
C      1  0.5217760000000  0.4636260000000  0.5175600000000 1.0
C      1  0.4270590000000  0.5190020000000  0.5077840000000 1.0
C      1  0.5154050000000  0.4889040000000  0.5291670000000 1.0
C      1  0.4257960000000  0.5036350000000  0.5317140000000 1.0
C      1  0.4018730000000  0.4958320000000  0.5423920000000 1.0
C      1  0.5117860000000  0.4483590000000  0.4685470000000 1.0
C      1  0.5273130000000  0.4662450000000  0.4888270000000 1.0
C      1  0.5338030000000  0.5896600000000  0.4663950000000 1.0
C      1  0.5146700000000  0.5211120000000  0.4758920000000 1.0
C      1  0.4678420000000  0.4437620000000  0.4955000000000 1.0
C      1  0.5349110000000  0.4313300000000  0.4567810000000 1.0
C      1  0.4632250000000  0.4490620000000  0.5539960000000 1.0
C      1  0.5372580000000  0.5107490000000  0.4091230000000 1.0
C      1  0.4304520000000  0.5833810000000  0.4757110000000 1.0
C      1  0.5324320000000  0.4339320000000  0.5554420000000 1.0
C      1  0.4377540000000  0.5174960000000  0.4564810000000 1.0
C      1  0.4936190000000  0.5659850000000  0.4488200000000 1.0
C      1  0.4437750000000  0.4506860000000  0.4428510000000 1.0
C      1  0.4785120000000  0.5669580000000  0.5082070000000 1.0
C      1  0.5045970000000  0.5684320000000  0.4984380000000 1.0
C      1  0.4941780000000  0.3960260000000  0.5215270000000 1.0
C      1  0.6104600000000  0.4590080000000  0.5325090000000 1.0
C      1  0.5284640000000  0.5370350000000  0.5306860000000 1.0
C      1  0.5548130000000  0.4223490000000  0.4747720000000 1.0
C      1  0.5221610000000  0.5262300000000  0.4497190000000 1.0
C      1  0.4632850000000  0.5750500000000  0.5324450000000 1.0
C      1  0.4345990000000  0.5715820000000  0.5238760000000 1.0
C      1  0.4267920000000  0.5100190000000  0.4804880000000 1.0
C      1  0.4923210000000  0.4320100000000  0.4858000000000 1.0
C      1  0.5087860000000  0.5374030000000  0.5758350000000 1.0
C      1  0.4370940000000  0.5449660000000  0.5109490000000 1.0
C      1  0.5103410000000  0.4726550000000  0.4219560000000 1.0
C      1  0.4992520000000  0.4073820000000  0.4977360000000 1.0
C      1  0.4683100000000  0.4611940000000  0.4413980000000 1.0
C      1  0.4608980000000  0.4711060000000  0.5369420000000 1.0
C      1  0.5090360000000  0.5762410000000  0.4704550000000 1.0
C      1  0.5540320000000  0.5884230000000  0.4845370000000 1.0
C      1  0.5501100000000  0.4838340000000  0.4847640000000 1.0
C      1  0.4246390000000  0.5887310000000  0.5024400000000 1.0
C      1  0.4796300000000  0.5423840000000  0.4384030000000 1.0
C      1  0.5555010000000  0.5001230000000  0.5081950000000 1.0
C      1  0.5390690000000  0.4460520000000  0.5319660000000 1.0
C      1  0.4592410000000  0.5517400000000  0.4930900000000 1.0
C      1  0.5275000000000  0.5602720000000  0.5143610000000 1.0
C      1  0.4480170000000  0.5618360000000  0.4682850000000 1.0
C      1  0.4934150000000  0.5100310000000  0.4876390000000 1.0
C      1  0.5666400000000  0.4833570000000  0.4630990000000 1.0
C      1  0.4822970000000  0.4027340000000  0.5445890000000 1.0
C      1  0.5447340000000  0.5248200000000  0.4318950000000 1.0
C      1  0.5734830000000  0.5070610000000  0.5526010000000 1.0
C      1  0.5144580000000  0.5376580000000  0.6295450000000 1.0
C      1  0.5319690000000  0.5363410000000  0.5591520000000 1.0
C      1  0.4765490000000  0.4913430000000  0.4958240000000 1.0
C      1  0.4706100000000  0.4235370000000  0.5566790000000 1.0
END
