TITL C-3866670-4165-173 1.70665829420027 125000 -185.87911824577 0 0 32 (C1) n - 1
REM
REM in /home/nfs/bkarasulu/CARBON/AIRSS/Generating-Clusters/LCBOP/Only-C1/SD-CG/HFTN-CG/FIRE-CG
REM
REM
REM
REM
REM
REM ./C.cell (11c1c37f851c82e70ff6c80c92926a4b)
REM AIRSS Version 0.9.1 bugfix July 2018 build 013d7b7c2542+ Fri, 06 Jul 2018 19:26:36 +0100
REM compiler GCC version 9.2.1 20190827 (Red Hat 9.2.1-1)
REM options -cpp -mtune=generic -march=x86-64 -g -O0 -fpre-include=/usr/include/finclude/math-vector-fortran.h
REM seed -1226966048 1173663374 -2028074990 -1254351303 1100418226 -618297917 -1654168231 -921439747 1912729363 1603911024 -1821460068 812951587 -725013302 -1220893984 1853501480 -1449008086 -1222675549 -1023859355 -176833289 -1996877037 820430214 -158143183 880568727 1717173512 -157831225 -1783657357 1072922576 -1365354020 1574686884 458186413 1568415413 -875107809 -1421285989
REM
CELL 1.54180   50.00000   50.00000   50.00000   90.00000   90.00000   90.00000
LATT -1
SFAC C  
C      1  0.5563560000000  0.4807300000000  0.5217910000000 1.0
C      1  0.4918510000000  0.5172590000000  0.5497600000000 1.0
C      1  0.4661020000000  0.4715020000000  0.4801400000000 1.0
C      1  0.4182560000000  0.5481120000000  0.5515250000000 1.0
C      1  0.7159130000000  0.3831910000000  0.4228420000000 1.0
C      1  0.4794020000000  0.5567690000000  0.4789270000000 1.0
C      1  0.6163510000000  0.4440780000000  0.4846830000000 1.0
C      1  0.6762800000000  0.4074290000000  0.4474600000000 1.0
C      1  0.4439820000000  0.5389230000000  0.5556470000000 1.0
C      1  0.6363280000000  0.4318620000000  0.4722750000000 1.0
C      1  0.3751090000000  0.5641800000000  0.5587680000000 1.0
C      1  0.4962090000000  0.5362740000000  0.4768420000000 1.0
C      1  0.5144460000000  0.5052130000000  0.5429400000000 1.0
C      1  0.4549640000000  0.5668050000000  0.4816100000000 1.0
C      1  0.6563040000000  0.4196450000000  0.4598680000000 1.0
C      1  0.4683520000000  0.5286340000000  0.5542930000000 1.0
C      1  0.4111270000000  0.5846800000000  0.4727960000000 1.0
C      1  0.3987490000000  0.5567350000000  0.5713050000000 1.0
C      1  0.4258990000000  0.4451670000000  0.4837930000000 1.0
C      1  0.4882800000000  0.4859030000000  0.4774140000000 1.0
C      1  0.4046640000000  0.5509100000000  0.5253250000000 1.0
C      1  0.4271470000000  0.5659880000000  0.4846980000000 1.0
C      1  0.4238860000000  0.4932110000000  0.4872220000000 1.0
C      1  0.5763980000000  0.4685100000000  0.5094950000000 1.0
C      1  0.4171610000000  0.5185130000000  0.4915100000000 1.0
C      1  0.5963750000000  0.4562940000000  0.4970900000000 1.0
C      1  0.5359260000000  0.4929620000000  0.5334170000000 1.0
C      1  0.3780190000000  0.5609070000000  0.5313440000000 1.0
C      1  0.4158410000000  0.5450370000000  0.5003260000000 1.0
C      1  0.6962610000000  0.3952100000000  0.4350490000000 1.0
C      1  0.4383800000000  0.4694590000000  0.4837170000000 1.0
C      1  0.4996840000000  0.5099050000000  0.4761240000000 1.0
END
