TITL C-3866675-3766-417 0.188011876117866 125000 -112.044578719171 0 0 20 (C1) n - 1
REM
REM in /home/nfs/bkarasulu/CARBON/AIRSS/Generating-Clusters/LCBOP/Only-C1/SD-CG/FIRE-CG
REM
REM
REM
REM
REM
REM ./C.cell (11c1c37f851c82e70ff6c80c92926a4b)
REM AIRSS Version 0.9.1 bugfix July 2018 build 013d7b7c2542+ Fri, 06 Jul 2018 19:26:36 +0100
REM compiler GCC version 9.2.1 20190827 (Red Hat 9.2.1-1)
REM options -cpp -mtune=generic -march=x86-64 -g -O0 -fpre-include=/usr/include/finclude/math-vector-fortran.h
REM seed -804022073 1289816853 819061871 248420065 1653389036 -472484224 876498293 -1268774280 823784598 334925896 2121763866 1168206796 -1086544754 -227610975 537675380 727999243 -1267148949 -550454416 -1120410927 187707762 461707132 1118703543 -1109852830 1754673792 -2076028607 1527822203 -194691049 1655714353 175231012 623598639 75154049 -913914985 -1713295900
REM
CELL 1.54180   50.00000   50.00000   50.00000   90.00000   90.00000   90.00000
LATT -1
SFAC C  
C      1  0.5445590000000  0.4455930000000  0.4817200000000 1.0
C      1  0.5653780000000  0.4579140000000  0.4675560000000 1.0
C      1  0.3753400000000  0.5659400000000  0.4873870000000 1.0
C      1  0.4224730000000  0.5442010000000  0.4957670000000 1.0
C      1  0.5396270000000  0.5234620000000  0.4922360000000 1.0
C      1  0.5190880000000  0.5713910000000  0.5425660000000 1.0
C      1  0.5230560000000  0.4459860000000  0.4972700000000 1.0
C      1  0.5023230000000  0.4566410000000  0.5127290000000 1.0
C      1  0.5665320000000  0.4858820000000  0.4690300000000 1.0
C      1  0.4698990000000  0.4240950000000  0.5410660000000 1.0
C      1  0.5181070000000  0.5289630000000  0.5092170000000 1.0
C      1  0.4462290000000  0.5332470000000  0.4999910000000 1.0
C      1  0.4855890000000  0.4397730000000  0.5273820000000 1.0
C      1  0.5567290000000  0.5088000000000  0.4782120000000 1.0
C      1  0.5189670000000  0.5509060000000  0.5264570000000 1.0
C      1  0.3987110000000  0.5551610000000  0.4915420000000 1.0
C      1  0.4984710000000  0.4843400000000  0.5133860000000 1.0
C      1  0.4700220000000  0.5224220000000  0.5042630000000 1.0
C      1  0.4954020000000  0.5117930000000  0.5090780000000 1.0
C      1  0.5834980000000  0.4434920000000  0.4531460000000 1.0
END
