TITL C-3866673-4222-327 -6.12228128449672e-07 125000 -626.648148237635 0 0 103 (C1) n - 1
REM
REM in /home/nfs/bkarasulu/CARBON/AIRSS/Generating-Clusters/LCBOP/Only-C1/SD-CG/FIRE-CG
REM
REM
REM
REM
REM
REM ./C.cell (11c1c37f851c82e70ff6c80c92926a4b)
REM AIRSS Version 0.9.1 bugfix July 2018 build 013d7b7c2542+ Fri, 06 Jul 2018 19:26:36 +0100
REM compiler GCC version 9.2.1 20190827 (Red Hat 9.2.1-1)
REM options -cpp -mtune=generic -march=x86-64 -g -O0 -fpre-include=/usr/include/finclude/math-vector-fortran.h
REM seed -1097522606 1603363517 -1627075480 8308583 518087907 -683124741 1580393617 -1813637325 -1146311187 -1471761937 197172355 2120951869 849950936 526148151 -518408307 -547578883 -460089540 -1378111318 -257997909 -1252293358 -2032124616 -893377566 -265762794 -169510300 1330192614 -1980530991 199813723 682047492 -671027859 -532582578 -85705418 -817444824 -181977348
REM
CELL 1.54180   50.00000   50.00000   50.00000   90.00000   90.00000   90.00000
LATT -1
SFAC C  
C      1  0.4075130000000  0.5006390000000  0.4698170000000 1.0
C      1  0.4805280000000  0.4355400000000  0.5647960000000 1.0
C      1  0.4786230000000  0.5185730000000  0.4488530000000 1.0
C      1  0.5967820000000  0.5152700000000  0.4974280000000 1.0
C      1  0.5902150000000  0.5122600000000  0.4689760000000 1.0
C      1  0.4166140000000  0.5151710000000  0.5906130000000 1.0
C      1  0.4390790000000  0.5067910000000  0.5133610000000 1.0
C      1  0.4123470000000  0.5054220000000  0.5642370000000 1.0
C      1  0.5213890000000  0.5691980000000  0.4673720000000 1.0
C      1  0.4602730000000  0.4394400000000  0.4234050000000 1.0
C      1  0.3760940000000  0.5321880000000  0.5452500000000 1.0
C      1  0.5904180000000  0.5479380000000  0.5375260000000 1.0
C      1  0.5883860000000  0.5335880000000  0.4477490000000 1.0
C      1  0.5089000000000  0.4718090000000  0.4268790000000 1.0
C      1  0.5304330000000  0.4278030000000  0.5103000000000 1.0
C      1  0.5835630000000  0.4596640000000  0.5773510000000 1.0
C      1  0.4471110000000  0.4902780000000  0.4907160000000 1.0
C      1  0.4602040000000  0.5377010000000  0.4380200000000 1.0
C      1  0.4118820000000  0.4403090000000  0.4627540000000 1.0
C      1  0.4653660000000  0.4528860000000  0.5075000000000 1.0
C      1  0.4605730000000  0.4949800000000  0.6056570000000 1.0
C      1  0.4755070000000  0.5815680000000  0.4579490000000 1.0
C      1  0.4388270000000  0.4419220000000  0.5102940000000 1.0
C      1  0.5728130000000  0.5697480000000  0.5438590000000 1.0
C      1  0.4764780000000  0.5025560000000  0.5425670000000 1.0
C      1  0.4819400000000  0.4583810000000  0.4637520000000 1.0
C      1  0.4943800000000  0.5296370000000  0.5103810000000 1.0
C      1  0.5087490000000  0.4635590000000  0.4541320000000 1.0
C      1  0.5415450000000  0.5005080000000  0.4876020000000 1.0
C      1  0.4112230000000  0.4552040000000  0.4397060000000 1.0
C      1  0.4455640000000  0.4657130000000  0.5706460000000 1.0
C      1  0.4383500000000  0.5106290000000  0.6063950000000 1.0
C      1  0.5090180000000  0.6020650000000  0.5216790000000 1.0
C      1  0.5696640000000  0.5258120000000  0.4258210000000 1.0
C      1  0.5745040000000  0.4893890000000  0.4569370000000 1.0
C      1  0.5046760000000  0.5240620000000  0.4573690000000 1.0
C      1  0.3615800000000  0.5573730000000  0.4779400000000 1.0
C      1  0.4335580000000  0.5277480000000  0.4365080000000 1.0
C      1  0.5998530000000  0.5410940000000  0.5108250000000 1.0
C      1  0.5037870000000  0.5547100000000  0.5192400000000 1.0
C      1  0.5474600000000  0.5713480000000  0.4775820000000 1.0
C      1  0.5556740000000  0.5502890000000  0.4944230000000 1.0
C      1  0.5859340000000  0.4978240000000  0.5457790000000 1.0
C      1  0.5186830000000  0.5101470000000  0.4757210000000 1.0
C      1  0.5192110000000  0.4686080000000  0.5743720000000 1.0
C      1  0.4518910000000  0.4403290000000  0.5580060000000 1.0
C      1  0.5309230000000  0.5996750000000  0.5379250000000 1.0
C      1  0.5256380000000  0.5521370000000  0.4061610000000 1.0
C      1  0.5147940000000  0.4163820000000  0.5307800000000 1.0
C      1  0.4216960000000  0.4793980000000  0.4827090000000 1.0
C      1  0.5502570000000  0.5406280000000  0.4109530000000 1.0
C      1  0.5899050000000  0.4639770000000  0.6041140000000 1.0
C      1  0.4974950000000  0.4177730000000  0.5511360000000 1.0
C      1  0.4204190000000  0.4507080000000  0.4881660000000 1.0
C      1  0.5668840000000  0.5890350000000  0.4677900000000 1.0
C      1  0.5997310000000  0.5591610000000  0.4488100000000 1.0
C      1  0.5156440000000  0.5485740000000  0.4493800000000 1.0
C      1  0.4120350000000  0.5176300000000  0.5149000000000 1.0
C      1  0.4889250000000  0.4739640000000  0.4084990000000 1.0
C      1  0.4321950000000  0.4906300000000  0.3815080000000 1.0
C      1  0.4971450000000  0.5803550000000  0.4779680000000 1.0
C      1  0.4921020000000  0.4593250000000  0.5793610000000 1.0
C      1  0.4351110000000  0.4304720000000  0.5365290000000 1.0
C      1  0.4204430000000  0.4797780000000  0.4277060000000 1.0
C      1  0.4383340000000  0.4784720000000  0.4052090000000 1.0
C      1  0.5465320000000  0.5353570000000  0.5170590000000 1.0
C      1  0.5446870000000  0.5752020000000  0.5422150000000 1.0
C      1  0.5415460000000  0.4781750000000  0.5580810000000 1.0
C      1  0.5702040000000  0.4794440000000  0.5620110000000 1.0
C      1  0.4683960000000  0.4380870000000  0.4491230000000 1.0
C      1  0.5750870000000  0.4128030000000  0.5206650000000 1.0
C      1  0.4679310000000  0.4739720000000  0.5882490000000 1.0
C      1  0.4496640000000  0.4993500000000  0.5381230000000 1.0
C      1  0.5297340000000  0.5525980000000  0.5321490000000 1.0
C      1  0.5098270000000  0.4753000000000  0.5186220000000 1.0
C      1  0.4551020000000  0.5997720000000  0.4605790000000 1.0
C      1  0.5540560000000  0.4140740000000  0.5022200000000 1.0
C      1  0.3984930000000  0.5198750000000  0.4892660000000 1.0
C      1  0.5241880000000  0.4536010000000  0.4993210000000 1.0
C      1  0.4758730000000  0.5628610000000  0.4344200000000 1.0
C      1  0.5903650000000  0.5832830000000  0.4559970000000 1.0
C      1  0.5529900000000  0.4795730000000  0.4722100000000 1.0
C      1  0.5955100000000  0.4685600000000  0.6291490000000 1.0
C      1  0.5347680000000  0.4865850000000  0.5319560000000 1.0
C      1  0.5682440000000  0.4971020000000  0.4296850000000 1.0
C      1  0.5310080000000  0.4607090000000  0.4722270000000 1.0
C      1  0.5871650000000  0.4197680000000  0.5432630000000 1.0
C      1  0.3792500000000  0.5391070000000  0.4837030000000 1.0
C      1  0.5449630000000  0.5073350000000  0.5147230000000 1.0
C      1  0.4977320000000  0.5803770000000  0.5068320000000 1.0
C      1  0.5040020000000  0.5576740000000  0.4243990000000 1.0
C      1  0.4329500000000  0.4871130000000  0.5569040000000 1.0
C      1  0.4165160000000  0.4109280000000  0.5410120000000 1.0
C      1  0.4677670000000  0.4707400000000  0.4850300000000 1.0
C      1  0.4862380000000  0.4575050000000  0.5255760000000 1.0
C      1  0.5558690000000  0.4022230000000  0.4776750000000 1.0
C      1  0.3996990000000  0.5186560000000  0.5415190000000 1.0
C      1  0.4624310000000  0.4634960000000  0.4084360000000 1.0
C      1  0.4173430000000  0.5047310000000  0.4427840000000 1.0
C      1  0.5935900000000  0.4944240000000  0.5177890000000 1.0
C      1  0.4937000000000  0.5033420000000  0.5205130000000 1.0
C      1  0.5897910000000  0.5248250000000  0.5545460000000 1.0
C      1  0.5899490000000  0.4357320000000  0.5643160000000 1.0
END
