TITL C-3866676-3738-674 -65.3986978745375 125000 -836.167185550423 0 0 137 (C1) n - 1
REM
REM in /home/nfs/bkarasulu/CARBON/AIRSS/Generating-Clusters/LCBOP/Only-C1/SD-CG/FIRE-CG
REM
REM
REM
REM
REM
REM ./C.cell (11c1c37f851c82e70ff6c80c92926a4b)
REM AIRSS Version 0.9.1 bugfix July 2018 build 013d7b7c2542+ Fri, 06 Jul 2018 19:26:36 +0100
REM compiler GCC version 9.2.1 20190827 (Red Hat 9.2.1-1)
REM options -cpp -mtune=generic -march=x86-64 -g -O0 -fpre-include=/usr/include/finclude/math-vector-fortran.h
REM seed 1419499730 -2028395254 -116713863 1064893090 80000037 -1577270281 -1457892443 400161383 328091904 2069637173 1051043177 326775268 1753469355 1761726530 1291760179 211279886 -1284541648 847959885 -559920209 1103567411 1542136757 1825455503 118896856 -1780488283 2005990969 73735263 1138539584 136893810 -1736861173 194929004 -1435125146 -1643088033 -1776955514
REM
CELL 1.54180   50.00000   50.00000   50.00000   90.00000   90.00000   90.00000
LATT -1
SFAC C  
C      1  0.5586290000000  0.5453410000000  0.5265440000000 1.0
C      1  0.4328490000000  0.4999150000000  0.5272050000000 1.0
C      1  0.4453780000000  0.4998050000000  0.4691250000000 1.0
C      1  0.4613480000000  0.4606120000000  0.5176830000000 1.0
C      1  0.4960310000000  0.4206180000000  0.5715930000000 1.0
C      1  0.4170750000000  0.5347990000000  0.4002190000000 1.0
C      1  0.5747370000000  0.5374810000000  0.5523240000000 1.0
C      1  0.5342350000000  0.5628070000000  0.4240430000000 1.0
C      1  0.4893220000000  0.4479970000000  0.5672860000000 1.0
C      1  0.6089280000000  0.5412680000000  0.4970260000000 1.0
C      1  0.4087300000000  0.5372390000000  0.3743130000000 1.0
C      1  0.5850650000000  0.4619380000000  0.4944290000000 1.0
C      1  0.4397400000000  0.4137110000000  0.4863190000000 1.0
C      1  0.4857850000000  0.3841500000000  0.5118440000000 1.0
C      1  0.5077400000000  0.5989460000000  0.5485580000000 1.0
C      1  0.4545020000000  0.5264680000000  0.4722610000000 1.0
C      1  0.5143400000000  0.3737950000000  0.5556600000000 1.0
C      1  0.5109720000000  0.5263110000000  0.4443220000000 1.0
C      1  0.4393760000000  0.4004150000000  0.5110810000000 1.0
C      1  0.5371570000000  0.4958090000000  0.5354280000000 1.0
C      1  0.5244970000000  0.4470200000000  0.5277600000000 1.0
C      1  0.5185630000000  0.5374900000000  0.5659920000000 1.0
C      1  0.4382240000000  0.5711600000000  0.5496820000000 1.0
C      1  0.5831850000000  0.5357310000000  0.4861000000000 1.0
C      1  0.4778110000000  0.5475380000000  0.5879510000000 1.0
C      1  0.4972810000000  0.4870410000000  0.5007430000000 1.0
C      1  0.5242020000000  0.4314700000000  0.4817920000000 1.0
C      1  0.4839190000000  0.5649070000000  0.4292490000000 1.0
C      1  0.5630480000000  0.5445280000000  0.3880920000000 1.0
C      1  0.5173420000000  0.3605900000000  0.4835250000000 1.0
C      1  0.5338660000000  0.5526370000000  0.5142800000000 1.0
C      1  0.4141970000000  0.4284720000000  0.5496150000000 1.0
C      1  0.5989640000000  0.5216240000000  0.5417130000000 1.0
C      1  0.4834460000000  0.5912030000000  0.4401770000000 1.0
C      1  0.4341290000000  0.5490270000000  0.5686940000000 1.0
C      1  0.5632470000000  0.5006570000000  0.5221460000000 1.0
C      1  0.4762170000000  0.5001980000000  0.5508600000000 1.0
C      1  0.4631480000000  0.5811510000000  0.5384050000000 1.0
C      1  0.6229890000000  0.4976320000000  0.5070530000000 1.0
C      1  0.4826030000000  0.5899910000000  0.4902810000000 1.0
C      1  0.5792020000000  0.5059070000000  0.4307330000000 1.0
C      1  0.4199450000000  0.5894120000000  0.4796040000000 1.0
C      1  0.5753370000000  0.5379550000000  0.3374120000000 1.0
C      1  0.5352140000000  0.5293400000000  0.5868780000000 1.0
C      1  0.4542550000000  0.4306880000000  0.4716250000000 1.0
C      1  0.4128580000000  0.5704860000000  0.5351120000000 1.0
C      1  0.4470490000000  0.5478480000000  0.4553760000000 1.0
C      1  0.4241830000000  0.4108110000000  0.5322990000000 1.0
C      1  0.4871650000000  0.5442090000000  0.5067570000000 1.0
C      1  0.4975900000000  0.5663900000000  0.4902210000000 1.0
C      1  0.3908530000000  0.4515350000000  0.4811920000000 1.0
C      1  0.5397930000000  0.4843060000000  0.4733460000000 1.0
C      1  0.5186800000000  0.5017430000000  0.4326480000000 1.0
C      1  0.4440090000000  0.5238630000000  0.5173620000000 1.0
C      1  0.4814770000000  0.6022890000000  0.4647810000000 1.0
C      1  0.4129560000000  0.4778940000000  0.5663780000000 1.0
C      1  0.5208920000000  0.5112670000000  0.6040900000000 1.0
C      1  0.5309550000000  0.3322800000000  0.5365980000000 1.0
C      1  0.4002950000000  0.5235420000000  0.4198490000000 1.0
C      1  0.4967240000000  0.4097240000000  0.5143760000000 1.0
C      1  0.5375180000000  0.4670990000000  0.5416250000000 1.0
C      1  0.5505480000000  0.4066330000000  0.4364970000000 1.0
C      1  0.5853030000000  0.3896190000000  0.5288700000000 1.0
C      1  0.5422620000000  0.5809430000000  0.4448000000000 1.0
C      1  0.4042590000000  0.4741590000000  0.4739980000000 1.0
C      1  0.5172660000000  0.5269400000000  0.4728270000000 1.0
C      1  0.3865690000000  0.5367840000000  0.4419270000000 1.0
C      1  0.5059620000000  0.3960550000000  0.5679410000000 1.0
C      1  0.4716430000000  0.4530120000000  0.5442240000000 1.0
C      1  0.5644230000000  0.4815870000000  0.4320180000000 1.0
C      1  0.4626460000000  0.5328570000000  0.4989150000000 1.0
C      1  0.6167180000000  0.5234390000000  0.5182010000000 1.0
C      1  0.6070960000000  0.4796410000000  0.4944850000000 1.0
C      1  0.5897800000000  0.4373400000000  0.5075650000000 1.0
C      1  0.5285270000000  0.6124700000000  0.5392100000000 1.0
C      1  0.5715120000000  0.5331130000000  0.4359790000000 1.0
C      1  0.5260910000000  0.3934800000000  0.4429920000000 1.0
C      1  0.5861160000000  0.4951240000000  0.5399440000000 1.0
C      1  0.5037280000000  0.4113050000000  0.4441000000000 1.0
C      1  0.5625160000000  0.5235010000000  0.5778520000000 1.0
C      1  0.5493570000000  0.4393140000000  0.4717730000000 1.0
C      1  0.5703580000000  0.5451420000000  0.4626950000000 1.0
C      1  0.4005080000000  0.4958790000000  0.4287270000000 1.0
C      1  0.3930250000000  0.4932800000000  0.4565810000000 1.0
C      1  0.4377850000000  0.4766930000000  0.5115960000000 1.0
C      1  0.4579760000000  0.3790500000000  0.5148640000000 1.0
C      1  0.5443230000000  0.6078980000000  0.4430010000000 1.0
C      1  0.4489180000000  0.3540190000000  0.5212690000000 1.0
C      1  0.4810540000000  0.4633930000000  0.4955340000000 1.0
C      1  0.5227320000000  0.4829070000000  0.5992120000000 1.0
C      1  0.5794660000000  0.4796320000000  0.5623060000000 1.0
C      1  0.4368120000000  0.5987320000000  0.5001480000000 1.0
C      1  0.5692400000000  0.5412920000000  0.3625380000000 1.0
C      1  0.3782940000000  0.5273470000000  0.4914430000000 1.0
C      1  0.4888800000000  0.5784580000000  0.5522880000000 1.0
C      1  0.5033800000000  0.4669960000000  0.5847250000000 1.0
C      1  0.4260900000000  0.5020490000000  0.5563610000000 1.0
C      1  0.5698100000000  0.4950470000000  0.5844180000000 1.0
C      1  0.5017360000000  0.4311520000000  0.4640460000000 1.0
C      1  0.5590050000000  0.4644160000000  0.4823870000000 1.0
C      1  0.5489590000000  0.5647310000000  0.4673000000000 1.0
C      1  0.5705740000000  0.4537180000000  0.4306690000000 1.0
C      1  0.5595270000000  0.4318870000000  0.4457550000000 1.0
C      1  0.5175680000000  0.3559110000000  0.5339000000000 1.0
C      1  0.5171530000000  0.4280400000000  0.5089850000000 1.0
C      1  0.5391590000000  0.4863100000000  0.4443360000000 1.0
C      1  0.3832400000000  0.5196250000000  0.4651890000000 1.0
C      1  0.5718090000000  0.6221210000000  0.5106690000000 1.0
C      1  0.4291860000000  0.5674480000000  0.4647140000000 1.0
C      1  0.5205470000000  0.5198670000000  0.5429760000000 1.0
C      1  0.5262100000000  0.5557420000000  0.4847900000000 1.0
C      1  0.4099070000000  0.4516380000000  0.5621650000000 1.0
C      1  0.4546350000000  0.5077860000000  0.5679280000000 1.0
C      1  0.4883280000000  0.4963320000000  0.5269070000000 1.0
C      1  0.5672050000000  0.5244850000000  0.5069280000000 1.0
C      1  0.5058260000000  0.3639090000000  0.5090680000000 1.0
C      1  0.4549570000000  0.5338620000000  0.5804030000000 1.0
C      1  0.5892800000000  0.4131950000000  0.5184770000000 1.0
C      1  0.5502290000000  0.6198380000000  0.5258930000000 1.0
C      1  0.5611090000000  0.4589490000000  0.5556860000000 1.0
C      1  0.5563790000000  0.5466960000000  0.4150090000000 1.0
C      1  0.5086380000000  0.5504420000000  0.4291250000000 1.0
C      1  0.5184520000000  0.4998400000000  0.4852610000000 1.0
C      1  0.3987810000000  0.5450650000000  0.5372480000000 1.0
C      1  0.4130300000000  0.5305120000000  0.5582530000000 1.0
C      1  0.4969520000000  0.5561700000000  0.5691340000000 1.0
C      1  0.4427560000000  0.5435760000000  0.4079820000000 1.0
C      1  0.5514070000000  0.4792450000000  0.6003750000000 1.0
C      1  0.4622270000000  0.5923380000000  0.5109120000000 1.0
C      1  0.5927480000000  0.6218370000000  0.4951410000000 1.0
C      1  0.5103650000000  0.5369520000000  0.5226330000000 1.0
C      1  0.4588210000000  0.5511900000000  0.4295940000000 1.0
C      1  0.4300990000000  0.4806090000000  0.4839190000000 1.0
C      1  0.3958410000000  0.6010970000000  0.4744510000000 1.0
C      1  0.3831540000000  0.5350290000000  0.5165090000000 1.0
C      1  0.5246970000000  0.3707990000000  0.4597900000000 1.0
C      1  0.4787690000000  0.4444240000000  0.4740350000000 1.0
END
