TITL C-3866669-3764-802 -4.04671602997448e-08 125000 -607.555437781103 0 0 101 (C1) n - 1
REM
REM in /home/nfs/bkarasulu/CARBON/AIRSS/Generating-Clusters/LCBOP/Only-C1/SD-CG/FIRE-CG
REM
REM
REM
REM
REM
REM ./C.cell (11c1c37f851c82e70ff6c80c92926a4b)
REM AIRSS Version 0.9.1 bugfix July 2018 build 013d7b7c2542+ Fri, 06 Jul 2018 19:26:36 +0100
REM compiler GCC version 9.2.1 20190827 (Red Hat 9.2.1-1)
REM options -cpp -mtune=generic -march=x86-64 -g -O0 -fpre-include=/usr/include/finclude/math-vector-fortran.h
REM seed -850255999 -1245124590 1062269842 820914314 1749848252 1974210299 481722399 -797418808 -1062242846 348633681 -11004581 1330931212 799031496 -139348347 2092733548 -1499425259 601282121 962830032 939752741 504892726 -835218800 -636580114 -1009415937 -117196115 278545354 -1156340250 1965123059 -1403104409 67722301 1473025559 1792484801 2123564314 1428148292
REM
CELL 1.54180   50.00000   50.00000   50.00000   90.00000   90.00000   90.00000
LATT -1
SFAC C  
C      1  0.4319210000000  0.4759320000000  0.4771290000000 1.0
C      1  0.5590520000000  0.4194500000000  0.4830420000000 1.0
C      1  0.4954260000000  0.4557320000000  0.4087510000000 1.0
C      1  0.5013160000000  0.5393410000000  0.3767200000000 1.0
C      1  0.4819550000000  0.4875180000000  0.4613860000000 1.0
C      1  0.4788350000000  0.3995860000000  0.4862510000000 1.0
C      1  0.4089990000000  0.5566000000000  0.5333230000000 1.0
C      1  0.5352870000000  0.4544320000000  0.5486990000000 1.0
C      1  0.4892370000000  0.6140680000000  0.5689260000000 1.0
C      1  0.5284700000000  0.5230150000000  0.5695340000000 1.0
C      1  0.5425020000000  0.5661930000000  0.4645400000000 1.0
C      1  0.4472050000000  0.5031620000000  0.4165240000000 1.0
C      1  0.4948330000000  0.5256910000000  0.3996680000000 1.0
C      1  0.4188880000000  0.5165030000000  0.4559700000000 1.0
C      1  0.5935460000000  0.4442420000000  0.5050680000000 1.0
C      1  0.4277980000000  0.5746500000000  0.5447250000000 1.0
C      1  0.4428810000000  0.5159740000000  0.4413190000000 1.0
C      1  0.5302380000000  0.4855170000000  0.4714870000000 1.0
C      1  0.5664240000000  0.5702290000000  0.5277420000000 1.0
C      1  0.4920370000000  0.4923120000000  0.5951070000000 1.0
C      1  0.5219860000000  0.5707250000000  0.4872910000000 1.0
C      1  0.4718520000000  0.4603940000000  0.4572800000000 1.0
C      1  0.5643160000000  0.4354360000000  0.4591530000000 1.0
C      1  0.4109680000000  0.5138630000000  0.5054260000000 1.0
C      1  0.4426940000000  0.4621840000000  0.5474610000000 1.0
C      1  0.4776960000000  0.5592280000000  0.5249680000000 1.0
C      1  0.4227360000000  0.4825390000000  0.5480310000000 1.0
C      1  0.4947860000000  0.4905040000000  0.5085130000000 1.0
C      1  0.5954350000000  0.4713250000000  0.4959360000000 1.0
C      1  0.5195290000000  0.5840560000000  0.5155390000000 1.0
C      1  0.4809220000000  0.5350260000000  0.4659510000000 1.0
C      1  0.4481520000000  0.4708650000000  0.5010430000000 1.0
C      1  0.4823090000000  0.4346330000000  0.4504280000000 1.0
C      1  0.4469420000000  0.4744100000000  0.4207290000000 1.0
C      1  0.5210380000000  0.4465940000000  0.4978290000000 1.0
C      1  0.5762470000000  0.4914090000000  0.4530530000000 1.0
C      1  0.4893150000000  0.4157200000000  0.5762940000000 1.0
C      1  0.4793430000000  0.4158920000000  0.5090410000000 1.0
C      1  0.5403060000000  0.4695700000000  0.4276210000000 1.0
C      1  0.4661740000000  0.4916950000000  0.5097740000000 1.0
C      1  0.4474500000000  0.5678000000000  0.4744960000000 1.0
C      1  0.5192360000000  0.5419850000000  0.4955500000000 1.0
C      1  0.4888940000000  0.3899350000000  0.5800450000000 1.0
C      1  0.5035820000000  0.5255750000000  0.4799000000000 1.0
C      1  0.4670850000000  0.5128280000000  0.4559060000000 1.0
C      1  0.4900130000000  0.4430700000000  0.5702050000000 1.0
C      1  0.4567390000000  0.5161280000000  0.5197870000000 1.0
C      1  0.5463070000000  0.4425000000000  0.4379770000000 1.0
C      1  0.5375900000000  0.5217760000000  0.4372530000000 1.0
C      1  0.4650540000000  0.4561000000000  0.5641740000000 1.0
C      1  0.4741040000000  0.5622360000000  0.4676760000000 1.0
C      1  0.5173300000000  0.4803620000000  0.5875560000000 1.0
C      1  0.5087470000000  0.5165250000000  0.5501880000000 1.0
C      1  0.4678030000000  0.4617460000000  0.4051740000000 1.0
C      1  0.5350660000000  0.4796670000000  0.5346380000000 1.0
C      1  0.5464230000000  0.4934390000000  0.4468480000000 1.0
C      1  0.5390610000000  0.4676820000000  0.4910640000000 1.0
C      1  0.5328800000000  0.5500450000000  0.5749800000000 1.0
C      1  0.5043950000000  0.4960070000000  0.4799540000000 1.0
C      1  0.5790070000000  0.4878060000000  0.5121090000000 1.0
C      1  0.4549620000000  0.4252090000000  0.5186290000000 1.0
C      1  0.4684210000000  0.5352500000000  0.5364850000000 1.0
C      1  0.4448140000000  0.4509290000000  0.5210580000000 1.0
C      1  0.3849670000000  0.5527150000000  0.5459890000000 1.0
C      1  0.5192030000000  0.4715290000000  0.4078930000000 1.0
C      1  0.5147530000000  0.5236000000000  0.4199360000000 1.0
C      1  0.5024430000000  0.4320810000000  0.5105620000000 1.0
C      1  0.5950910000000  0.4799800000000  0.4688610000000 1.0
C      1  0.4994340000000  0.4345980000000  0.4268080000000 1.0
C      1  0.5689180000000  0.4292690000000  0.5089470000000 1.0
C      1  0.4893170000000  0.5873860000000  0.5249240000000 1.0
C      1  0.5387570000000  0.4003970000000  0.4771450000000 1.0
C      1  0.5015080000000  0.6299510000000  0.5855470000000 1.0
C      1  0.4908250000000  0.4097890000000  0.4633660000000 1.0
C      1  0.5840720000000  0.5518520000000  0.5363040000000 1.0
C      1  0.5853990000000  0.5121760000000  0.5701560000000 1.0
C      1  0.5336030000000  0.5731280000000  0.5613620000000 1.0
C      1  0.5405030000000  0.5792630000000  0.5346540000000 1.0
C      1  0.4434770000000  0.4661440000000  0.4502320000000 1.0
C      1  0.5526180000000  0.4346120000000  0.5340270000000 1.0
C      1  0.5118600000000  0.4956170000000  0.5313580000000 1.0
C      1  0.5908030000000  0.5316090000000  0.5524990000000 1.0
C      1  0.4775160000000  0.6074140000000  0.5046800000000 1.0
C      1  0.5247930000000  0.4234700000000  0.4348950000000 1.0
C      1  0.5515890000000  0.5462190000000  0.4456210000000 1.0
C      1  0.4103200000000  0.4983100000000  0.5296370000000 1.0
C      1  0.4823580000000  0.5236460000000  0.5581350000000 1.0
C      1  0.4968730000000  0.5788540000000  0.4716450000000 1.0
C      1  0.5189390000000  0.4048860000000  0.4572710000000 1.0
C      1  0.5384140000000  0.4999450000000  0.5834410000000 1.0
C      1  0.4760340000000  0.5108740000000  0.5827560000000 1.0
C      1  0.5760190000000  0.5509950000000  0.4336380000000 1.0
C      1  0.5158910000000  0.4562200000000  0.5707950000000 1.0
C      1  0.4686680000000  0.5145910000000  0.4015710000000 1.0
C      1  0.4141370000000  0.5429590000000  0.5083850000000 1.0
C      1  0.5664740000000  0.4984300000000  0.5835330000000 1.0
C      1  0.5521650000000  0.4806500000000  0.5128710000000 1.0
C      1  0.4263880000000  0.5584810000000  0.4881480000000 1.0
C      1  0.4488640000000  0.5891240000000  0.5531620000000 1.0
C      1  0.4761510000000  0.5976330000000  0.5507810000000 1.0
C      1  0.4162970000000  0.5007860000000  0.4795410000000 1.0
END
