TITL C-3866669-3764-282 5.1266004128019e-07 125000 -623.162687421192 0 0 101 (C1) n - 1
REM
REM in /home/nfs/bkarasulu/CARBON/AIRSS/Generating-Clusters/LCBOP/Only-C1/SD-CG/HFTN-CG/FIRE-CG
REM
REM
REM
REM
REM
REM ./C.cell (11c1c37f851c82e70ff6c80c92926a4b)
REM AIRSS Version 0.9.1 bugfix July 2018 build 013d7b7c2542+ Fri, 06 Jul 2018 19:26:36 +0100
REM compiler GCC version 9.2.1 20190827 (Red Hat 9.2.1-1)
REM options -cpp -mtune=generic -march=x86-64 -g -O0 -fpre-include=/usr/include/finclude/math-vector-fortran.h
REM seed -1828485205 -382493014 -743285025 1105392570 519653337 1556995389 -271532880 1061501361 -196285130 -1941855461 -46708572 -1040762681 841949413 -1786061285 187333349 -2129680361 667672393 -203399984 -1422283796 1808371661 94085363 320478156 771540937 -126388540 -1128303700 1895668097 1969498243 1573568229 1973803947 1200198536 -736091816 668357900 2083003042
REM
CELL 1.54180   50.00000   50.00000   50.00000   90.00000   90.00000   90.00000
LATT -1
SFAC C  
C      1  0.4046810000000  0.4683180000000  0.4852480000000 1.0
C      1  0.4615710000000  0.4405430000000  0.4507810000000 1.0
C      1  0.5712290000000  0.5496800000000  0.4580560000000 1.0
C      1  0.5538390000000  0.5190650000000  0.4192650000000 1.0
C      1  0.4818280000000  0.5513340000000  0.4187200000000 1.0
C      1  0.5453170000000  0.5624840000000  0.4592600000000 1.0
C      1  0.5265840000000  0.5314610000000  0.4251370000000 1.0
C      1  0.4802320000000  0.5158360000000  0.5307250000000 1.0
C      1  0.5319920000000  0.4284150000000  0.4559180000000 1.0
C      1  0.4966800000000  0.4573150000000  0.5083800000000 1.0
C      1  0.4963360000000  0.4278560000000  0.4976210000000 1.0
C      1  0.4660470000000  0.5813130000000  0.5346710000000 1.0
C      1  0.4586770000000  0.5910300000000  0.4907270000000 1.0
C      1  0.5354260000000  0.5615300000000  0.4861720000000 1.0
C      1  0.4591370000000  0.5765480000000  0.4665780000000 1.0
C      1  0.4609440000000  0.5151150000000  0.6015080000000 1.0
C      1  0.4371810000000  0.5096260000000  0.4594580000000 1.0
C      1  0.5556840000000  0.5775910000000  0.5231530000000 1.0
C      1  0.5255420000000  0.4917610000000  0.4600780000000 1.0
C      1  0.4447190000000  0.5462000000000  0.5678670000000 1.0
C      1  0.4526890000000  0.4865880000000  0.4561650000000 1.0
C      1  0.4541880000000  0.4211370000000  0.5173560000000 1.0
C      1  0.4467900000000  0.5782430000000  0.5138210000000 1.0
C      1  0.5495060000000  0.5977160000000  0.5679780000000 1.0
C      1  0.5229870000000  0.4867050000000  0.5784380000000 1.0
C      1  0.4299200000000  0.4554900000000  0.4883270000000 1.0
C      1  0.5496350000000  0.5300850000000  0.5444170000000 1.0
C      1  0.4424760000000  0.5573570000000  0.4527170000000 1.0
C      1  0.5941820000000  0.4510120000000  0.5264090000000 1.0
C      1  0.4534490000000  0.4895420000000  0.5999470000000 1.0
C      1  0.4905720000000  0.5442480000000  0.4778320000000 1.0
C      1  0.4672900000000  0.4117570000000  0.4943890000000 1.0
C      1  0.4996180000000  0.4818300000000  0.4657430000000 1.0
C      1  0.5844670000000  0.5456850000000  0.4853740000000 1.0
C      1  0.4793700000000  0.4892030000000  0.4463400000000 1.0
C      1  0.5338240000000  0.5838320000000  0.5042820000000 1.0
C      1  0.4931110000000  0.5385430000000  0.5727560000000 1.0
C      1  0.4857770000000  0.5025270000000  0.4219650000000 1.0
C      1  0.6022450000000  0.4758760000000  0.5189380000000 1.0
C      1  0.5567580000000  0.4063410000000  0.4922730000000 1.0
C      1  0.4910850000000  0.5390190000000  0.5443290000000 1.0
C      1  0.5894820000000  0.4993760000000  0.5096200000000 1.0
C      1  0.4384050000000  0.5382740000000  0.5409370000000 1.0
C      1  0.5297710000000  0.4102970000000  0.5318460000000 1.0
C      1  0.5387900000000  0.4554090000000  0.5043830000000 1.0
C      1  0.4374710000000  0.4443600000000  0.5147010000000 1.0
C      1  0.5609120000000  0.4974100000000  0.5135120000000 1.0
C      1  0.5483820000000  0.5756880000000  0.5517380000000 1.0
C      1  0.4929720000000  0.4808590000000  0.4935600000000 1.0
C      1  0.4734920000000  0.4165000000000  0.5873510000000 1.0
C      1  0.4048550000000  0.5029080000000  0.5303300000000 1.0
C      1  0.5207040000000  0.5373030000000  0.5804760000000 1.0
C      1  0.5554230000000  0.4138870000000  0.5195270000000 1.0
C      1  0.5049980000000  0.5270780000000  0.4937500000000 1.0
C      1  0.4922480000000  0.5061790000000  0.5071780000000 1.0
C      1  0.4858040000000  0.5667510000000  0.4621200000000 1.0
C      1  0.5400140000000  0.5497620000000  0.5619320000000 1.0
C      1  0.4525070000000  0.5142310000000  0.5341440000000 1.0
C      1  0.5528290000000  0.4915800000000  0.4107470000000 1.0
C      1  0.4877340000000  0.5653890000000  0.5356530000000 1.0
C      1  0.5748160000000  0.5039560000000  0.4627790000000 1.0
C      1  0.5023030000000  0.4142480000000  0.5263990000000 1.0
C      1  0.5646570000000  0.3937830000000  0.4465700000000 1.0
C      1  0.5778930000000  0.5632160000000  0.5084490000000 1.0
C      1  0.4470670000000  0.4599170000000  0.4653330000000 1.0
C      1  0.5517180000000  0.4866440000000  0.4696710000000 1.0
C      1  0.4538370000000  0.5516830000000  0.4262240000000 1.0
C      1  0.4324800000000  0.4581050000000  0.5397450000000 1.0
C      1  0.4979110000000  0.5273410000000  0.4136760000000 1.0
C      1  0.5224010000000  0.5174070000000  0.4509240000000 1.0
C      1  0.5466170000000  0.5209900000000  0.5185320000000 1.0
C      1  0.4739620000000  0.3950580000000  0.4514730000000 1.0
C      1  0.5716020000000  0.5245950000000  0.4419690000000 1.0
C      1  0.4037770000000  0.5139970000000  0.5040680000000 1.0
C      1  0.5107640000000  0.6004220000000  0.5023640000000 1.0
C      1  0.4643170000000  0.3902900000000  0.4764970000000 1.0
C      1  0.4667650000000  0.5367110000000  0.5845220000000 1.0
C      1  0.4480130000000  0.4508270000000  0.5631650000000 1.0
C      1  0.4657410000000  0.4280200000000  0.5638080000000 1.0
C      1  0.5903760000000  0.5160780000000  0.4859250000000 1.0
C      1  0.3956670000000  0.4938450000000  0.4857100000000 1.0
C      1  0.5767330000000  0.4304750000000  0.5288360000000 1.0
C      1  0.4744080000000  0.4177490000000  0.5388380000000 1.0
C      1  0.5271010000000  0.5603450000000  0.4364610000000 1.0
C      1  0.4311190000000  0.5358840000000  0.4686420000000 1.0
C      1  0.4843400000000  0.6043110000000  0.4963910000000 1.0
C      1  0.5311090000000  0.5357050000000  0.4992250000000 1.0
C      1  0.5507840000000  0.4778830000000  0.4964210000000 1.0
C      1  0.5131770000000  0.4709630000000  0.5591210000000 1.0
C      1  0.4146510000000  0.4800470000000  0.5407980000000 1.0
C      1  0.5277000000000  0.5110000000000  0.5892050000000 1.0
C      1  0.5514800000000  0.4093660000000  0.4648390000000 1.0
C      1  0.5057370000000  0.4272020000000  0.4674850000000 1.0
C      1  0.4478910000000  0.4678980000000  0.5855100000000 1.0
C      1  0.5386580000000  0.4461170000000  0.4344570000000 1.0
C      1  0.4197560000000  0.5372390000000  0.4955900000000 1.0
C      1  0.4987480000000  0.5676930000000  0.4368600000000 1.0
C      1  0.4829870000000  0.4220390000000  0.4495110000000 1.0
C      1  0.5024880000000  0.4619240000000  0.5362930000000 1.0
C      1  0.4314300000000  0.5537390000000  0.5167570000000 1.0
C      1  0.5466440000000  0.4662870000000  0.4183290000000 1.0
END
