TITL C-3866672-3872-704 -0.261297031449724 125000 -387.55874381633 0 0 65 (C1) n - 1
REM
REM in /home/nfs/bkarasulu/CARBON/AIRSS/Generating-Clusters/LCBOP/Only-C1/SD-CG/FIRE-CG
REM
REM
REM
REM
REM
REM ./C.cell (11c1c37f851c82e70ff6c80c92926a4b)
REM AIRSS Version 0.9.1 bugfix July 2018 build 013d7b7c2542+ Fri, 06 Jul 2018 19:26:36 +0100
REM compiler GCC version 9.2.1 20190827 (Red Hat 9.2.1-1)
REM options -cpp -mtune=generic -march=x86-64 -g -O0 -fpre-include=/usr/include/finclude/math-vector-fortran.h
REM seed -852964441 -1042349309 -1776096914 -309120408 -1270449956 1845750544 159201759 1291740491 -1370024627 -202657832 -1644340638 -215377023 -1427407296 -514513877 -976796390 333308282 201004804 -1547884903 1112402860 -1019253715 -1312417669 1128127127 -1889810839 2134878739 1581030280 -2045670242 -154883452 -1301013048 -900248188 -2064266413 -79888799 -1175394884 -1235307855
REM
CELL 1.54180   50.00000   50.00000   50.00000   90.00000   90.00000   90.00000
LATT -1
SFAC C  
C      1  0.4936810000000  0.4772010000000  0.5269510000000 1.0
C      1  0.4378830000000  0.5263530000000  0.5878660000000 1.0
C      1  0.5870550000000  0.5788870000000  0.5637300000000 1.0
C      1  0.4482990000000  0.3935830000000  0.5500090000000 1.0
C      1  0.5120640000000  0.5143700000000  0.4924680000000 1.0
C      1  0.5535440000000  0.5709620000000  0.5235390000000 1.0
C      1  0.3818020000000  0.4297080000000  0.5022680000000 1.0
C      1  0.4093590000000  0.4944940000000  0.4771620000000 1.0
C      1  0.5707690000000  0.5157520000000  0.4600870000000 1.0
C      1  0.5031240000000  0.5338190000000  0.5584740000000 1.0
C      1  0.3885720000000  0.4548380000000  0.4968240000000 1.0
C      1  0.4648260000000  0.5114320000000  0.4370580000000 1.0
C      1  0.4414100000000  0.5247750000000  0.4461480000000 1.0
C      1  0.4462930000000  0.4730410000000  0.5334520000000 1.0
C      1  0.4248810000000  0.3850950000000  0.5406630000000 1.0
C      1  0.5058990000000  0.5113430000000  0.4647680000000 1.0
C      1  0.4802500000000  0.4477260000000  0.4723640000000 1.0
C      1  0.4751150000000  0.4375660000000  0.5487440000000 1.0
C      1  0.4665060000000  0.4127570000000  0.5529100000000 1.0
C      1  0.6035910000000  0.5811030000000  0.5843270000000 1.0
C      1  0.4767360000000  0.5781950000000  0.4839100000000 1.0
C      1  0.5232050000000  0.4204990000000  0.4838200000000 1.0
C      1  0.4765820000000  0.5414360000000  0.5533500000000 1.0
C      1  0.4721130000000  0.4629710000000  0.5374770000000 1.0
C      1  0.5176490000000  0.5477790000000  0.4356090000000 1.0
C      1  0.5978360000000  0.4708840000000  0.5092680000000 1.0
C      1  0.6198460000000  0.5832390000000  0.6045960000000 1.0
C      1  0.4671930000000  0.5679630000000  0.5067000000000 1.0
C      1  0.4566410000000  0.5343720000000  0.5716470000000 1.0
C      1  0.4064200000000  0.4763290000000  0.4981490000000 1.0
C      1  0.4694460000000  0.5555200000000  0.5301400000000 1.0
C      1  0.5490260000000  0.5096040000000  0.5508560000000 1.0
C      1  0.3867050000000  0.4059870000000  0.5132560000000 1.0
C      1  0.5488460000000  0.4357630000000  0.4406950000000 1.0
C      1  0.5671420000000  0.5008240000000  0.5314780000000 1.0
C      1  0.5836860000000  0.5092890000000  0.4839780000000 1.0
C      1  0.4023660000000  0.3896480000000  0.5272380000000 1.0
C      1  0.4377330000000  0.5518640000000  0.4404550000000 1.0
C      1  0.5519170000000  0.4590990000000  0.4282740000000 1.0
C      1  0.4820870000000  0.4986140000000  0.4557150000000 1.0
C      1  0.5237620000000  0.5830970000000  0.4869540000000 1.0
C      1  0.5268960000000  0.5218300000000  0.5593140000000 1.0
C      1  0.5704220000000  0.5761210000000  0.5432910000000 1.0
C      1  0.5011130000000  0.5809620000000  0.4701890000000 1.0
C      1  0.6003020000000  0.4863990000000  0.4870180000000 1.0
C      1  0.4348270000000  0.5771490000000  0.4330970000000 1.0
C      1  0.5060400000000  0.4938880000000  0.5104730000000 1.0
C      1  0.5631590000000  0.4514670000000  0.5372450000000 1.0
C      1  0.4332740000000  0.6022970000000  0.4264080000000 1.0
C      1  0.5396300000000  0.4213030000000  0.4610700000000 1.0
C      1  0.5733290000000  0.5174910000000  0.5091510000000 1.0
C      1  0.5511940000000  0.4857090000000  0.4280720000000 1.0
C      1  0.5058430000000  0.5701470000000  0.4446690000000 1.0
C      1  0.4760800000000  0.4725090000000  0.4638280000000 1.0
C      1  0.4218540000000  0.5106280000000  0.4602400000000 1.0
C      1  0.5243670000000  0.5224920000000  0.4458730000000 1.0
C      1  0.5248670000000  0.5376830000000  0.5015390000000 1.0
C      1  0.5344020000000  0.4193110000000  0.5094250000000 1.0
C      1  0.4702600000000  0.5100730000000  0.4102330000000 1.0
C      1  0.4240400000000  0.4778270000000  0.5198650000000 1.0
C      1  0.5479490000000  0.4311960000000  0.5290200000000 1.0
C      1  0.4964960000000  0.4282930000000  0.4804660000000 1.0
C      1  0.5494760000000  0.5095670000000  0.4427190000000 1.0
C      1  0.5775280000000  0.4740110000000  0.5291520000000 1.0
C      1  0.5347920000000  0.5638640000000  0.5042620000000 1.0
END
