TITL C-3866673-4222-37 0.00464346739724315 125000 -765.197016616729 0 0 125 (C1) n - 1
REM
REM in /home/nfs/bkarasulu/CARBON/AIRSS/Generating-Clusters/LCBOP/Only-C1/SD-CG/HFTN-CG/FIRE-CG
REM
REM
REM
REM
REM
REM ./C.cell (11c1c37f851c82e70ff6c80c92926a4b)
REM AIRSS Version 0.9.1 bugfix July 2018 build 013d7b7c2542+ Fri, 06 Jul 2018 19:26:36 +0100
REM compiler GCC version 9.2.1 20190827 (Red Hat 9.2.1-1)
REM options -cpp -mtune=generic -march=x86-64 -g -O0 -fpre-include=/usr/include/finclude/math-vector-fortran.h
REM seed 1743651793 -886281740 -1883365004 -1242293100 -1434392167 -1432377521 -100362230 291080377 2146306830 1502826806 782838702 -763590433 1668104185 -2121692206 1315627318 -999953820 -513127402 1875140040 -769833609 -163750930 1410930448 -863872316 1777544717 -659262261 -125872892 1551445769 1518513075 931318516 1449759090 -1784739173 1979135389 936033563 1413392426
REM
CELL 1.54180   50.00000   50.00000   50.00000   90.00000   90.00000   90.00000
LATT -1
SFAC C  
C      1  0.5826700000000  0.4514150000000  0.5618380000000 1.0
C      1  0.5113240000000  0.4708090000000  0.3952050000000 1.0
C      1  0.4913490000000  0.4626730000000  0.4148380000000 1.0
C      1  0.5148060000000  0.5196560000000  0.5323320000000 1.0
C      1  0.6013390000000  0.5375700000000  0.4945680000000 1.0
C      1  0.4834960000000  0.5309210000000  0.3986830000000 1.0
C      1  0.4080380000000  0.4698120000000  0.5223700000000 1.0
C      1  0.6069530000000  0.4564170000000  0.5131410000000 1.0
C      1  0.4567070000000  0.5018710000000  0.4222180000000 1.0
C      1  0.4654620000000  0.4811850000000  0.5710540000000 1.0
C      1  0.5255580000000  0.5621080000000  0.5068440000000 1.0
C      1  0.4911540000000  0.4544410000000  0.4679290000000 1.0
C      1  0.5971460000000  0.3987010000000  0.6208340000000 1.0
C      1  0.4952490000000  0.5880560000000  0.5315340000000 1.0
C      1  0.4580130000000  0.5250620000000  0.5069250000000 1.0
C      1  0.4804810000000  0.5640630000000  0.4408190000000 1.0
C      1  0.5931190000000  0.4157900000000  0.6015630000000 1.0
C      1  0.4716440000000  0.4985250000000  0.4674580000000 1.0
C      1  0.5132920000000  0.5012900000000  0.4907280000000 1.0
C      1  0.5032570000000  0.4387600000000  0.5129230000000 1.0
C      1  0.5452550000000  0.4599490000000  0.5174780000000 1.0
C      1  0.5681950000000  0.5947820000000  0.5306680000000 1.0
C      1  0.5583570000000  0.4526240000000  0.4512750000000 1.0
C      1  0.5024120000000  0.5466410000000  0.4361880000000 1.0
C      1  0.4781400000000  0.5391690000000  0.4921040000000 1.0
C      1  0.5515420000000  0.5450090000000  0.5613650000000 1.0
C      1  0.3980230000000  0.4935780000000  0.5096590000000 1.0
C      1  0.4844610000000  0.5672880000000  0.4877840000000 1.0
C      1  0.5330470000000  0.5938280000000  0.4503420000000 1.0
C      1  0.5324610000000  0.4626460000000  0.4437580000000 1.0
C      1  0.3953900000000  0.4907200000000  0.4816410000000 1.0
C      1  0.5598750000000  0.4848060000000  0.5199280000000 1.0
C      1  0.3553940000000  0.4201180000000  0.5195000000000 1.0
C      1  0.4987490000000  0.4324520000000  0.4856090000000 1.0
C      1  0.3992320000000  0.5184190000000  0.5236630000000 1.0
C      1  0.4620460000000  0.5098010000000  0.5302950000000 1.0
C      1  0.4637750000000  0.4525880000000  0.5744920000000 1.0
C      1  0.5595970000000  0.4362520000000  0.4742510000000 1.0
C      1  0.5231700000000  0.5062440000000  0.4227960000000 1.0
C      1  0.5685170000000  0.5668820000000  0.4252240000000 1.0
C      1  0.5811560000000  0.4698940000000  0.4451840000000 1.0
C      1  0.4459900000000  0.5641190000000  0.5653750000000 1.0
C      1  0.5611280000000  0.4874470000000  0.4035730000000 1.0
C      1  0.4664770000000  0.5910320000000  0.5336210000000 1.0
C      1  0.5754300000000  0.5227470000000  0.4907790000000 1.0
C      1  0.5166810000000  0.4638550000000  0.5202840000000 1.0
C      1  0.4912070000000  0.4869370000000  0.5841390000000 1.0
C      1  0.5986540000000  0.4524970000000  0.5383630000000 1.0
C      1  0.4394440000000  0.5747810000000  0.4879540000000 1.0
C      1  0.4638170000000  0.5467350000000  0.5786130000000 1.0
C      1  0.5059480000000  0.5364100000000  0.5547710000000 1.0
C      1  0.5602740000000  0.4691500000000  0.5648420000000 1.0
C      1  0.4736200000000  0.4728000000000  0.4794120000000 1.0
C      1  0.4368540000000  0.5583930000000  0.4620590000000 1.0
C      1  0.4593390000000  0.5283960000000  0.4137860000000 1.0
C      1  0.5549910000000  0.4396270000000  0.5005320000000 1.0
C      1  0.5335500000000  0.5376520000000  0.5172130000000 1.0
C      1  0.4555620000000  0.4645670000000  0.4993610000000 1.0
C      1  0.4516350000000  0.4997480000000  0.5547570000000 1.0
C      1  0.6292840000000  0.4660320000000  0.4441990000000 1.0
C      1  0.5029330000000  0.4167840000000  0.5302920000000 1.0
C      1  0.5105510000000  0.4933430000000  0.5183880000000 1.0
C      1  0.4270290000000  0.5125160000000  0.5620550000000 1.0
C      1  0.4966020000000  0.5124280000000  0.5941650000000 1.0
C      1  0.4643050000000  0.4734360000000  0.4155530000000 1.0
C      1  0.5618010000000  0.4958380000000  0.4928830000000 1.0
C      1  0.4445610000000  0.5749670000000  0.5176280000000 1.0
C      1  0.4561880000000  0.5904810000000  0.5606820000000 1.0
C      1  0.5441000000000  0.5141400000000  0.6127050000000 1.0
C      1  0.5018910000000  0.4045360000000  0.5539140000000 1.0
C      1  0.5489720000000  0.5711570000000  0.4455630000000 1.0
C      1  0.4541830000000  0.5534860000000  0.4380680000000 1.0
C      1  0.5083290000000  0.4633180000000  0.5846430000000 1.0
C      1  0.5308360000000  0.4914310000000  0.4479310000000 1.0
C      1  0.4297320000000  0.4764460000000  0.4485910000000 1.0
C      1  0.5358330000000  0.4632240000000  0.5783020000000 1.0
C      1  0.6060790000000  0.4659490000000  0.4588590000000 1.0
C      1  0.5076670000000  0.5990570000000  0.4580520000000 1.0
C      1  0.6024410000000  0.5623420000000  0.5062710000000 1.0
C      1  0.4230810000000  0.5350550000000  0.4714230000000 1.0
C      1  0.5151520000000  0.5377650000000  0.4598400000000 1.0
C      1  0.5326490000000  0.4890030000000  0.4012210000000 1.0
C      1  0.3848660000000  0.4571640000000  0.4489440000000 1.0
C      1  0.4034610000000  0.4756120000000  0.4590630000000 1.0
C      1  0.5778470000000  0.5203800000000  0.4375370000000 1.0
C      1  0.4351030000000  0.4323820000000  0.4231020000000 1.0
C      1  0.5887810000000  0.4331520000000  0.5820280000000 1.0
C      1  0.5046870000000  0.4499660000000  0.4395770000000 1.0
C      1  0.5172910000000  0.5158830000000  0.6128340000000 1.0
C      1  0.4891580000000  0.4412050000000  0.5827640000000 1.0
C      1  0.3715630000000  0.4344100000000  0.5351520000000 1.0
C      1  0.3482840000000  0.4154630000000  0.4942200000000 1.0
C      1  0.4135880000000  0.5074800000000  0.5852710000000 1.0
C      1  0.5615720000000  0.5181880000000  0.5655620000000 1.0
C      1  0.4295730000000  0.4071940000000  0.4193630000000 1.0
C      1  0.3908490000000  0.4527450000000  0.5362270000000 1.0
C      1  0.6076790000000  0.4617150000000  0.4868540000000 1.0
C      1  0.3528160000000  0.4223790000000  0.4688730000000 1.0
C      1  0.4961100000000  0.4146990000000  0.5780290000000 1.0
C      1  0.5068010000000  0.5286710000000  0.4150440000000 1.0
C      1  0.5631520000000  0.5128690000000  0.5936860000000 1.0
C      1  0.4420560000000  0.4586630000000  0.4284420000000 1.0
C      1  0.5024860000000  0.5768440000000  0.5066040000000 1.0
C      1  0.5428830000000  0.5465300000000  0.4601670000000 1.0
C      1  0.5437180000000  0.5982510000000  0.5416870000000 1.0
C      1  0.5813180000000  0.5431340000000  0.4204220000000 1.0
C      1  0.5254670000000  0.5573780000000  0.5589590000000 1.0
C      1  0.4337740000000  0.5223510000000  0.4927270000000 1.0
C      1  0.4861050000000  0.5811160000000  0.4626080000000 1.0
C      1  0.5887600000000  0.5820260000000  0.5187600000000 1.0
C      1  0.4318990000000  0.5562070000000  0.5399420000000 1.0
C      1  0.5050100000000  0.4108420000000  0.4675540000000 1.0
C      1  0.5071030000000  0.4196330000000  0.4411460000000 1.0
C      1  0.5765990000000  0.4928540000000  0.4276930000000 1.0
C      1  0.4881920000000  0.5329110000000  0.5765210000000 1.0
C      1  0.5196160000000  0.5842280000000  0.5488120000000 1.0
C      1  0.5607890000000  0.5346830000000  0.5138150000000 1.0
C      1  0.3667010000000  0.4380340000000  0.4523930000000 1.0
C      1  0.5369760000000  0.4954720000000  0.4762050000000 1.0
C      1  0.4491960000000  0.4988560000000  0.4499290000000 1.0
C      1  0.5660620000000  0.5295560000000  0.4627080000000 1.0
C      1  0.4170100000000  0.5311580000000  0.5419550000000 1.0
C      1  0.5619080000000  0.4937970000000  0.5484960000000 1.0
C      1  0.4339380000000  0.4619570000000  0.5146880000000 1.0
C      1  0.4945980000000  0.5195210000000  0.4759690000000 1.0
END
