TITL C-3866670-4165-213 1.69068339484362e-06 125000 -550.793909380679 0 0 90 (C1) n - 1
REM
REM in /home/nfs/bkarasulu/CARBON/AIRSS/Generating-Clusters/LCBOP/Only-C1/SD-CG/HFTN-CG/FIRE-CG
REM
REM
REM
REM
REM
REM ./C.cell (11c1c37f851c82e70ff6c80c92926a4b)
REM AIRSS Version 0.9.1 bugfix July 2018 build 013d7b7c2542+ Fri, 06 Jul 2018 19:26:36 +0100
REM compiler GCC version 9.2.1 20190827 (Red Hat 9.2.1-1)
REM options -cpp -mtune=generic -march=x86-64 -g -O0 -fpre-include=/usr/include/finclude/math-vector-fortran.h
REM seed 910794931 1485158602 -1038631428 -1400817260 -226746287 838495050 -567860470 -1919467944 -296706605 1119774730 -2087349185 -1873529059 -1061331169 -1138340103 1602877024 -893194056 1730039217 2098497664 248061989 1560351004 278660318 -694112817 -1632140840 -379990054 -1835385164 -975770418 -1114683614 -783468009 932516091 220141451 -21330916 1740000012 529078802
REM
CELL 1.54180   50.00000   50.00000   50.00000   90.00000   90.00000   90.00000
LATT -1
SFAC C  
C      1  0.4617560000000  0.4170010000000  0.5015760000000 1.0
C      1  0.4730460000000  0.5817450000000  0.5643640000000 1.0
C      1  0.5798190000000  0.4739630000000  0.4376160000000 1.0
C      1  0.5954100000000  0.5029070000000  0.4768670000000 1.0
C      1  0.4263210000000  0.5112510000000  0.5244960000000 1.0
C      1  0.4456730000000  0.5561920000000  0.4858090000000 1.0
C      1  0.4745510000000  0.5136700000000  0.5284670000000 1.0
C      1  0.5238470000000  0.5187940000000  0.4797230000000 1.0
C      1  0.4814930000000  0.4645960000000  0.5895840000000 1.0
C      1  0.4560540000000  0.4848850000000  0.4958480000000 1.0
C      1  0.5013990000000  0.4175630000000  0.4778420000000 1.0
C      1  0.4904940000000  0.5362380000000  0.5704110000000 1.0
C      1  0.4791770000000  0.4733010000000  0.4382860000000 1.0
C      1  0.4237670000000  0.5402540000000  0.5275670000000 1.0
C      1  0.5438420000000  0.5016630000000  0.4177650000000 1.0
C      1  0.4361010000000  0.4477230000000  0.4464170000000 1.0
C      1  0.4737850000000  0.6019590000000  0.5468040000000 1.0
C      1  0.5474280000000  0.5933880000000  0.5198830000000 1.0
C      1  0.5057340000000  0.5882990000000  0.4896820000000 1.0
C      1  0.4924130000000  0.3903400000000  0.4820980000000 1.0
C      1  0.4494450000000  0.4723060000000  0.4404990000000 1.0
C      1  0.4151950000000  0.4912900000000  0.4758470000000 1.0
C      1  0.4600170000000  0.4206550000000  0.5844790000000 1.0
C      1  0.5142880000000  0.4996920000000  0.4132560000000 1.0
C      1  0.5617890000000  0.4591090000000  0.5318540000000 1.0
C      1  0.4582760000000  0.5811710000000  0.4825060000000 1.0
C      1  0.5560140000000  0.4336650000000  0.5199550000000 1.0
C      1  0.4757100000000  0.4673350000000  0.5441180000000 1.0
C      1  0.4815190000000  0.4662640000000  0.4900390000000 1.0
C      1  0.5291030000000  0.4741050000000  0.5751820000000 1.0
C      1  0.4738740000000  0.6073590000000  0.5206160000000 1.0
C      1  0.4775680000000  0.5343160000000  0.4120710000000 1.0
C      1  0.5483160000000  0.4660940000000  0.5570200000000 1.0
C      1  0.5615540000000  0.5467840000000  0.5398610000000 1.0
C      1  0.5723750000000  0.4780870000000  0.5123430000000 1.0
C      1  0.5044140000000  0.4732220000000  0.4226090000000 1.0
C      1  0.4894450000000  0.4803650000000  0.4639580000000 1.0
C      1  0.5146790000000  0.4869970000000  0.5250740000000 1.0
C      1  0.4825930000000  0.5308240000000  0.5049010000000 1.0
C      1  0.5861060000000  0.5331640000000  0.5378420000000 1.0
C      1  0.5136880000000  0.4948920000000  0.4677580000000 1.0
C      1  0.4167770000000  0.4257280000000  0.5183430000000 1.0
C      1  0.5327580000000  0.5070320000000  0.5329620000000 1.0
C      1  0.5069860000000  0.5388860000000  0.4901080000000 1.0
C      1  0.5262050000000  0.5627020000000  0.4519320000000 1.0
C      1  0.4410170000000  0.5495240000000  0.5500710000000 1.0
C      1  0.5553450000000  0.5645870000000  0.4549790000000 1.0
C      1  0.5515340000000  0.5144700000000  0.4854750000000 1.0
C      1  0.4615210000000  0.5323910000000  0.4846700000000 1.0
C      1  0.5039360000000  0.4834220000000  0.5871310000000 1.0
C      1  0.5107360000000  0.5639670000000  0.4760650000000 1.0
C      1  0.4373800000000  0.4949080000000  0.4554830000000 1.0
C      1  0.4235300000000  0.5549330000000  0.5034900000000 1.0
C      1  0.5456150000000  0.4218360000000  0.4979780000000 1.0
C      1  0.4788430000000  0.5952550000000  0.4957250000000 1.0
C      1  0.5599050000000  0.5740000000000  0.5332240000000 1.0
C      1  0.4153080000000  0.4298520000000  0.4917350000000 1.0
C      1  0.5234550000000  0.5426820000000  0.4306190000000 1.0
C      1  0.5273630000000  0.5997000000000  0.5034760000000 1.0
C      1  0.4627660000000  0.4712220000000  0.5689930000000 1.0
C      1  0.4267900000000  0.4207420000000  0.5428470000000 1.0
C      1  0.5498950000000  0.5277050000000  0.4285210000000 1.0
C      1  0.5681770000000  0.5390760000000  0.4487340000000 1.0
C      1  0.5972500000000  0.4835710000000  0.4559900000000 1.0
C      1  0.5532880000000  0.4863710000000  0.4928170000000 1.0
C      1  0.4487000000000  0.5074770000000  0.5417680000000 1.0
C      1  0.5149940000000  0.5440580000000  0.5575010000000 1.0
C      1  0.6010090000000  0.5148440000000  0.5250450000000 1.0
C      1  0.4691280000000  0.3906950000000  0.4969830000000 1.0
C      1  0.5282220000000  0.4259630000000  0.4756760000000 1.0
C      1  0.4948770000000  0.5114850000000  0.5852330000000 1.0
C      1  0.4457500000000  0.4932600000000  0.5661540000000 1.0
C      1  0.4420880000000  0.4169430000000  0.5646630000000 1.0
C      1  0.5538390000000  0.4763360000000  0.4268510000000 1.0
C      1  0.5301590000000  0.4600140000000  0.4343730000000 1.0
C      1  0.4794870000000  0.4358680000000  0.4883720000000 1.0
C      1  0.4771980000000  0.4376450000000  0.5970680000000 1.0
C      1  0.5954850000000  0.4949910000000  0.5056670000000 1.0
C      1  0.5370880000000  0.5326380000000  0.5440200000000 1.0
C      1  0.5109160000000  0.4682870000000  0.5039840000000 1.0
C      1  0.4891900000000  0.4901740000000  0.5346190000000 1.0
C      1  0.5302980000000  0.4726670000000  0.4812850000000 1.0
C      1  0.5317410000000  0.4503890000000  0.4616090000000 1.0
C      1  0.5747390000000  0.5229060000000  0.4711210000000 1.0
C      1  0.4229830000000  0.4351560000000  0.4664400000000 1.0
C      1  0.4269820000000  0.4907670000000  0.5035620000000 1.0
C      1  0.5032810000000  0.5261320000000  0.4182030000000 1.0
C      1  0.4668860000000  0.5538300000000  0.5637810000000 1.0
C      1  0.4531840000000  0.5426710000000  0.4082450000000 1.0
C      1  0.4573190000000  0.5068160000000  0.4735110000000 1.0
END
