TITL C-3866675-3766-381 -0.134815111745004 125000 -887.586977689079 0 0 146 (C1) n - 1
REM
REM in /home/nfs/bkarasulu/CARBON/AIRSS/Generating-Clusters/LCBOP/Only-C1/SD-CG/FIRE-CG
REM
REM
REM
REM
REM
REM ./C.cell (11c1c37f851c82e70ff6c80c92926a4b)
REM AIRSS Version 0.9.1 bugfix July 2018 build 013d7b7c2542+ Fri, 06 Jul 2018 19:26:36 +0100
REM compiler GCC version 9.2.1 20190827 (Red Hat 9.2.1-1)
REM options -cpp -mtune=generic -march=x86-64 -g -O0 -fpre-include=/usr/include/finclude/math-vector-fortran.h
REM seed -1128551953 843943395 -1284957323 869123132 -371716276 94602814 1654486528 2017334811 -742152652 925121710 -730476874 -1250025030 1686483087 -2093151011 2038457564 83984282 555834112 1708908574 732012472 -1807029790 959024982 -1709794531 1447871467 -842214148 -2034343413 71421682 -931416092 -132078307 -1684318609 -48838220 -674925909 1059864049 -1827757306
REM
CELL 1.54180   50.00000   50.00000   50.00000   90.00000   90.00000   90.00000
LATT -1
SFAC C  
C      1  0.6027480000000  0.5484580000000  0.4531630000000 1.0
C      1  0.4676650000000  0.5303920000000  0.4277710000000 1.0
C      1  0.4661330000000  0.4124730000000  0.4297910000000 1.0
C      1  0.5274930000000  0.5354510000000  0.4517440000000 1.0
C      1  0.5143810000000  0.5030760000000  0.4816900000000 1.0
C      1  0.5698210000000  0.4341870000000  0.4866630000000 1.0
C      1  0.4681370000000  0.4343240000000  0.4126220000000 1.0
C      1  0.5331210000000  0.4606660000000  0.4632790000000 1.0
C      1  0.4477040000000  0.4864540000000  0.3705810000000 1.0
C      1  0.4883240000000  0.4448410000000  0.5326380000000 1.0
C      1  0.4748980000000  0.6000840000000  0.5402740000000 1.0
C      1  0.5554530000000  0.4851250000000  0.5860820000000 1.0
C      1  0.5233370000000  0.4647790000000  0.5097400000000 1.0
C      1  0.5052920000000  0.4419030000000  0.5088260000000 1.0
C      1  0.5200580000000  0.4152310000000  0.4381210000000 1.0
C      1  0.5525580000000  0.5927830000000  0.4264180000000 1.0
C      1  0.5668250000000  0.5711560000000  0.4347480000000 1.0
C      1  0.5327200000000  0.4890680000000  0.4624460000000 1.0
C      1  0.6000390000000  0.5643050000000  0.5325640000000 1.0
C      1  0.4281300000000  0.5833660000000  0.4464560000000 1.0
C      1  0.4194510000000  0.4078400000000  0.4869460000000 1.0
C      1  0.4001140000000  0.5109730000000  0.5492170000000 1.0
C      1  0.4456640000000  0.5769060000000  0.4271180000000 1.0
C      1  0.4967770000000  0.5796130000000  0.5016000000000 1.0
C      1  0.5442360000000  0.5004530000000  0.5345650000000 1.0
C      1  0.4518350000000  0.5644020000000  0.5150060000000 1.0
C      1  0.4792200000000  0.5314720000000  0.4546810000000 1.0
C      1  0.5580840000000  0.4277870000000  0.5393930000000 1.0
C      1  0.4686260000000  0.5503470000000  0.4728730000000 1.0
C      1  0.4241610000000  0.5710010000000  0.5189190000000 1.0
C      1  0.4607940000000  0.5564780000000  0.4181980000000 1.0
C      1  0.4890890000000  0.4717060000000  0.3948500000000 1.0
C      1  0.5101620000000  0.4913440000000  0.5068020000000 1.0
C      1  0.5699290000000  0.5460420000000  0.4198160000000 1.0
C      1  0.4407750000000  0.4416800000000  0.5292250000000 1.0
C      1  0.3513120000000  0.4556340000000  0.5549560000000 1.0
C      1  0.5473050000000  0.5320270000000  0.4094060000000 1.0
C      1  0.4936790000000  0.4789810000000  0.4414920000000 1.0
C      1  0.4113800000000  0.4764310000000  0.5189110000000 1.0
C      1  0.5252370000000  0.5789810000000  0.5046820000000 1.0
C      1  0.5189170000000  0.4328800000000  0.4144360000000 1.0
C      1  0.4673560000000  0.4863760000000  0.5875640000000 1.0
C      1  0.5561940000000  0.5254480000000  0.5334960000000 1.0
C      1  0.4943240000000  0.4848690000000  0.5749610000000 1.0
C      1  0.3936870000000  0.4855360000000  0.5391160000000 1.0
C      1  0.4525740000000  0.5084790000000  0.4151760000000 1.0
C      1  0.3717820000000  0.4708950000000  0.5478960000000 1.0
C      1  0.3983950000000  0.4456320000000  0.4712690000000 1.0
C      1  0.4336670000000  0.4938490000000  0.5121750000000 1.0
C      1  0.5457510000000  0.4369480000000  0.4722870000000 1.0
C      1  0.4673500000000  0.5659680000000  0.5854750000000 1.0
C      1  0.5714520000000  0.5073390000000  0.5939380000000 1.0
C      1  0.5818020000000  0.5695790000000  0.4598070000000 1.0
C      1  0.4752290000000  0.5806880000000  0.5209890000000 1.0
C      1  0.4940780000000  0.4442230000000  0.4044370000000 1.0
C      1  0.5804890000000  0.5136840000000  0.6469450000000 1.0
C      1  0.6264280000000  0.5507080000000  0.4689440000000 1.0
C      1  0.4221060000000  0.5177050000000  0.5678860000000 1.0
C      1  0.4706340000000  0.6028470000000  0.6198650000000 1.0
C      1  0.5013820000000  0.4391020000000  0.5577800000000 1.0
C      1  0.5247190000000  0.4176150000000  0.4672830000000 1.0
C      1  0.4533560000000  0.5428780000000  0.4954990000000 1.0
C      1  0.5929950000000  0.5016580000000  0.4273340000000 1.0
C      1  0.4165450000000  0.4482360000000  0.5164140000000 1.0
C      1  0.4123350000000  0.5710250000000  0.4663100000000 1.0
C      1  0.4178960000000  0.4864340000000  0.4611000000000 1.0
C      1  0.4635600000000  0.5134660000000  0.5393230000000 1.0
C      1  0.4242690000000  0.5470960000000  0.5644360000000 1.0
C      1  0.3824870000000  0.5317090000000  0.5063170000000 1.0
C      1  0.6485500000000  0.4664350000000  0.5462710000000 1.0
C      1  0.4855770000000  0.5730960000000  0.4763400000000 1.0
C      1  0.5761530000000  0.5103910000000  0.6214590000000 1.0
C      1  0.4584480000000  0.4103360000000  0.4566500000000 1.0
C      1  0.6462500000000  0.5311610000000  0.4711710000000 1.0
C      1  0.4475590000000  0.4549660000000  0.4112630000000 1.0
C      1  0.4634340000000  0.4589120000000  0.5313380000000 1.0
C      1  0.5022630000000  0.5063710000000  0.5576120000000 1.0
C      1  0.4155960000000  0.4835240000000  0.4322760000000 1.0
C      1  0.4204700000000  0.3835780000000  0.5000830000000 1.0
C      1  0.4239310000000  0.5090550000000  0.4226030000000 1.0
C      1  0.5692880000000  0.4246850000000  0.5134610000000 1.0
C      1  0.4644550000000  0.4712460000000  0.6112140000000 1.0
C      1  0.4113770000000  0.5557620000000  0.5395490000000 1.0
C      1  0.6075180000000  0.4896820000000  0.4911230000000 1.0
C      1  0.4309370000000  0.4143760000000  0.4611430000000 1.0
C      1  0.5570270000000  0.5413200000000  0.5107120000000 1.0
C      1  0.5155360000000  0.5031170000000  0.5330950000000 1.0
C      1  0.5519420000000  0.5330810000000  0.4653530000000 1.0
C      1  0.5121970000000  0.5618010000000  0.5766220000000 1.0
C      1  0.4237820000000  0.4559940000000  0.4271070000000 1.0
C      1  0.4061220000000  0.4319030000000  0.4956860000000 1.0
C      1  0.5821630000000  0.5714970000000  0.5538830000000 1.0
C      1  0.5766390000000  0.5764760000000  0.4884520000000 1.0
C      1  0.5743820000000  0.5541980000000  0.5738410000000 1.0
C      1  0.5115730000000  0.4616960000000  0.5730120000000 1.0
C      1  0.5925410000000  0.4466650000000  0.4755800000000 1.0
C      1  0.5061260000000  0.4555880000000  0.4525850000000 1.0
C      1  0.5601170000000  0.4665330000000  0.4040060000000 1.0
C      1  0.5832890000000  0.5268890000000  0.5766220000000 1.0
C      1  0.4431620000000  0.5012110000000  0.5793090000000 1.0
C      1  0.5661000000000  0.5263140000000  0.4882790000000 1.0
C      1  0.5517630000000  0.5687090000000  0.5028110000000 1.0
C      1  0.4456960000000  0.4857460000000  0.4668650000000 1.0
C      1  0.4570270000000  0.4875310000000  0.5283870000000 1.0
C      1  0.5756640000000  0.4877650000000  0.4094810000000 1.0
C      1  0.6503120000000  0.5100370000000  0.4871290000000 1.0
C      1  0.4773810000000  0.4123280000000  0.4776120000000 1.0
C      1  0.5870240000000  0.5085510000000  0.4930130000000 1.0
C      1  0.5154160000000  0.4145030000000  0.5599030000000 1.0
C      1  0.3856450000000  0.5334250000000  0.4796520000000 1.0
C      1  0.5405150000000  0.4089860000000  0.5512010000000 1.0
C      1  0.4692940000000  0.4844520000000  0.4542710000000 1.0
C      1  0.4402550000000  0.5626950000000  0.5808720000000 1.0
C      1  0.4118560000000  0.5787610000000  0.4940280000000 1.0
C      1  0.5180940000000  0.4952900000000  0.4357080000000 1.0
C      1  0.5923740000000  0.5304080000000  0.4316120000000 1.0
C      1  0.3312660000000  0.4403740000000  0.5616560000000 1.0
C      1  0.6132380000000  0.5394820000000  0.5392100000000 1.0
C      1  0.4377630000000  0.5190810000000  0.4989210000000 1.0
C      1  0.5026270000000  0.4216620000000  0.4868500000000 1.0
C      1  0.4225740000000  0.3609830000000  0.5128920000000 1.0
C      1  0.6336020000000  0.4928350000000  0.5018100000000 1.0
C      1  0.4813120000000  0.5854200000000  0.6020980000000 1.0
C      1  0.4629000000000  0.4558320000000  0.6327040000000 1.0
C      1  0.5531840000000  0.4547430000000  0.5478760000000 1.0
C      1  0.3964960000000  0.4735520000000  0.4734040000000 1.0
C      1  0.5091780000000  0.5819190000000  0.5953200000000 1.0
C      1  0.6043310000000  0.4713750000000  0.4696600000000 1.0
C      1  0.6241950000000  0.5695120000000  0.4902620000000 1.0
C      1  0.4014880000000  0.5450400000000  0.4592070000000 1.0
C      1  0.4598500000000  0.4821790000000  0.3983330000000 1.0
C      1  0.4824860000000  0.5266340000000  0.5556450000000 1.0
C      1  0.4159290000000  0.4365250000000  0.4483600000000 1.0
C      1  0.6006400000000  0.5742240000000  0.5054990000000 1.0
C      1  0.5410430000000  0.4646650000000  0.5725360000000 1.0
C      1  0.4615940000000  0.4404900000000  0.6537400000000 1.0
C      1  0.3938240000000  0.5337650000000  0.5319840000000 1.0
C      1  0.6052150000000  0.5220190000000  0.5587750000000 1.0
C      1  0.5275810000000  0.5210680000000  0.4262820000000 1.0
C      1  0.5427650000000  0.4461760000000  0.4062350000000 1.0
C      1  0.5470520000000  0.4723800000000  0.5265470000000 1.0
C      1  0.4865440000000  0.5500860000000  0.5699320000000 1.0
C      1  0.5048530000000  0.5254100000000  0.4662590000000 1.0
C      1  0.6064990000000  0.4838610000000  0.4446120000000 1.0
C      1  0.4106880000000  0.5311150000000  0.4357580000000 1.0
C      1  0.6420360000000  0.4794510000000  0.5246540000000 1.0
END
