TITL C-3866672-3872-514 0.000153630814986117 125000 -368.542571061581 0 0 61 (C1) n - 1
REM
REM in /home/nfs/bkarasulu/CARBON/AIRSS/Generating-Clusters/LCBOP/Only-C1/SD-CG/FIRE-CG
REM
REM
REM
REM
REM
REM ./C.cell (11c1c37f851c82e70ff6c80c92926a4b)
REM AIRSS Version 0.9.1 bugfix July 2018 build 013d7b7c2542+ Fri, 06 Jul 2018 19:26:36 +0100
REM compiler GCC version 9.2.1 20190827 (Red Hat 9.2.1-1)
REM options -cpp -mtune=generic -march=x86-64 -g -O0 -fpre-include=/usr/include/finclude/math-vector-fortran.h
REM seed -579778896 -1226184615 1856537270 1494263822 -1853714772 1010807441 -1228032872 -695364160 293860468 2114782325 -1369453299 -655138171 -1948420631 -390892134 1479628597 -776126795 -1187778801 -1666761709 -1755227811 316403560 105493206 1370890273 -922070882 472485374 -466386362 311688358 -979409570 1279530244 -1254139371 -1652035462 -566363533 2130539262 -2057238036
REM
CELL 1.54180   50.00000   50.00000   50.00000   90.00000   90.00000   90.00000
LATT -1
SFAC C  
C      1  0.3764970000000  0.5057460000000  0.5124770000000 1.0
C      1  0.4460730000000  0.5195020000000  0.4948020000000 1.0
C      1  0.5076870000000  0.4354450000000  0.5122440000000 1.0
C      1  0.4664750000000  0.5363650000000  0.4991040000000 1.0
C      1  0.5524220000000  0.5241970000000  0.5678210000000 1.0
C      1  0.5354140000000  0.5532330000000  0.3641490000000 1.0
C      1  0.4907480000000  0.4804100000000  0.5003510000000 1.0
C      1  0.5381550000000  0.4615730000000  0.5795200000000 1.0
C      1  0.5175160000000  0.5523670000000  0.4135620000000 1.0
C      1  0.5134850000000  0.4749760000000  0.4829010000000 1.0
C      1  0.5290400000000  0.4313610000000  0.5313830000000 1.0
C      1  0.3519290000000  0.5018760000000  0.5237980000000 1.0
C      1  0.5131410000000  0.4577780000000  0.4343440000000 1.0
C      1  0.5283910000000  0.4089600000000  0.5473230000000 1.0
C      1  0.4735120000000  0.5124220000000  0.4442010000000 1.0
C      1  0.5100950000000  0.5369790000000  0.5235820000000 1.0
C      1  0.4779460000000  0.4408810000000  0.5152030000000 1.0
C      1  0.4694920000000  0.4847530000000  0.4508020000000 1.0
C      1  0.4587790000000  0.5580390000000  0.4448100000000 1.0
C      1  0.4834490000000  0.4757410000000  0.5482680000000 1.0
C      1  0.4336620000000  0.5630760000000  0.4521200000000 1.0
C      1  0.4945500000000  0.5372500000000  0.4991270000000 1.0
C      1  0.5584420000000  0.4607110000000  0.5598030000000 1.0
C      1  0.5741460000000  0.5094080000000  0.5550100000000 1.0
C      1  0.4954970000000  0.4902750000000  0.5267640000000 1.0
C      1  0.5168130000000  0.5088240000000  0.5271490000000 1.0
C      1  0.5327000000000  0.5532720000000  0.5297750000000 1.0
C      1  0.5519870000000  0.5549290000000  0.5078980000000 1.0
C      1  0.5584350000000  0.4506380000000  0.4598960000000 1.0
C      1  0.5337090000000  0.5090740000000  0.5832090000000 1.0
C      1  0.3811390000000  0.5274850000000  0.4953000000000 1.0
C      1  0.5754580000000  0.5390410000000  0.5135470000000 1.0
C      1  0.4656250000000  0.4551470000000  0.5382580000000 1.0
C      1  0.5207450000000  0.4837310000000  0.5830100000000 1.0
C      1  0.4880580000000  0.4669460000000  0.4381550000000 1.0
C      1  0.4805770000000  0.5402600000000  0.4427840000000 1.0
C      1  0.5633270000000  0.4923980000000  0.5128860000000 1.0
C      1  0.5774400000000  0.4819500000000  0.5625460000000 1.0
C      1  0.4387500000000  0.4640400000000  0.5327270000000 1.0
C      1  0.4710800000000  0.4603110000000  0.4935290000000 1.0
C      1  0.5075210000000  0.5511780000000  0.4398080000000 1.0
C      1  0.5775780000000  0.5133700000000  0.5265310000000 1.0
C      1  0.5260070000000  0.5003870000000  0.4818700000000 1.0
C      1  0.5437050000000  0.5485690000000  0.5557790000000 1.0
C      1  0.5176970000000  0.4471360000000  0.4876140000000 1.0
C      1  0.4548220000000  0.4755230000000  0.4748860000000 1.0
C      1  0.5421440000000  0.5618120000000  0.4818600000000 1.0
C      1  0.5645920000000  0.4636270000000  0.5111440000000 1.0
C      1  0.3924790000000  0.5451210000000  0.4789500000000 1.0
C      1  0.5385940000000  0.4526470000000  0.4416950000000 1.0
C      1  0.5375640000000  0.5018960000000  0.5080280000000 1.0
C      1  0.4381830000000  0.4925100000000  0.4917400000000 1.0
C      1  0.5518990000000  0.4497800000000  0.5336290000000 1.0
C      1  0.4242970000000  0.4802790000000  0.5140930000000 1.0
C      1  0.5678970000000  0.4527260000000  0.4851120000000 1.0
C      1  0.5085150000000  0.5225660000000  0.4783010000000 1.0
C      1  0.4104170000000  0.5578770000000  0.4640020000000 1.0
C      1  0.5251230000000  0.5607390000000  0.4606470000000 1.0
C      1  0.3976820000000  0.4880900000000  0.5177450000000 1.0
C      1  0.4943380000000  0.4799770000000  0.5737610000000 1.0
C      1  0.5265600000000  0.5528170000000  0.3886660000000 1.0
END
