TITL C-3866675-3766-539 -9.98370431611552e-05 125000 -357.803441569678 0 0 59 (C1) n - 1
REM
REM in /home/nfs/bkarasulu/CARBON/AIRSS/Generating-Clusters/LCBOP/Only-C1/SD-CG/FIRE-CG
REM
REM
REM
REM
REM
REM ./C.cell (11c1c37f851c82e70ff6c80c92926a4b)
REM AIRSS Version 0.9.1 bugfix July 2018 build 013d7b7c2542+ Fri, 06 Jul 2018 19:26:36 +0100
REM compiler GCC version 9.2.1 20190827 (Red Hat 9.2.1-1)
REM options -cpp -mtune=generic -march=x86-64 -g -O0 -fpre-include=/usr/include/finclude/math-vector-fortran.h
REM seed 1549573735 -2045199759 180769026 2103407074 -376895941 -952661534 650770706 -1043832566 1258397041 237212153 1817591749 1859344785 1934968338 -780616735 1974643551 -968883794 304348060 120836657 313122102 -1866053960 884537337 1753458671 -1475783614 283436974 -1343481891 219747812 2040511764 121019769 -889262098 224850624 841382591 -885586472 -317913747
REM
CELL 1.54180   50.00000   50.00000   50.00000   90.00000   90.00000   90.00000
LATT -1
SFAC C  
C      1  0.5710470000000  0.4729000000000  0.5568640000000 1.0
C      1  0.5578270000000  0.4056870000000  0.5043530000000 1.0
C      1  0.5091450000000  0.4142650000000  0.5001300000000 1.0
C      1  0.4192340000000  0.5049490000000  0.4699310000000 1.0
C      1  0.5741250000000  0.4097670000000  0.5267190000000 1.0
C      1  0.4821150000000  0.4536100000000  0.4858410000000 1.0
C      1  0.5676280000000  0.3657710000000  0.4693850000000 1.0
C      1  0.4286150000000  0.5554960000000  0.4789170000000 1.0
C      1  0.5445370000000  0.4591590000000  0.4661710000000 1.0
C      1  0.4989630000000  0.4507010000000  0.4409150000000 1.0
C      1  0.5352200000000  0.4922570000000  0.5234490000000 1.0
C      1  0.5697150000000  0.5061460000000  0.4679620000000 1.0
C      1  0.4967870000000  0.4985390000000  0.4809890000000 1.0
C      1  0.4775130000000  0.5622420000000  0.5342350000000 1.0
C      1  0.5631680000000  0.3848810000000  0.4865340000000 1.0
C      1  0.4713870000000  0.5560550000000  0.4254080000000 1.0
C      1  0.4800620000000  0.5122320000000  0.5435180000000 1.0
C      1  0.4847990000000  0.5788080000000  0.4282170000000 1.0
C      1  0.5261260000000  0.5180970000000  0.5152520000000 1.0
C      1  0.4300090000000  0.4750850000000  0.5372000000000 1.0
C      1  0.4757750000000  0.4617670000000  0.4567970000000 1.0
C      1  0.4510440000000  0.4747410000000  0.5538680000000 1.0
C      1  0.5696770000000  0.5308270000000  0.4781940000000 1.0
C      1  0.5360290000000  0.4231400000000  0.4997530000000 1.0
C      1  0.4176160000000  0.5332200000000  0.4689070000000 1.0
C      1  0.5206110000000  0.6002970000000  0.4584650000000 1.0
C      1  0.5230100000000  0.5668970000000  0.5188150000000 1.0
C      1  0.4981730000000  0.4747150000000  0.4973030000000 1.0
C      1  0.5391920000000  0.4508630000000  0.4933730000000 1.0
C      1  0.4861540000000  0.4271440000000  0.4943490000000 1.0
C      1  0.4704840000000  0.4929750000000  0.5622220000000 1.0
C      1  0.5825770000000  0.4489300000000  0.5580810000000 1.0
C      1  0.5135150000000  0.5187990000000  0.4897060000000 1.0
C      1  0.4611940000000  0.5078530000000  0.4456550000000 1.0
C      1  0.4634440000000  0.5314550000000  0.4314220000000 1.0
C      1  0.5241920000000  0.4702560000000  0.5085280000000 1.0
C      1  0.4934650000000  0.5390160000000  0.5471880000000 1.0
C      1  0.5834780000000  0.4250390000000  0.5463640000000 1.0
C      1  0.4903780000000  0.5226230000000  0.5951010000000 1.0
C      1  0.4973470000000  0.5416610000000  0.5768640000000 1.0
C      1  0.4975930000000  0.5798390000000  0.5229420000000 1.0
C      1  0.5616330000000  0.4812400000000  0.4626180000000 1.0
C      1  0.4508020000000  0.5593740000000  0.5252140000000 1.0
C      1  0.5349520000000  0.5925260000000  0.4794830000000 1.0
C      1  0.4320630000000  0.5430280000000  0.5385480000000 1.0
C      1  0.5199360000000  0.5405710000000  0.5311960000000 1.0
C      1  0.4175210000000  0.5209530000000  0.5342650000000 1.0
C      1  0.4173710000000  0.4953450000000  0.5223070000000 1.0
C      1  0.4431330000000  0.5660340000000  0.4988360000000 1.0
C      1  0.5606060000000  0.5530670000000  0.4899220000000 1.0
C      1  0.5023290000000  0.5950150000000  0.4398920000000 1.0
C      1  0.4370640000000  0.4923520000000  0.4517600000000 1.0
C      1  0.5410720000000  0.5719540000000  0.4975690000000 1.0
C      1  0.4459730000000  0.4645220000000  0.4511980000000 1.0
C      1  0.4826760000000  0.4933990000000  0.4575010000000 1.0
C      1  0.4780540000000  0.4991680000000  0.5888420000000 1.0
C      1  0.4126040000000  0.4931280000000  0.4946770000000 1.0
C      1  0.5255830000000  0.4513670000000  0.4463990000000 1.0
C      1  0.5536580000000  0.4882580000000  0.5438880000000 1.0
END
