TITL C-3866673-4222-721 -9.48125463726319e-07 125000 -528.131882928096 0 0 87 (C1) n - 1
REM
REM in /home/nfs/bkarasulu/CARBON/AIRSS/Generating-Clusters/LCBOP/Only-C1/SD-CG/FIRE-CG
REM
REM
REM
REM
REM
REM ./C.cell (11c1c37f851c82e70ff6c80c92926a4b)
REM AIRSS Version 0.9.1 bugfix July 2018 build 013d7b7c2542+ Fri, 06 Jul 2018 19:26:36 +0100
REM compiler GCC version 9.2.1 20190827 (Red Hat 9.2.1-1)
REM options -cpp -mtune=generic -march=x86-64 -g -O0 -fpre-include=/usr/include/finclude/math-vector-fortran.h
REM seed -626841118 970994907 417460718 1320516312 -2046579692 324035283 -961918886 310599402 -20289315 2021993397 962329221 -587323552 -7897162 -279172749 286703510 1727731053 -471427360 233898779 -1352878468 -1410402007 905692926 1578963772 -419534260 2109193286 20866314 -120301996 -1605802356 1175018514 1585395820 -440749038 1591253870 698384768 1601229526
REM
CELL 1.54180   50.00000   50.00000   50.00000   90.00000   90.00000   90.00000
LATT -1
SFAC C  
C      1  0.4363280000000  0.5402320000000  0.4683710000000 1.0
C      1  0.4835990000000  0.4286810000000  0.4504120000000 1.0
C      1  0.4384250000000  0.4677570000000  0.5343040000000 1.0
C      1  0.5202930000000  0.5562780000000  0.5799680000000 1.0
C      1  0.5295460000000  0.5525710000000  0.5336330000000 1.0
C      1  0.5202590000000  0.5021380000000  0.4163450000000 1.0
C      1  0.4731440000000  0.4552910000000  0.5066010000000 1.0
C      1  0.5068440000000  0.4574020000000  0.4212940000000 1.0
C      1  0.4811630000000  0.4643940000000  0.6003820000000 1.0
C      1  0.4463290000000  0.5239590000000  0.4459440000000 1.0
C      1  0.4862580000000  0.5449080000000  0.4470430000000 1.0
C      1  0.4769990000000  0.5365230000000  0.4985500000000 1.0
C      1  0.5397570000000  0.5134160000000  0.4352430000000 1.0
C      1  0.5478490000000  0.5728090000000  0.4408490000000 1.0
C      1  0.4618820000000  0.4820750000000  0.5947130000000 1.0
C      1  0.4914660000000  0.5386960000000  0.4747700000000 1.0
C      1  0.5641670000000  0.4979210000000  0.4338420000000 1.0
C      1  0.5133450000000  0.5297300000000  0.5263220000000 1.0
C      1  0.5227670000000  0.5074930000000  0.5849390000000 1.0
C      1  0.4923700000000  0.3901720000000  0.4962940000000 1.0
C      1  0.5798310000000  0.4798080000000  0.5041910000000 1.0
C      1  0.5243390000000  0.4597810000000  0.5742370000000 1.0
C      1  0.5276820000000  0.4743980000000  0.4919820000000 1.0
C      1  0.4702360000000  0.5871740000000  0.4789810000000 1.0
C      1  0.5655820000000  0.5056210000000  0.5002890000000 1.0
C      1  0.4786500000000  0.5397170000000  0.5663040000000 1.0
C      1  0.5569430000000  0.5405690000000  0.5320280000000 1.0
C      1  0.5537540000000  0.5145220000000  0.5455390000000 1.0
C      1  0.5458810000000  0.5738380000000  0.4697440000000 1.0
C      1  0.5334400000000  0.4080680000000  0.4703980000000 1.0
C      1  0.5557620000000  0.4700180000000  0.4319490000000 1.0
C      1  0.5715630000000  0.5730320000000  0.4274260000000 1.0
C      1  0.4596310000000  0.5532830000000  0.5132470000000 1.0
C      1  0.5630500000000  0.4892310000000  0.5564410000000 1.0
C      1  0.4531130000000  0.5247960000000  0.5635840000000 1.0
C      1  0.5088570000000  0.4377440000000  0.4415360000000 1.0
C      1  0.4481000000000  0.5684110000000  0.4704630000000 1.0
C      1  0.4127830000000  0.5067050000000  0.5334810000000 1.0
C      1  0.4957430000000  0.5870220000000  0.4649040000000 1.0
C      1  0.5942370000000  0.4520880000000  0.5440170000000 1.0
C      1  0.4350890000000  0.5417150000000  0.5177850000000 1.0
C      1  0.5406730000000  0.4839810000000  0.5770420000000 1.0
C      1  0.4322720000000  0.5264720000000  0.5424120000000 1.0
C      1  0.4859100000000  0.5656650000000  0.5505740000000 1.0
C      1  0.4972500000000  0.5703280000000  0.4409030000000 1.0
C      1  0.5182230000000  0.4845280000000  0.4679000000000 1.0
C      1  0.5342760000000  0.4321980000000  0.4554060000000 1.0
C      1  0.4721860000000  0.5951130000000  0.5070220000000 1.0
C      1  0.5667520000000  0.5351230000000  0.5047040000000 1.0
C      1  0.5158040000000  0.5676820000000  0.5536360000000 1.0
C      1  0.5566440000000  0.4523680000000  0.4556240000000 1.0
C      1  0.4127000000000  0.5026490000000  0.5037560000000 1.0
C      1  0.5159820000000  0.3921110000000  0.4833450000000 1.0
C      1  0.5281810000000  0.5043720000000  0.5315190000000 1.0
C      1  0.4819730000000  0.4947880000000  0.5293490000000 1.0
C      1  0.4835930000000  0.4747590000000  0.4188890000000 1.0
C      1  0.4512150000000  0.5029060000000  0.5817530000000 1.0
C      1  0.5054930000000  0.4544050000000  0.5946580000000 1.0
C      1  0.4900270000000  0.5032850000000  0.4203820000000 1.0
C      1  0.5737130000000  0.4609950000000  0.4801540000000 1.0
C      1  0.4462200000000  0.4095390000000  0.5095160000000 1.0
C      1  0.5217440000000  0.5877820000000  0.4780560000000 1.0
C      1  0.4748090000000  0.4080820000000  0.5092300000000 1.0
C      1  0.5391130000000  0.4958190000000  0.5059100000000 1.0
C      1  0.4576370000000  0.4350080000000  0.4521000000000 1.0
C      1  0.4871280000000  0.4327320000000  0.5159960000000 1.0
C      1  0.4717320000000  0.5747550000000  0.5273230000000 1.0
C      1  0.5127370000000  0.4403310000000  0.5257970000000 1.0
C      1  0.4881560000000  0.5199420000000  0.5177560000000 1.0
C      1  0.5068460000000  0.4852090000000  0.5399060000000 1.0
C      1  0.5050830000000  0.5308350000000  0.5816650000000 1.0
C      1  0.4246050000000  0.5283360000000  0.4931760000000 1.0
C      1  0.4361060000000  0.4505170000000  0.4552240000000 1.0
C      1  0.5183260000000  0.5310970000000  0.4761900000000 1.0
C      1  0.4730720000000  0.5233130000000  0.4335320000000 1.0
C      1  0.4195320000000  0.4666850000000  0.4686900000000 1.0
C      1  0.5303870000000  0.4729120000000  0.4159000000000 1.0
C      1  0.5137080000000  0.4586000000000  0.5478260000000 1.0
C      1  0.5792810000000  0.4733550000000  0.5353890000000 1.0
C      1  0.5272450000000  0.5105190000000  0.4603720000000 1.0
C      1  0.5617960000000  0.5560900000000  0.4857440000000 1.0
C      1  0.5289520000000  0.4492200000000  0.5043230000000 1.0
C      1  0.4206900000000  0.4555550000000  0.5155020000000 1.0
C      1  0.5224290000000  0.5720090000000  0.4277980000000 1.0
C      1  0.4135180000000  0.4750590000000  0.4948780000000 1.0
C      1  0.4632880000000  0.4752820000000  0.5236830000000 1.0
C      1  0.4259390000000  0.4277040000000  0.5111420000000 1.0
END
