TITL C-3866676-3738-143 -2.18612707908736e-07 125000 -453.793687904291 0 0 76 (C1) n - 1
REM
REM in /home/nfs/bkarasulu/CARBON/AIRSS/Generating-Clusters/LCBOP/Only-C1/SD-CG/HFTN-CG/FIRE-CG
REM
REM
REM
REM
REM
REM ./C.cell (11c1c37f851c82e70ff6c80c92926a4b)
REM AIRSS Version 0.9.1 bugfix July 2018 build 013d7b7c2542+ Fri, 06 Jul 2018 19:26:36 +0100
REM compiler GCC version 9.2.1 20190827 (Red Hat 9.2.1-1)
REM options -cpp -mtune=generic -march=x86-64 -g -O0 -fpre-include=/usr/include/finclude/math-vector-fortran.h
REM seed -2077894525 -800223215 -1543316623 -1196655985 -1144406235 47754728 -1017304782 840807419 548354982 -1261368961 -1697587676 1522149400 -1287346893 1424078680 -474727021 -576993961 44056342 1827482788 -22150204 -662635162 -2015490575 -716581516 -916570321 -1579646301 1599163768 2117240992 1889340700 1186939743 219520225 1503821277 -1306324020 1805849915 -994064652
REM
CELL 1.54180   50.00000   50.00000   50.00000   90.00000   90.00000   90.00000
LATT -1
SFAC C  
C      1  0.5196570000000  0.4660850000000  0.5489600000000 1.0
C      1  0.5680740000000  0.5600270000000  0.5017170000000 1.0
C      1  0.5563550000000  0.5587310000000  0.5254640000000 1.0
C      1  0.4430340000000  0.5676960000000  0.4670570000000 1.0
C      1  0.4841300000000  0.4992980000000  0.5616190000000 1.0
C      1  0.5181290000000  0.5394610000000  0.5861380000000 1.0
C      1  0.5315730000000  0.5146790000000  0.5904810000000 1.0
C      1  0.4789850000000  0.4513840000000  0.4744390000000 1.0
C      1  0.5052520000000  0.5447810000000  0.4911860000000 1.0
C      1  0.4170190000000  0.4534200000000  0.4934020000000 1.0
C      1  0.4842370000000  0.4780260000000  0.5186230000000 1.0
C      1  0.4930610000000  0.5288420000000  0.4274280000000 1.0
C      1  0.5751940000000  0.4499190000000  0.4915150000000 1.0
C      1  0.4816860000000  0.4312810000000  0.5718600000000 1.0
C      1  0.4354060000000  0.5165130000000  0.4307500000000 1.0
C      1  0.5998670000000  0.4971390000000  0.5075470000000 1.0
C      1  0.5448290000000  0.4776530000000  0.5548800000000 1.0
C      1  0.5263190000000  0.5346850000000  0.4749530000000 1.0
C      1  0.5494720000000  0.5444320000000  0.4579020000000 1.0
C      1  0.4423740000000  0.4726660000000  0.4461160000000 1.0
C      1  0.4477690000000  0.4920830000000  0.4254020000000 1.0
C      1  0.5209480000000  0.4570300000000  0.4440980000000 1.0
C      1  0.5830890000000  0.4684930000000  0.4712000000000 1.0
C      1  0.4250410000000  0.5074300000000  0.5030140000000 1.0
C      1  0.4970490000000  0.4983160000000  0.4676860000000 1.0
C      1  0.4405810000000  0.4394130000000  0.5345580000000 1.0
C      1  0.4210080000000  0.5159870000000  0.4557560000000 1.0
C      1  0.5583700000000  0.5200040000000  0.4417330000000 1.0
C      1  0.4210900000000  0.5280400000000  0.4819720000000 1.0
C      1  0.4709000000000  0.5635870000000  0.4634270000000 1.0
C      1  0.4177910000000  0.4815090000000  0.4901790000000 1.0
C      1  0.5673770000000  0.4696140000000  0.4475600000000 1.0
C      1  0.5239590000000  0.4848070000000  0.4319080000000 1.0
C      1  0.4749690000000  0.5054570000000  0.5095030000000 1.0
C      1  0.4278900000000  0.5632830000000  0.5135330000000 1.0
C      1  0.5016700000000  0.4234350000000  0.5551300000000 1.0
C      1  0.4740990000000  0.5261720000000  0.5638760000000 1.0
C      1  0.4599570000000  0.4357190000000  0.5162080000000 1.0
C      1  0.4213730000000  0.4869640000000  0.4618660000000 1.0
C      1  0.5192490000000  0.4390250000000  0.5393660000000 1.0
C      1  0.5723180000000  0.5545580000000  0.4745920000000 1.0
C      1  0.4815460000000  0.5492760000000  0.4410420000000 1.0
C      1  0.5060300000000  0.5053170000000  0.4232920000000 1.0
C      1  0.5651150000000  0.4713100000000  0.5354200000000 1.0
C      1  0.5990340000000  0.4894620000000  0.4815770000000 1.0
C      1  0.5864800000000  0.4889250000000  0.5294880000000 1.0
C      1  0.4736160000000  0.5033700000000  0.4799220000000 1.0
C      1  0.5597310000000  0.4503110000000  0.5153680000000 1.0
C      1  0.4761640000000  0.4549620000000  0.5033440000000 1.0
C      1  0.4323790000000  0.4379450000000  0.4764620000000 1.0
C      1  0.4405100000000  0.4860730000000  0.5452880000000 1.0
C      1  0.5061720000000  0.4465430000000  0.4667880000000 1.0
C      1  0.5228830000000  0.5061900000000  0.4755570000000 1.0
C      1  0.5448800000000  0.4955270000000  0.5767910000000 1.0
C      1  0.5330310000000  0.5568620000000  0.5693600000000 1.0
C      1  0.5487780000000  0.4477180000000  0.4429490000000 1.0
C      1  0.5402060000000  0.5663190000000  0.4390910000000 1.0
C      1  0.5968820000000  0.5584820000000  0.4630250000000 1.0
C      1  0.4555250000000  0.5343410000000  0.5422450000000 1.0
C      1  0.4260430000000  0.5553500000000  0.4862760000000 1.0
C      1  0.4959670000000  0.4802440000000  0.5446060000000 1.0
C      1  0.5390640000000  0.4912800000000  0.4913370000000 1.0
C      1  0.4533900000000  0.4506510000000  0.4608020000000 1.0
C      1  0.4473510000000  0.5093380000000  0.5249960000000 1.0
C      1  0.4859260000000  0.5647910000000  0.4880240000000 1.0
C      1  0.5180000000000  0.5299240000000  0.5333650000000 1.0
C      1  0.4986250000000  0.5267870000000  0.5133760000000 1.0
C      1  0.5524470000000  0.4928060000000  0.4372070000000 1.0
C      1  0.5338080000000  0.4371170000000  0.5146020000000 1.0
C      1  0.4897450000000  0.5409770000000  0.5823880000000 1.0
C      1  0.5365910000000  0.5492610000000  0.5425000000000 1.0
C      1  0.4524510000000  0.5595250000000  0.5276290000000 1.0
C      1  0.5215780000000  0.4350190000000  0.4887520000000 1.0
C      1  0.4436790000000  0.4591700000000  0.5546510000000 1.0
C      1  0.4613480000000  0.4491880000000  0.5747180000000 1.0
C      1  0.4738830000000  0.5719960000000  0.5131550000000 1.0
END
