TITL C-3866676-3738-757 -0.0532348714772242 125000 -401.439888398526 0 0 67 (C1) n - 1
REM
REM in /home/nfs/bkarasulu/CARBON/AIRSS/Generating-Clusters/LCBOP/Only-C1/SD-CG/FIRE-CG
REM
REM
REM
REM
REM
REM ./C.cell (11c1c37f851c82e70ff6c80c92926a4b)
REM AIRSS Version 0.9.1 bugfix July 2018 build 013d7b7c2542+ Fri, 06 Jul 2018 19:26:36 +0100
REM compiler GCC version 9.2.1 20190827 (Red Hat 9.2.1-1)
REM options -cpp -mtune=generic -march=x86-64 -g -O0 -fpre-include=/usr/include/finclude/math-vector-fortran.h
REM seed -377995901 968486669 2113601019 1798797284 477862723 -1362308536 -1947151507 -1999873974 -1469149820 -600146272 972894234 -1566756250 1713506217 -1302094985 -1312720352 -462027546 -1603814868 -601566911 -20501269 -755554775 106379927 -142570819 476884049 844933649 1029967655 1626464280 -1386701900 1061771272 814055483 958799657 -1262784910 131867786 -1433684740
REM
CELL 1.54180   50.00000   50.00000   50.00000   90.00000   90.00000   90.00000
LATT -1
SFAC C  
C      1  0.5158810000000  0.4381940000000  0.4379390000000 1.0
C      1  0.5570650000000  0.5661060000000  0.4996540000000 1.0
C      1  0.4959320000000  0.4265330000000  0.4512310000000 1.0
C      1  0.4292870000000  0.5477020000000  0.4459870000000 1.0
C      1  0.4844260000000  0.5352810000000  0.6044750000000 1.0
C      1  0.5024530000000  0.4335490000000  0.5147370000000 1.0
C      1  0.4713730000000  0.4656130000000  0.5298010000000 1.0
C      1  0.3939280000000  0.4979730000000  0.5490380000000 1.0
C      1  0.5197350000000  0.4566260000000  0.5546400000000 1.0
C      1  0.4937560000000  0.5416420000000  0.4520890000000 1.0
C      1  0.4069830000000  0.5691400000000  0.5344180000000 1.0
C      1  0.5772860000000  0.4879390000000  0.4327130000000 1.0
C      1  0.5896790000000  0.5510420000000  0.4625040000000 1.0
C      1  0.4146960000000  0.4846180000000  0.5354210000000 1.0
C      1  0.5990500000000  0.5056810000000  0.4340030000000 1.0
C      1  0.4340800000000  0.4507640000000  0.5945740000000 1.0
C      1  0.4281520000000  0.5279690000000  0.5176940000000 1.0
C      1  0.5610190000000  0.4491820000000  0.5312680000000 1.0
C      1  0.5749840000000  0.5649670000000  0.4798640000000 1.0
C      1  0.5171260000000  0.5241910000000  0.4567580000000 1.0
C      1  0.4362740000000  0.5019220000000  0.5270460000000 1.0
C      1  0.4782770000000  0.4294410000000  0.4997790000000 1.0
C      1  0.4978040000000  0.5649640000000  0.4369790000000 1.0
C      1  0.5399360000000  0.5314710000000  0.4421490000000 1.0
C      1  0.4261770000000  0.4505650000000  0.4772790000000 1.0
C      1  0.5486320000000  0.4506980000000  0.5057040000000 1.0
C      1  0.4837390000000  0.5121920000000  0.5193290000000 1.0
C      1  0.5369450000000  0.4533660000000  0.4319970000000 1.0
C      1  0.4634030000000  0.4935500000000  0.5265410000000 1.0
C      1  0.4897300000000  0.5403360000000  0.5187720000000 1.0
C      1  0.5476900000000  0.5102530000000  0.5486050000000 1.0
C      1  0.5462740000000  0.4770030000000  0.4945270000000 1.0
C      1  0.5419890000000  0.5531990000000  0.4259950000000 1.0
C      1  0.4848370000000  0.5126710000000  0.5891000000000 1.0
C      1  0.4500030000000  0.4713970000000  0.5951100000000 1.0
C      1  0.4626880000000  0.4786490000000  0.4573150000000 1.0
C      1  0.4407860000000  0.4635360000000  0.4589020000000 1.0
C      1  0.4704810000000  0.5270100000000  0.4598970000000 1.0
C      1  0.5211830000000  0.5722100000000  0.4225470000000 1.0
C      1  0.4358150000000  0.5367040000000  0.4922920000000 1.0
C      1  0.4978050000000  0.4527220000000  0.5368090000000 1.0
C      1  0.5233660000000  0.5946260000000  0.4073310000000 1.0
C      1  0.5752970000000  0.5146080000000  0.5099390000000 1.0
C      1  0.4085650000000  0.5419570000000  0.5333740000000 1.0
C      1  0.5581830000000  0.5275840000000  0.5285400000000 1.0
C      1  0.5429240000000  0.5502070000000  0.5181990000000 1.0
C      1  0.5209220000000  0.4908360000000  0.4947450000000 1.0
C      1  0.5969590000000  0.5300620000000  0.4478110000000 1.0
C      1  0.5199140000000  0.5065840000000  0.5461030000000 1.0
C      1  0.4136780000000  0.4591400000000  0.5239030000000 1.0
C      1  0.5100300000000  0.4999600000000  0.5198120000000 1.0
C      1  0.6225950000000  0.4991160000000  0.4216530000000 1.0
C      1  0.5692740000000  0.4934680000000  0.4942950000000 1.0
C      1  0.3912450000000  0.5249270000000  0.5480290000000 1.0
C      1  0.5276470000000  0.4323220000000  0.5024980000000 1.0
C      1  0.5482930000000  0.4614640000000  0.5535420000000 1.0
C      1  0.4310060000000  0.4479130000000  0.5048600000000 1.0
C      1  0.5143940000000  0.5521490000000  0.5196970000000 1.0
C      1  0.4581910000000  0.4458290000000  0.5121370000000 1.0
C      1  0.5033950000000  0.5100020000000  0.5683790000000 1.0
C      1  0.4792920000000  0.4995990000000  0.4648260000000 1.0
C      1  0.4450240000000  0.5373580000000  0.4658220000000 1.0
C      1  0.4809570000000  0.4221920000000  0.4729480000000 1.0
C      1  0.5081890000000  0.5003540000000  0.4709680000000 1.0
C      1  0.4666290000000  0.4919850000000  0.5938220000000 1.0
C      1  0.5590460000000  0.4870890000000  0.5604030000000 1.0
C      1  0.5576230000000  0.4700970000000  0.4308840000000 1.0
END
