TITL C-3866669-3764-620 0.933497150341275 125000 -927.907048673521 0 0 150 (C1) n - 1
REM
REM in /home/nfs/bkarasulu/CARBON/AIRSS/Generating-Clusters/LCBOP/Only-C1/SD-CG/FIRE-CG
REM
REM
REM
REM
REM
REM ./C.cell (11c1c37f851c82e70ff6c80c92926a4b)
REM AIRSS Version 0.9.1 bugfix July 2018 build 013d7b7c2542+ Fri, 06 Jul 2018 19:26:36 +0100
REM compiler GCC version 9.2.1 20190827 (Red Hat 9.2.1-1)
REM options -cpp -mtune=generic -march=x86-64 -g -O0 -fpre-include=/usr/include/finclude/math-vector-fortran.h
REM seed 631178213 346350681 -2005244232 56446210 -949577820 -1714321887 1067632463 -50457472 1875850915 1616593875 1309132013 -295004695 -909133536 1633312667 46098939 1891719515 -2047225282 544381763 -1403007912 -188935035 401804048 1598940296 17433397 1463965719 -1943394743 -1652282371 2016650896 -1405050806 309078694 1168085357 1438510287 507490648 -909240967
REM
CELL 1.54180   50.00000   50.00000   50.00000   90.00000   90.00000   90.00000
LATT -1
SFAC C  
C      1  0.4360110000000  0.3927530000000  0.4868030000000 1.0
C      1  0.4816670000000  0.5716470000000  0.5751980000000 1.0
C      1  0.5213130000000  0.3820020000000  0.5756620000000 1.0
C      1  0.5698290000000  0.5002380000000  0.5448130000000 1.0
C      1  0.4511990000000  0.5638370000000  0.4125150000000 1.0
C      1  0.4812410000000  0.3320290000000  0.5437040000000 1.0
C      1  0.5360920000000  0.5169980000000  0.3662490000000 1.0
C      1  0.5398590000000  0.4948940000000  0.4912420000000 1.0
C      1  0.3828930000000  0.4637440000000  0.4249190000000 1.0
C      1  0.4383340000000  0.4638460000000  0.4732500000000 1.0
C      1  0.5054860000000  0.5302550000000  0.5403360000000 1.0
C      1  0.4761130000000  0.4759990000000  0.5346290000000 1.0
C      1  0.3860330000000  0.4867330000000  0.5527130000000 1.0
C      1  0.4755780000000  0.4333890000000  0.5627680000000 1.0
C      1  0.4933310000000  0.5325350000000  0.4833650000000 1.0
C      1  0.4087380000000  0.5354220000000  0.4615920000000 1.0
C      1  0.6326520000000  0.4829960000000  0.5523590000000 1.0
C      1  0.4760600000000  0.4828680000000  0.4009770000000 1.0
C      1  0.4295670000000  0.5635950000000  0.4303640000000 1.0
C      1  0.4951020000000  0.6187110000000  0.4786830000000 1.0
C      1  0.4701240000000  0.5439880000000  0.4199610000000 1.0
C      1  0.4842450000000  0.6206280000000  0.5030630000000 1.0
C      1  0.5866950000000  0.5475070000000  0.5418730000000 1.0
C      1  0.5127040000000  0.3009330000000  0.5184490000000 1.0
C      1  0.4066840000000  0.4669010000000  0.4350950000000 1.0
C      1  0.4840310000000  0.5444090000000  0.5284150000000 1.0
C      1  0.4438440000000  0.3097220000000  0.5219070000000 1.0
C      1  0.5397970000000  0.5103900000000  0.4345030000000 1.0
C      1  0.5429600000000  0.4987080000000  0.5358130000000 1.0
C      1  0.5298550000000  0.5004300000000  0.5929850000000 1.0
C      1  0.5725340000000  0.5256180000000  0.5591700000000 1.0
C      1  0.5863340000000  0.5641130000000  0.4417510000000 1.0
C      1  0.4876980000000  0.4952390000000  0.3764670000000 1.0
C      1  0.5653000000000  0.4306440000000  0.4496120000000 1.0
C      1  0.5082880000000  0.4610650000000  0.4565180000000 1.0
C      1  0.5286210000000  0.5487630000000  0.5847930000000 1.0
C      1  0.4312130000000  0.2874880000000  0.5168790000000 1.0
C      1  0.5920000000000  0.6262590000000  0.4864380000000 1.0
C      1  0.5154370000000  0.4078780000000  0.5776460000000 1.0
C      1  0.5739090000000  0.5747020000000  0.5393860000000 1.0
C      1  0.4228100000000  0.5197990000000  0.5097370000000 1.0
C      1  0.5722620000000  0.5764250000000  0.3963440000000 1.0
C      1  0.5213950000000  0.5870850000000  0.4433600000000 1.0
C      1  0.5882130000000  0.5006530000000  0.4402390000000 1.0
C      1  0.5073240000000  0.3214220000000  0.5361340000000 1.0
C      1  0.5062990000000  0.4814880000000  0.5968520000000 1.0
C      1  0.5006910000000  0.4847510000000  0.5464780000000 1.0
C      1  0.5164170000000  0.2814920000000  0.5014960000000 1.0
C      1  0.3863740000000  0.4997880000000  0.4814610000000 1.0
C      1  0.5709680000000  0.5604960000000  0.4848490000000 1.0
C      1  0.3758060000000  0.5108510000000  0.5592540000000 1.0
C      1  0.5077930000000  0.6064910000000  0.4586470000000 1.0
C      1  0.4660470000000  0.4590700000000  0.4782370000000 1.0
C      1  0.4836530000000  0.5525280000000  0.5010590000000 1.0
C      1  0.4143760000000  0.5405210000000  0.5696060000000 1.0
C      1  0.5098990000000  0.4416330000000  0.4998930000000 1.0
C      1  0.4572050000000  0.5268440000000  0.5662860000000 1.0
C      1  0.5105220000000  0.5294380000000  0.4017820000000 1.0
C      1  0.4754850000000  0.4988070000000  0.4452600000000 1.0
C      1  0.5108710000000  0.5680060000000  0.5730760000000 1.0
C      1  0.4536410000000  0.4664760000000  0.4118550000000 1.0
C      1  0.5523600000000  0.5930990000000  0.4046320000000 1.0
C      1  0.4654930000000  0.3652410000000  0.5789240000000 1.0
C      1  0.5074140000000  0.6030240000000  0.5405900000000 1.0
C      1  0.5540560000000  0.5422800000000  0.4958610000000 1.0
C      1  0.5452020000000  0.5703750000000  0.5373800000000 1.0
C      1  0.4212940000000  0.5677650000000  0.5283020000000 1.0
C      1  0.3870410000000  0.5342490000000  0.5667980000000 1.0
C      1  0.4596630000000  0.5334900000000  0.5384110000000 1.0
C      1  0.4561740000000  0.5779720000000  0.5619950000000 1.0
C      1  0.5093600000000  0.5609170000000  0.4405440000000 1.0
C      1  0.5236990000000  0.4511960000000  0.5230190000000 1.0
C      1  0.4094200000000  0.4973760000000  0.4973130000000 1.0
C      1  0.5002890000000  0.4314740000000  0.5778540000000 1.0
C      1  0.5443770000000  0.5247540000000  0.5823380000000 1.0
C      1  0.5112380000000  0.5409280000000  0.4614760000000 1.0
C      1  0.4351560000000  0.5925480000000  0.5223980000000 1.0
C      1  0.6063190000000  0.5331920000000  0.4876990000000 1.0
C      1  0.4148750000000  0.5480020000000  0.5082070000000 1.0
C      1  0.5345250000000  0.5249270000000  0.4578050000000 1.0
C      1  0.6160110000000  0.4857680000000  0.5309680000000 1.0
C      1  0.5720940000000  0.5291630000000  0.4044630000000 1.0
C      1  0.4919420000000  0.4937620000000  0.4221520000000 1.0
C      1  0.4485720000000  0.5147010000000  0.5201910000000 1.0
C      1  0.4168500000000  0.5845110000000  0.4444570000000 1.0
C      1  0.4811650000000  0.4425080000000  0.4962290000000 1.0
C      1  0.4584430000000  0.5973160000000  0.5388750000000 1.0
C      1  0.4331750000000  0.4666360000000  0.4435270000000 1.0
C      1  0.5731380000000  0.5865000000000  0.4932720000000 1.0
C      1  0.4826120000000  0.4743680000000  0.4608030000000 1.0
C      1  0.3875610000000  0.5171780000000  0.4609550000000 1.0
C      1  0.4462390000000  0.3847320000000  0.5108510000000 1.0
C      1  0.4076690000000  0.5818720000000  0.4699840000000 1.0
C      1  0.6252110000000  0.4927610000000  0.5051510000000 1.0
C      1  0.5592820000000  0.5238080000000  0.3792230000000 1.0
C      1  0.5096640000000  0.4535390000000  0.5929060000000 1.0
C      1  0.4555630000000  0.4751860000000  0.5782360000000 1.0
C      1  0.5231060000000  0.5822470000000  0.5509280000000 1.0
C      1  0.4315170000000  0.5176540000000  0.5736390000000 1.0
C      1  0.5473180000000  0.5938170000000  0.4326060000000 1.0
C      1  0.5308100000000  0.5249590000000  0.5311140000000 1.0
C      1  0.4778940000000  0.4900420000000  0.5923690000000 1.0
C      1  0.5825210000000  0.5941520000000  0.5199420000000 1.0
C      1  0.5667600000000  0.5105550000000  0.4253100000000 1.0
C      1  0.5481950000000  0.5193090000000  0.4811890000000 1.0
C      1  0.4603350000000  0.4102470000000  0.5567850000000 1.0
C      1  0.4793790000000  0.5148550000000  0.5777770000000 1.0
C      1  0.5088690000000  0.5160680000000  0.3757970000000 1.0
C      1  0.4309720000000  0.5372030000000  0.4442930000000 1.0
C      1  0.5133860000000  0.3564860000000  0.5681660000000 1.0
C      1  0.5812960000000  0.5551160000000  0.4134510000000 1.0
C      1  0.5168390000000  0.5067550000000  0.4190330000000 1.0
C      1  0.5772770000000  0.4626850000000  0.5144090000000 1.0
C      1  0.4974950000000  0.5494760000000  0.4167790000000 1.0
C      1  0.4694030000000  0.5728480000000  0.4900440000000 1.0
C      1  0.5899890000000  0.4427960000000  0.4466710000000 1.0
C      1  0.6022240000000  0.5400100000000  0.5171010000000 1.0
C      1  0.5920790000000  0.5503560000000  0.4679140000000 1.0
C      1  0.4849250000000  0.3500240000000  0.5660970000000 1.0
C      1  0.4584510000000  0.3329000000000  0.5271490000000 1.0
C      1  0.5263330000000  0.3369930000000  0.5513890000000 1.0
C      1  0.4580900000000  0.5238970000000  0.4396310000000 1.0
C      1  0.5944480000000  0.6199440000000  0.5137590000000 1.0
C      1  0.4685130000000  0.4952100000000  0.5130910000000 1.0
C      1  0.5940550000000  0.4624660000000  0.4675920000000 1.0
C      1  0.5732450000000  0.4554940000000  0.4876270000000 1.0
C      1  0.5239370000000  0.4454570000000  0.4748990000000 1.0
C      1  0.5724300000000  0.5910580000000  0.4472790000000 1.0
C      1  0.5516360000000  0.4408930000000  0.4730940000000 1.0
C      1  0.4304420000000  0.4886260000000  0.5713180000000 1.0
C      1  0.4506130000000  0.3574990000000  0.5161290000000 1.0
C      1  0.5784960000000  0.6052070000000  0.4716670000000 1.0
C      1  0.4565250000000  0.3903090000000  0.5762600000000 1.0
C      1  0.4453140000000  0.4454050000000  0.3968910000000 1.0
C      1  0.6007040000000  0.4896090000000  0.4628140000000 1.0
C      1  0.5255370000000  0.4758760000000  0.5370980000000 1.0
C      1  0.4653090000000  0.4591030000000  0.5560550000000 1.0
C      1  0.4075910000000  0.5561710000000  0.4818710000000 1.0
C      1  0.4897370000000  0.5054360000000  0.4947190000000 1.0
C      1  0.6132820000000  0.5056760000000  0.4829100000000 1.0
C      1  0.4226240000000  0.4716340000000  0.4977170000000 1.0
C      1  0.4284900000000  0.5630380000000  0.5572460000000 1.0
C      1  0.5135630000000  0.4905050000000  0.4940690000000 1.0
C      1  0.5878210000000  0.4817830000000  0.5327290000000 1.0
C      1  0.4126880000000  0.4768380000000  0.5510150000000 1.0
C      1  0.4524080000000  0.4035510000000  0.5307480000000 1.0
C      1  0.4825320000000  0.6091410000000  0.5287990000000 1.0
C      1  0.4986400000000  0.5103430000000  0.5580940000000 1.0
C      1  0.5423750000000  0.5473450000000  0.5202770000000 1.0
C      1  0.4210120000000  0.4638710000000  0.5260920000000 1.0
END
