TITL C-3866671-3735-607 -1.73093713346761e-07 125000 -878.040188553393 0 0 143 (C1) n - 1
REM
REM in /home/nfs/bkarasulu/CARBON/AIRSS/Generating-Clusters/LCBOP/Only-C1/SD-CG/FIRE-CG
REM
REM
REM
REM
REM
REM ./C.cell (11c1c37f851c82e70ff6c80c92926a4b)
REM AIRSS Version 0.9.1 bugfix July 2018 build 013d7b7c2542+ Fri, 06 Jul 2018 19:26:36 +0100
REM compiler GCC version 9.2.1 20190827 (Red Hat 9.2.1-1)
REM options -cpp -mtune=generic -march=x86-64 -g -O0 -fpre-include=/usr/include/finclude/math-vector-fortran.h
REM seed 1583690483 -1112167389 -718356180 334764210 1688147356 -1292201619 -221332457 -1285502594 -1098862417 1258279058 -1202616721 300738587 -1180166608 -545511368 -1379668544 -815804190 1731532680 -1301935439 2028729259 -275246344 77237554 -167348773 -732144057 924443839 -1712238411 -1901521109 -2011497032 464837123 -1486891334 2049055590 -2040375246 721263606 -1559219231
REM
CELL 1.54180   50.00000   50.00000   50.00000   90.00000   90.00000   90.00000
LATT -1
SFAC C  
C      1  0.5432490000000  0.5472910000000  0.5427030000000 1.0
C      1  0.4062300000000  0.4615750000000  0.4446440000000 1.0
C      1  0.3994250000000  0.5012600000000  0.5107240000000 1.0
C      1  0.5230820000000  0.4133710000000  0.5620160000000 1.0
C      1  0.4338130000000  0.5564880000000  0.4165140000000 1.0
C      1  0.4534830000000  0.5014210000000  0.5925180000000 1.0
C      1  0.5028940000000  0.4905030000000  0.5082450000000 1.0
C      1  0.5201890000000  0.4916190000000  0.4617920000000 1.0
C      1  0.4276600000000  0.4630520000000  0.4239030000000 1.0
C      1  0.5645060000000  0.4844750000000  0.5704750000000 1.0
C      1  0.5795650000000  0.4529410000000  0.4635880000000 1.0
C      1  0.5427890000000  0.4153580000000  0.5436900000000 1.0
C      1  0.4055360000000  0.5546760000000  0.4588670000000 1.0
C      1  0.4123850000000  0.3872930000000  0.5214210000000 1.0
C      1  0.5581210000000  0.4791210000000  0.5442520000000 1.0
C      1  0.4883550000000  0.4278940000000  0.4319140000000 1.0
C      1  0.4278580000000  0.4887950000000  0.5861030000000 1.0
C      1  0.5839380000000  0.4661400000000  0.4032820000000 1.0
C      1  0.4740430000000  0.4169460000000  0.5670560000000 1.0
C      1  0.5333030000000  0.4581830000000  0.3973630000000 1.0
C      1  0.5232830000000  0.5338910000000  0.4324990000000 1.0
C      1  0.5220200000000  0.5135060000000  0.5768370000000 1.0
C      1  0.5600660000000  0.4560500000000  0.3967460000000 1.0
C      1  0.4577760000000  0.5537130000000  0.3745310000000 1.0
C      1  0.4905570000000  0.4762000000000  0.4197830000000 1.0
C      1  0.5482390000000  0.6069650000000  0.5365510000000 1.0
C      1  0.5242630000000  0.5632430000000  0.4339730000000 1.0
C      1  0.4802290000000  0.5717600000000  0.4133880000000 1.0
C      1  0.5016180000000  0.5331670000000  0.5768440000000 1.0
C      1  0.5180850000000  0.5460270000000  0.5015870000000 1.0
C      1  0.4476650000000  0.4412290000000  0.5329590000000 1.0
C      1  0.4412310000000  0.5881990000000  0.4498690000000 1.0
C      1  0.5905840000000  0.5467940000000  0.4601270000000 1.0
C      1  0.5340640000000  0.5958900000000  0.4893480000000 1.0
C      1  0.4911800000000  0.5929520000000  0.4565810000000 1.0
C      1  0.4567090000000  0.5906870000000  0.4934910000000 1.0
C      1  0.5903030000000  0.5225010000000  0.5568180000000 1.0
C      1  0.4093820000000  0.4775110000000  0.5702240000000 1.0
C      1  0.4989730000000  0.5641510000000  0.5156480000000 1.0
C      1  0.5522390000000  0.4991780000000  0.5004830000000 1.0
C      1  0.3960930000000  0.4734560000000  0.4995950000000 1.0
C      1  0.5333470000000  0.4682340000000  0.6035640000000 1.0
C      1  0.4645840000000  0.5770410000000  0.5710220000000 1.0
C      1  0.4750310000000  0.4489250000000  0.4160790000000 1.0
C      1  0.5766390000000  0.4432340000000  0.5817010000000 1.0
C      1  0.4757070000000  0.4987380000000  0.4955890000000 1.0
C      1  0.4179320000000  0.4096470000000  0.4792440000000 1.0
C      1  0.4756380000000  0.4798740000000  0.5920140000000 1.0
C      1  0.5012860000000  0.4345570000000  0.6016140000000 1.0
C      1  0.5049830000000  0.4627280000000  0.6051050000000 1.0
C      1  0.5151850000000  0.4794030000000  0.4021620000000 1.0
C      1  0.3992550000000  0.5494760000000  0.4865740000000 1.0
C      1  0.5933460000000  0.4697890000000  0.4821740000000 1.0
C      1  0.4682020000000  0.4507670000000  0.4857350000000 1.0
C      1  0.4992730000000  0.5773450000000  0.4335950000000 1.0
C      1  0.5525010000000  0.5743370000000  0.4797620000000 1.0
C      1  0.5035470000000  0.5886860000000  0.5294340000000 1.0
C      1  0.6085530000000  0.4916290000000  0.4413330000000 1.0
C      1  0.5141700000000  0.4938850000000  0.5563740000000 1.0
C      1  0.4582080000000  0.5458260000000  0.5100190000000 1.0
C      1  0.4854960000000  0.5902610000000  0.5536400000000 1.0
C      1  0.4174280000000  0.4102660000000  0.5073850000000 1.0
C      1  0.5493770000000  0.3826750000000  0.4640050000000 1.0
C      1  0.5051700000000  0.5351870000000  0.4754630000000 1.0
C      1  0.4051570000000  0.4747770000000  0.4712500000000 1.0
C      1  0.5092250000000  0.4424290000000  0.5046870000000 1.0
C      1  0.4220800000000  0.4345230000000  0.5214420000000 1.0
C      1  0.4635710000000  0.4583260000000  0.5150810000000 1.0
C      1  0.6008220000000  0.4803030000000  0.4183690000000 1.0
C      1  0.4856270000000  0.5364100000000  0.5530940000000 1.0
C      1  0.5698900000000  0.3968060000000  0.5077020000000 1.0
C      1  0.4925010000000  0.4349230000000  0.4820540000000 1.0
C      1  0.5566440000000  0.4445380000000  0.4528910000000 1.0
C      1  0.5665880000000  0.4823130000000  0.5184080000000 1.0
C      1  0.5001950000000  0.4180590000000  0.5783330000000 1.0
C      1  0.5200020000000  0.5195350000000  0.4561790000000 1.0
C      1  0.5595030000000  0.5462700000000  0.4097340000000 1.0
C      1  0.5385860000000  0.5257090000000  0.4095580000000 1.0
C      1  0.5050790000000  0.4397910000000  0.4540540000000 1.0
C      1  0.5326550000000  0.4558920000000  0.4958170000000 1.0
C      1  0.4742960000000  0.4648050000000  0.5674100000000 1.0
C      1  0.4602270000000  0.4403970000000  0.5588140000000 1.0
C      1  0.4336820000000  0.5153030000000  0.4865130000000 1.0
C      1  0.4942530000000  0.4625310000000  0.5227840000000 1.0
C      1  0.5582780000000  0.4642760000000  0.5895090000000 1.0
C      1  0.3884200000000  0.5253910000000  0.4988510000000 1.0
C      1  0.4725240000000  0.4773790000000  0.4700750000000 1.0
C      1  0.5363420000000  0.4014730000000  0.4501970000000 1.0
C      1  0.4613730000000  0.5255920000000  0.4880900000000 1.0
C      1  0.4425490000000  0.5691690000000  0.5053720000000 1.0
C      1  0.5689100000000  0.5670300000000  0.4558960000000 1.0
C      1  0.5540820000000  0.5667640000000  0.4308850000000 1.0
C      1  0.5974370000000  0.5275710000000  0.5311080000000 1.0
C      1  0.4701670000000  0.4996390000000  0.4205760000000 1.0
C      1  0.4534230000000  0.4869900000000  0.5152780000000 1.0
C      1  0.4248050000000  0.5666600000000  0.4412480000000 1.0
C      1  0.5897070000000  0.5279460000000  0.5039370000000 1.0
C      1  0.4778850000000  0.5337220000000  0.4648980000000 1.0
C      1  0.5858910000000  0.4629560000000  0.5099470000000 1.0
C      1  0.4951520000000  0.5497930000000  0.5990470000000 1.0
C      1  0.5330450000000  0.4295010000000  0.4513050000000 1.0
C      1  0.5513590000000  0.5526620000000  0.5883670000000 1.0
C      1  0.5526100000000  0.5648650000000  0.5629060000000 1.0
C      1  0.3984600000000  0.4660560000000  0.5484790000000 1.0
C      1  0.4452800000000  0.4861030000000  0.4273730000000 1.0
C      1  0.5279790000000  0.4852870000000  0.4898650000000 1.0
C      1  0.4572930000000  0.5605720000000  0.4009930000000 1.0
C      1  0.5650240000000  0.4176560000000  0.5256390000000 1.0
C      1  0.4304560000000  0.5436720000000  0.5717590000000 1.0
C      1  0.5127850000000  0.6031130000000  0.4717770000000 1.0
C      1  0.5261960000000  0.5310880000000  0.5268850000000 1.0
C      1  0.5265130000000  0.5047270000000  0.3959250000000 1.0
C      1  0.4022290000000  0.4553780000000  0.5220900000000 1.0
C      1  0.5712770000000  0.5110350000000  0.5749150000000 1.0
C      1  0.4742850000000  0.5230050000000  0.4378990000000 1.0
C      1  0.5278130000000  0.6010510000000  0.5180500000000 1.0
C      1  0.4430410000000  0.4155750000000  0.4330330000000 1.0
C      1  0.5462400000000  0.5494800000000  0.4921960000000 1.0
C      1  0.4286370000000  0.5028430000000  0.5129470000000 1.0
C      1  0.5999580000000  0.5241200000000  0.4771620000000 1.0
C      1  0.4481880000000  0.4856110000000  0.4555790000000 1.0
C      1  0.5580810000000  0.5913970000000  0.5561590000000 1.0
C      1  0.6028270000000  0.4955050000000  0.4691170000000 1.0
C      1  0.4974380000000  0.4704500000000  0.5517070000000 1.0
C      1  0.4259660000000  0.4951510000000  0.4687250000000 1.0
C      1  0.5147770000000  0.5063340000000  0.5306610000000 1.0
C      1  0.5614350000000  0.5261200000000  0.4987230000000 1.0
C      1  0.5842340000000  0.4393990000000  0.5291250000000 1.0
C      1  0.5635300000000  0.3818980000000  0.4866180000000 1.0
C      1  0.4455420000000  0.4412150000000  0.4186130000000 1.0
C      1  0.4986320000000  0.4727090000000  0.4510790000000 1.0
C      1  0.5135030000000  0.5618060000000  0.6161290000000 1.0
C      1  0.4249080000000  0.4098580000000  0.4534910000000 1.0
C      1  0.4378900000000  0.5688030000000  0.5619360000000 1.0
C      1  0.4685100000000  0.5564330000000  0.5935640000000 1.0
C      1  0.4702460000000  0.4063180000000  0.4355830000000 1.0
C      1  0.4637560000000  0.5934010000000  0.4661530000000 1.0
C      1  0.4790130000000  0.5478770000000  0.5283270000000 1.0
C      1  0.4506650000000  0.5319130000000  0.5898260000000 1.0
C      1  0.4146170000000  0.5660750000000  0.5039710000000 1.0
C      1  0.5901740000000  0.4411630000000  0.5576620000000 1.0
C      1  0.5483940000000  0.5243120000000  0.5850880000000 1.0
C      1  0.5398210000000  0.5644890000000  0.6109700000000 1.0
END
