TITL C-3866670-4165-36 0.000821804886084648 125000 -795.175893476408 0 0 131 (C1) n - 1
REM
REM in /home/nfs/bkarasulu/CARBON/AIRSS/Generating-Clusters/LCBOP/Only-C1/SD-CG/HFTN-CG/FIRE-CG
REM
REM
REM
REM
REM
REM ./C.cell (11c1c37f851c82e70ff6c80c92926a4b)
REM AIRSS Version 0.9.1 bugfix July 2018 build 013d7b7c2542+ Fri, 06 Jul 2018 19:26:36 +0100
REM compiler GCC version 9.2.1 20190827 (Red Hat 9.2.1-1)
REM options -cpp -mtune=generic -march=x86-64 -g -O0 -fpre-include=/usr/include/finclude/math-vector-fortran.h
REM seed 1332795297 -312404991 1581804535 -757855247 -957237788 -1031507075 -1149184225 -1775898138 1133062585 -1848992078 1202018663 30268772 -1042224108 -1673187154 -1332547989 1450416276 2125445796 -1414892239 351364118 283551760 2115679549 111277069 -2054508406 1139511079 -1211340281 1890877891 621782478 -1401015358 1858491918 931000031 1586180299 -810163860 1279225575
REM
CELL 1.54180   50.00000   50.00000   50.00000   90.00000   90.00000   90.00000
LATT -1
SFAC C  
C      1  0.4079640000000  0.4882150000000  0.5569950000000 1.0
C      1  0.5480920000000  0.5572700000000  0.5768040000000 1.0
C      1  0.4955970000000  0.4597430000000  0.5305330000000 1.0
C      1  0.5630060000000  0.4884600000000  0.5546630000000 1.0
C      1  0.5605370000000  0.5737210000000  0.5568470000000 1.0
C      1  0.4050830000000  0.5469300000000  0.5191350000000 1.0
C      1  0.4945110000000  0.5455620000000  0.5060690000000 1.0
C      1  0.4160160000000  0.5405840000000  0.4540250000000 1.0
C      1  0.6083820000000  0.4866040000000  0.4867170000000 1.0
C      1  0.3866630000000  0.4708400000000  0.5665790000000 1.0
C      1  0.5747530000000  0.4304730000000  0.4988120000000 1.0
C      1  0.4245350000000  0.5081200000000  0.4923360000000 1.0
C      1  0.4597830000000  0.5376630000000  0.4019990000000 1.0
C      1  0.4354820000000  0.4944200000000  0.4485490000000 1.0
C      1  0.5513900000000  0.5294400000000  0.5839700000000 1.0
C      1  0.5189730000000  0.4746690000000  0.5789320000000 1.0
C      1  0.5051270000000  0.4239980000000  0.5811240000000 1.0
C      1  0.4589590000000  0.5706610000000  0.4890590000000 1.0
C      1  0.5391240000000  0.5873150000000  0.5150360000000 1.0
C      1  0.5278570000000  0.4462040000000  0.4284820000000 1.0
C      1  0.4683500000000  0.5957220000000  0.4991770000000 1.0
C      1  0.4875790000000  0.5001930000000  0.4292210000000 1.0
C      1  0.5160450000000  0.5901360000000  0.5582680000000 1.0
C      1  0.5115130000000  0.4932820000000  0.4166920000000 1.0
C      1  0.5504760000000  0.5246460000000  0.4828200000000 1.0
C      1  0.5727840000000  0.5267490000000  0.4362640000000 1.0
C      1  0.5181560000000  0.4152630000000  0.5361880000000 1.0
C      1  0.4411710000000  0.5809920000000  0.5432120000000 1.0
C      1  0.4683130000000  0.4982430000000  0.5130450000000 1.0
C      1  0.5240880000000  0.4898610000000  0.6028380000000 1.0
C      1  0.5054690000000  0.5398670000000  0.5321270000000 1.0
C      1  0.4619600000000  0.4323540000000  0.5472450000000 1.0
C      1  0.4679120000000  0.4373130000000  0.4162480000000 1.0
C      1  0.5576680000000  0.5145110000000  0.4582890000000 1.0
C      1  0.4971600000000  0.4593410000000  0.4628710000000 1.0
C      1  0.4593260000000  0.4350840000000  0.4434150000000 1.0
C      1  0.5179520000000  0.5964770000000  0.4719500000000 1.0
C      1  0.5993720000000  0.4951310000000  0.4607930000000 1.0
C      1  0.6016820000000  0.5224110000000  0.5150440000000 1.0
C      1  0.4579470000000  0.4988870000000  0.5728220000000 1.0
C      1  0.5761980000000  0.4466470000000  0.5229980000000 1.0
C      1  0.5725450000000  0.4780360000000  0.5261780000000 1.0
C      1  0.3562350000000  0.5666660000000  0.5074990000000 1.0
C      1  0.5306580000000  0.5178730000000  0.6013000000000 1.0
C      1  0.5216590000000  0.4643640000000  0.6508310000000 1.0
C      1  0.5710610000000  0.4893660000000  0.4584780000000 1.0
C      1  0.5134940000000  0.5371340000000  0.6134260000000 1.0
C      1  0.5223400000000  0.5721990000000  0.5816160000000 1.0
C      1  0.5105030000000  0.5625730000000  0.4372810000000 1.0
C      1  0.5445440000000  0.4821180000000  0.5110450000000 1.0
C      1  0.4379770000000  0.4960410000000  0.4206910000000 1.0
C      1  0.5034520000000  0.5314650000000  0.4834660000000 1.0
C      1  0.6111580000000  0.5412030000000  0.4682600000000 1.0
C      1  0.5120900000000  0.4642800000000  0.4118460000000 1.0
C      1  0.5050560000000  0.5069270000000  0.4733290000000 1.0
C      1  0.5677340000000  0.5728410000000  0.4790560000000 1.0
C      1  0.5137450000000  0.4379490000000  0.4523260000000 1.0
C      1  0.4687340000000  0.4577400000000  0.4591250000000 1.0
C      1  0.5333850000000  0.4842360000000  0.5560240000000 1.0
C      1  0.5285110000000  0.5175810000000  0.4135130000000 1.0
C      1  0.5566030000000  0.5758860000000  0.4544990000000 1.0
C      1  0.5721770000000  0.4055320000000  0.4572590000000 1.0
C      1  0.5009050000000  0.4070730000000  0.5576800000000 1.0
C      1  0.4466570000000  0.3943310000000  0.4777660000000 1.0
C      1  0.3802570000000  0.5571190000000  0.5108370000000 1.0
C      1  0.5104310000000  0.4121930000000  0.4688670000000 1.0
C      1  0.4875150000000  0.4514970000000  0.4036280000000 1.0
C      1  0.6099350000000  0.5396690000000  0.4955110000000 1.0
C      1  0.4098530000000  0.5187740000000  0.5144270000000 1.0
C      1  0.4992860000000  0.3701550000000  0.4342190000000 1.0
C      1  0.5789170000000  0.4483620000000  0.4771610000000 1.0
C      1  0.5623380000000  0.4082960000000  0.4843860000000 1.0
C      1  0.4919930000000  0.6007490000000  0.5145810000000 1.0
C      1  0.4589760000000  0.5657470000000  0.4608710000000 1.0
C      1  0.4666940000000  0.4318090000000  0.4995440000000 1.0
C      1  0.5542440000000  0.5663610000000  0.5033080000000 1.0
C      1  0.5123290000000  0.4800060000000  0.4743680000000 1.0
C      1  0.4514140000000  0.4784150000000  0.4670270000000 1.0
C      1  0.5088310000000  0.5623290000000  0.6043790000000 1.0
C      1  0.5000920000000  0.4523290000000  0.5770210000000 1.0
C      1  0.5411010000000  0.5897340000000  0.5428570000000 1.0
C      1  0.5169210000000  0.5980650000000  0.5003880000000 1.0
C      1  0.5344060000000  0.4053050000000  0.4853670000000 1.0
C      1  0.5678490000000  0.4901050000000  0.4036160000000 1.0
C      1  0.5579210000000  0.5153020000000  0.4131970000000 1.0
C      1  0.4912330000000  0.5955960000000  0.5432990000000 1.0
C      1  0.5289020000000  0.5797600000000  0.4510440000000 1.0
C      1  0.4326470000000  0.4918910000000  0.5689100000000 1.0
C      1  0.4946030000000  0.4871840000000  0.5221020000000 1.0
C      1  0.4484700000000  0.5116540000000  0.4013530000000 1.0
C      1  0.5693450000000  0.5113550000000  0.5705860000000 1.0
C      1  0.5232090000000  0.4772490000000  0.6277360000000 1.0
C      1  0.4894900000000  0.5362600000000  0.5559380000000 1.0
C      1  0.4802940000000  0.5120010000000  0.5665550000000 1.0
C      1  0.5600800000000  0.4672560000000  0.4697080000000 1.0
C      1  0.5471340000000  0.5385990000000  0.5070020000000 1.0
C      1  0.5034210000000  0.3895100000000  0.4511500000000 1.0
C      1  0.4215750000000  0.5147180000000  0.4641770000000 1.0
C      1  0.4875060000000  0.4193750000000  0.4877600000000 1.0
C      1  0.4677480000000  0.5818490000000  0.5529600000000 1.0
C      1  0.5200310000000  0.4515130000000  0.6734540000000 1.0
C      1  0.5296410000000  0.5259570000000  0.5268220000000 1.0
C      1  0.3975680000000  0.5004690000000  0.5319980000000 1.0
C      1  0.3658100000000  0.5566390000000  0.4434500000000 1.0
C      1  0.4663340000000  0.5488560000000  0.5058120000000 1.0
C      1  0.5957360000000  0.4943400000000  0.5121530000000 1.0
C      1  0.3897300000000  0.5493060000000  0.4507560000000 1.0
C      1  0.4376300000000  0.5565770000000  0.4445000000000 1.0
C      1  0.5148640000000  0.4395890000000  0.5240450000000 1.0
C      1  0.4485770000000  0.4119780000000  0.4568810000000 1.0
C      1  0.5376280000000  0.4731560000000  0.4855090000000 1.0
C      1  0.4878590000000  0.5421040000000  0.3996960000000 1.0
C      1  0.3649410000000  0.4719500000000  0.5493510000000 1.0
C      1  0.3707900000000  0.4893950000000  0.5285720000000 1.0
C      1  0.4730290000000  0.4050260000000  0.5487320000000 1.0
C      1  0.5554350000000  0.4419870000000  0.4223940000000 1.0
C      1  0.4626480000000  0.3873750000000  0.5283080000000 1.0
C      1  0.5122880000000  0.5427440000000  0.4155120000000 1.0
C      1  0.4840570000000  0.5659240000000  0.4476610000000 1.0
C      1  0.4812150000000  0.4529270000000  0.5545260000000 1.0
C      1  0.4220790000000  0.5648030000000  0.5331880000000 1.0
C      1  0.5242160000000  0.4961870000000  0.5286380000000 1.0
C      1  0.4752790000000  0.5582840000000  0.5660710000000 1.0
C      1  0.4584030000000  0.5250650000000  0.5191780000000 1.0
C      1  0.4523970000000  0.3851640000000  0.5029650000000 1.0
C      1  0.4512600000000  0.4369780000000  0.5212230000000 1.0
C      1  0.4438400000000  0.5560160000000  0.4167040000000 1.0
C      1  0.4483110000000  0.4893770000000  0.4938190000000 1.0
C      1  0.6007560000000  0.5230080000000  0.4486170000000 1.0
C      1  0.5679750000000  0.4634790000000  0.4085140000000 1.0
C      1  0.5685350000000  0.4198330000000  0.4344230000000 1.0
END
