TITL C-3866669-3764-99 0.000231314932944411 125000 -580.563259877445 0 0 98 (C1) n - 1
REM
REM in /home/nfs/bkarasulu/CARBON/AIRSS/Generating-Clusters/LCBOP/Only-C1/SD-CG/HFTN-CG/FIRE-CG
REM
REM
REM
REM
REM
REM ./C.cell (11c1c37f851c82e70ff6c80c92926a4b)
REM AIRSS Version 0.9.1 bugfix July 2018 build 013d7b7c2542+ Fri, 06 Jul 2018 19:26:36 +0100
REM compiler GCC version 9.2.1 20190827 (Red Hat 9.2.1-1)
REM options -cpp -mtune=generic -march=x86-64 -g -O0 -fpre-include=/usr/include/finclude/math-vector-fortran.h
REM seed -1104440213 -54941393 -1489450066 545531160 489265427 889272170 161123198 799251707 -1483233109 -87027124 -1594682901 -142536016 -54852284 -1189594563 -361652637 -1661898622 -412334086 -1768034783 1805049427 2023375907 -22750139 -527174760 479567853 878028738 -1745753365 2103430877 -2128012732 -815998999 593446094 58847278 -125191095 462185408 -520888621
REM
CELL 1.54180   50.00000   50.00000   50.00000   90.00000   90.00000   90.00000
LATT -1
SFAC C  
C      1  0.4914600000000  0.5481070000000  0.5785230000000 1.0
C      1  0.4273100000000  0.5220860000000  0.5054540000000 1.0
C      1  0.4388260000000  0.4824420000000  0.4546460000000 1.0
C      1  0.5928710000000  0.5034890000000  0.4800410000000 1.0
C      1  0.5718030000000  0.5648120000000  0.4414800000000 1.0
C      1  0.4968910000000  0.4397300000000  0.4714070000000 1.0
C      1  0.5473350000000  0.5100010000000  0.4269870000000 1.0
C      1  0.5307980000000  0.4298650000000  0.5494090000000 1.0
C      1  0.4508990000000  0.4866720000000  0.4269710000000 1.0
C      1  0.5559350000000  0.5773220000000  0.4237820000000 1.0
C      1  0.4783890000000  0.4862160000000  0.4804130000000 1.0
C      1  0.4685010000000  0.4006320000000  0.4720120000000 1.0
C      1  0.5942270000000  0.4747200000000  0.4835300000000 1.0
C      1  0.5607430000000  0.4794480000000  0.5961210000000 1.0
C      1  0.4086360000000  0.4362400000000  0.4911380000000 1.0
C      1  0.5514930000000  0.5645700000000  0.4847160000000 1.0
C      1  0.4802900000000  0.5256970000000  0.5226220000000 1.0
C      1  0.5033200000000  0.4416040000000  0.5446750000000 1.0
C      1  0.3920730000000  0.5011900000000  0.4797540000000 1.0
C      1  0.4379720000000  0.5419780000000  0.4876590000000 1.0
C      1  0.5322400000000  0.5054900000000  0.4724630000000 1.0
C      1  0.5376120000000  0.5012630000000  0.4999660000000 1.0
C      1  0.5463300000000  0.4814300000000  0.5497890000000 1.0
C      1  0.5786120000000  0.5607010000000  0.5250000000000 1.0
C      1  0.4016830000000  0.5096080000000  0.5056360000000 1.0
C      1  0.4761980000000  0.4587530000000  0.4731990000000 1.0
C      1  0.4902960000000  0.4137230000000  0.4625220000000 1.0
C      1  0.4991300000000  0.5082120000000  0.5389160000000 1.0
C      1  0.4631050000000  0.4169850000000  0.5167880000000 1.0
C      1  0.4945000000000  0.4631930000000  0.5631380000000 1.0
C      1  0.5516130000000  0.5262950000000  0.5471430000000 1.0
C      1  0.3973670000000  0.4939490000000  0.5299130000000 1.0
C      1  0.5811200000000  0.4326760000000  0.4633950000000 1.0
C      1  0.5218170000000  0.5133540000000  0.4181920000000 1.0
C      1  0.5708200000000  0.4219210000000  0.4861190000000 1.0
C      1  0.4529400000000  0.5419190000000  0.4412800000000 1.0
C      1  0.4507120000000  0.5293410000000  0.4654210000000 1.0
C      1  0.5182380000000  0.5734340000000  0.5401910000000 1.0
C      1  0.5720580000000  0.4360110000000  0.5105770000000 1.0
C      1  0.5704930000000  0.5515260000000  0.4666560000000 1.0
C      1  0.5428940000000  0.4907700000000  0.5772850000000 1.0
C      1  0.6059900000000  0.4650320000000  0.4365690000000 1.0
C      1  0.5090070000000  0.5898820000000  0.4750160000000 1.0
C      1  0.5081060000000  0.5189910000000  0.4631260000000 1.0
C      1  0.5758460000000  0.5225890000000  0.4668860000000 1.0
C      1  0.5171500000000  0.4348850000000  0.5961250000000 1.0
C      1  0.5325280000000  0.5874080000000  0.4155700000000 1.0
C      1  0.5741930000000  0.5395380000000  0.5411300000000 1.0
C      1  0.4518170000000  0.4134620000000  0.4911000000000 1.0
C      1  0.4105650000000  0.4893840000000  0.4614320000000 1.0
C      1  0.4477370000000  0.4550140000000  0.4666400000000 1.0
C      1  0.5910450000000  0.4699680000000  0.5350090000000 1.0
C      1  0.4451250000000  0.5032790000000  0.5155280000000 1.0
C      1  0.5321930000000  0.4220740000000  0.5772140000000 1.0
C      1  0.4837400000000  0.5948290000000  0.4630560000000 1.0
C      1  0.5059650000000  0.5428620000000  0.4792020000000 1.0
C      1  0.3925770000000  0.4467910000000  0.5095850000000 1.0
C      1  0.5255840000000  0.5101360000000  0.5882490000000 1.0
C      1  0.4854240000000  0.4900620000000  0.5572280000000 1.0
C      1  0.4995930000000  0.4549730000000  0.5902010000000 1.0
C      1  0.5941160000000  0.4577680000000  0.4600370000000 1.0
C      1  0.5588040000000  0.5751540000000  0.5107090000000 1.0
C      1  0.4861860000000  0.5989250000000  0.4351780000000 1.0
C      1  0.5901630000000  0.4603430000000  0.5081280000000 1.0
C      1  0.4631360000000  0.5406130000000  0.5402320000000 1.0
C      1  0.5673220000000  0.4617730000000  0.5483550000000 1.0
C      1  0.4351000000000  0.4974040000000  0.5647930000000 1.0
C      1  0.4437000000000  0.5697000000000  0.4888310000000 1.0
C      1  0.5243710000000  0.5252360000000  0.5399220000000 1.0
C      1  0.5031680000000  0.5710540000000  0.5645880000000 1.0
C      1  0.5166370000000  0.5492880000000  0.5254190000000 1.0
C      1  0.3883420000000  0.4676200000000  0.5257180000000 1.0
C      1  0.5190130000000  0.4447940000000  0.4874300000000 1.0
C      1  0.5767380000000  0.4698720000000  0.6143350000000 1.0
C      1  0.3907360000000  0.5137110000000  0.5734250000000 1.0
C      1  0.5357260000000  0.4826370000000  0.5215080000000 1.0
C      1  0.5565040000000  0.4367720000000  0.5364910000000 1.0
C      1  0.3658660000000  0.5047840000000  0.4727820000000 1.0
C      1  0.4080630000000  0.5014480000000  0.5558620000000 1.0
C      1  0.4624990000000  0.5049950000000  0.5690990000000 1.0
C      1  0.4602010000000  0.5877770000000  0.4772230000000 1.0
C      1  0.5263770000000  0.4589420000000  0.5086820000000 1.0
C      1  0.4195240000000  0.4889390000000  0.3831290000000 1.0
C      1  0.5540180000000  0.5090230000000  0.4543840000000 1.0
C      1  0.5070250000000  0.5951400000000  0.4184770000000 1.0
C      1  0.5039420000000  0.4477170000000  0.4006370000000 1.0
C      1  0.4992570000000  0.5098920000000  0.4359700000000 1.0
C      1  0.5235830000000  0.5657670000000  0.4764550000000 1.0
C      1  0.4969390000000  0.5415700000000  0.5058310000000 1.0
C      1  0.5096110000000  0.5312290000000  0.5921980000000 1.0
C      1  0.4348150000000  0.4876950000000  0.4041920000000 1.0
C      1  0.4572050000000  0.5022470000000  0.4697550000000 1.0
C      1  0.4678560000000  0.5346150000000  0.5680160000000 1.0
C      1  0.4831170000000  0.4268470000000  0.5315060000000 1.0
C      1  0.5393390000000  0.5883790000000  0.5278390000000 1.0
C      1  0.4927100000000  0.4680890000000  0.4123800000000 1.0
C      1  0.4800810000000  0.4896660000000  0.4258630000000 1.0
C      1  0.4344730000000  0.4340380000000  0.4808250000000 1.0
END
