TITL C-3866675-3766-393 -8.34523694081796e-07 125000 -942.723165258197 0 0 154 (C1) n - 1
REM
REM in /home/nfs/bkarasulu/CARBON/AIRSS/Generating-Clusters/LCBOP/Only-C1/SD-CG/FIRE-CG
REM
REM
REM
REM
REM
REM ./C.cell (11c1c37f851c82e70ff6c80c92926a4b)
REM AIRSS Version 0.9.1 bugfix July 2018 build 013d7b7c2542+ Fri, 06 Jul 2018 19:26:36 +0100
REM compiler GCC version 9.2.1 20190827 (Red Hat 9.2.1-1)
REM options -cpp -mtune=generic -march=x86-64 -g -O0 -fpre-include=/usr/include/finclude/math-vector-fortran.h
REM seed 890242688 -840088048 713246097 -1300809711 -2080693551 1397260700 394210530 567170410 311512208 1004932844 -1182256090 1766574474 -1346846557 789037903 1811152213 -1961872571 1416029134 324101788 -609200528 -1575303917 1322205415 212338076 -859521093 -806412357 -698903290 -1673425878 255633061 179662195 -1430532164 1879226413 -928350108 363970327 -1479723912
REM
CELL 1.54180   50.00000   50.00000   50.00000   90.00000   90.00000   90.00000
LATT -1
SFAC C  
C      1  0.4779870000000  0.4077640000000  0.4089940000000 1.0
C      1  0.4627680000000  0.5489720000000  0.4709860000000 1.0
C      1  0.5964800000000  0.5358590000000  0.5671240000000 1.0
C      1  0.3830660000000  0.5483670000000  0.4816490000000 1.0
C      1  0.5275650000000  0.4588040000000  0.5296120000000 1.0
C      1  0.5707340000000  0.4686920000000  0.5818070000000 1.0
C      1  0.5283470000000  0.5155230000000  0.5391770000000 1.0
C      1  0.5467090000000  0.4802120000000  0.5866210000000 1.0
C      1  0.4178440000000  0.5722990000000  0.5632200000000 1.0
C      1  0.5324820000000  0.5597760000000  0.5463270000000 1.0
C      1  0.4489620000000  0.5040760000000  0.4009700000000 1.0
C      1  0.5668240000000  0.4266630000000  0.5565820000000 1.0
C      1  0.4052280000000  0.4484220000000  0.5862390000000 1.0
C      1  0.4875510000000  0.5083810000000  0.5986330000000 1.0
C      1  0.4199740000000  0.3869480000000  0.5727580000000 1.0
C      1  0.4351550000000  0.4680130000000  0.5123060000000 1.0
C      1  0.5615360000000  0.5599540000000  0.4373050000000 1.0
C      1  0.4849560000000  0.5065000000000  0.5697470000000 1.0
C      1  0.4835390000000  0.4160390000000  0.4562900000000 1.0
C      1  0.5175490000000  0.5303380000000  0.6313400000000 1.0
C      1  0.5309810000000  0.5292040000000  0.6536410000000 1.0
C      1  0.5909030000000  0.4719370000000  0.4902630000000 1.0
C      1  0.5057840000000  0.4769690000000  0.5332890000000 1.0
C      1  0.3825560000000  0.5132070000000  0.4433410000000 1.0
C      1  0.4397260000000  0.5540340000000  0.4562160000000 1.0
C      1  0.4346860000000  0.5767550000000  0.5834700000000 1.0
C      1  0.4698550000000  0.3825070000000  0.5372600000000 1.0
C      1  0.4979110000000  0.4794470000000  0.5624370000000 1.0
C      1  0.5352990000000  0.3933400000000  0.5638270000000 1.0
C      1  0.4604380000000  0.5742680000000  0.4002710000000 1.0
C      1  0.5852980000000  0.4374070000000  0.4591990000000 1.0
C      1  0.5312730000000  0.5510310000000  0.4934830000000 1.0
C      1  0.4917010000000  0.5750120000000  0.5012560000000 1.0
C      1  0.4734100000000  0.4611090000000  0.5619310000000 1.0
C      1  0.5790840000000  0.4519860000000  0.5605890000000 1.0
C      1  0.4965390000000  0.3913290000000  0.5355900000000 1.0
C      1  0.4301300000000  0.4648820000000  0.4843090000000 1.0
C      1  0.5291840000000  0.4514810000000  0.3804310000000 1.0
C      1  0.5118440000000  0.5684260000000  0.4818440000000 1.0
C      1  0.5924350000000  0.4657820000000  0.4628000000000 1.0
C      1  0.5519830000000  0.5805780000000  0.5832050000000 1.0
C      1  0.4224590000000  0.5723880000000  0.4691730000000 1.0
C      1  0.4103510000000  0.4667080000000  0.3514750000000 1.0
C      1  0.5169780000000  0.4262050000000  0.4912160000000 1.0
C      1  0.4072210000000  0.5600950000000  0.4899330000000 1.0
C      1  0.5385650000000  0.5573650000000  0.5201860000000 1.0
C      1  0.4509630000000  0.5148770000000  0.5324500000000 1.0
C      1  0.5066590000000  0.5220690000000  0.5246330000000 1.0
C      1  0.5823100000000  0.5240890000000  0.4938900000000 1.0
C      1  0.4910170000000  0.5231780000000  0.5009290000000 1.0
C      1  0.4986990000000  0.4372650000000  0.6062740000000 1.0
C      1  0.4635730000000  0.4474110000000  0.5395990000000 1.0
C      1  0.4371810000000  0.4442670000000  0.5290600000000 1.0
C      1  0.3741480000000  0.5326850000000  0.4618580000000 1.0
C      1  0.5213740000000  0.4692690000000  0.5807540000000 1.0
C      1  0.3871610000000  0.5197310000000  0.4162690000000 1.0
C      1  0.4058850000000  0.5251680000000  0.3958220000000 1.0
C      1  0.4945510000000  0.4098500000000  0.4306960000000 1.0
C      1  0.5846170000000  0.5488980000000  0.4793080000000 1.0
C      1  0.4996350000000  0.4197110000000  0.5377050000000 1.0
C      1  0.4272800000000  0.4119440000000  0.5638690000000 1.0
C      1  0.4763430000000  0.6036690000000  0.4468370000000 1.0
C      1  0.4925750000000  0.5827270000000  0.4373490000000 1.0
C      1  0.5885320000000  0.4201160000000  0.4826130000000 1.0
C      1  0.4993880000000  0.5451780000000  0.4053720000000 1.0
C      1  0.6135860000000  0.5452500000000  0.5468520000000 1.0
C      1  0.5741380000000  0.4669390000000  0.5119990000000 1.0
C      1  0.5467640000000  0.4591990000000  0.5084520000000 1.0
C      1  0.5291600000000  0.5087100000000  0.4210500000000 1.0
C      1  0.5332760000000  0.5556370000000  0.4383060000000 1.0
C      1  0.4595090000000  0.3937710000000  0.4937130000000 1.0
C      1  0.5145830000000  0.4699520000000  0.3952730000000 1.0
C      1  0.5373880000000  0.4448940000000  0.4855850000000 1.0
C      1  0.4496550000000  0.5129400000000  0.4280470000000 1.0
C      1  0.5426890000000  0.4349760000000  0.3654520000000 1.0
C      1  0.4604390000000  0.5740490000000  0.5904410000000 1.0
C      1  0.6047950000000  0.5162540000000  0.5084460000000 1.0
C      1  0.4843610000000  0.3961880000000  0.4785320000000 1.0
C      1  0.5224910000000  0.4060730000000  0.4275570000000 1.0
C      1  0.4326010000000  0.4159910000000  0.5352610000000 1.0
C      1  0.5666990000000  0.4076090000000  0.5320990000000 1.0
C      1  0.4296870000000  0.5993420000000  0.4659740000000 1.0
C      1  0.4507580000000  0.4524590000000  0.4695380000000 1.0
C      1  0.5914500000000  0.4891800000000  0.4459600000000 1.0
C      1  0.6097770000000  0.5714130000000  0.5370350000000 1.0
C      1  0.5136550000000  0.5713250000000  0.4532800000000 1.0
C      1  0.4827220000000  0.4821650000000  0.5169550000000 1.0
C      1  0.4210960000000  0.5521200000000  0.5138420000000 1.0
C      1  0.5714090000000  0.5808210000000  0.4225100000000 1.0
C      1  0.5870580000000  0.5160380000000  0.4427890000000 1.0
C      1  0.5059120000000  0.5121020000000  0.4785980000000 1.0
C      1  0.4760910000000  0.6185610000000  0.5535610000000 1.0
C      1  0.4284720000000  0.4337960000000  0.5831760000000 1.0
C      1  0.4148600000000  0.5513760000000  0.3900350000000 1.0
C      1  0.4751400000000  0.4540710000000  0.6087660000000 1.0
C      1  0.5460520000000  0.6105600000000  0.5281150000000 1.0
C      1  0.5042970000000  0.5307910000000  0.6067850000000 1.0
C      1  0.5217990000000  0.5360380000000  0.4207830000000 1.0
C      1  0.5208330000000  0.4407320000000  0.5886920000000 1.0
C      1  0.4904990000000  0.4951530000000  0.4614060000000 1.0
C      1  0.5434020000000  0.3884670000000  0.5348890000000 1.0
C      1  0.4968090000000  0.4677090000000  0.4570880000000 1.0
C      1  0.5482960000000  0.4133530000000  0.4306490000000 1.0
C      1  0.4785630000000  0.5544710000000  0.5501360000000 1.0
C      1  0.4438740000000  0.5347330000000  0.5131510000000 1.0
C      1  0.5074980000000  0.5537110000000  0.5888630000000 1.0
C      1  0.4690710000000  0.5040390000000  0.4459430000000 1.0
C      1  0.5887480000000  0.5833030000000  0.5219150000000 1.0
C      1  0.4077560000000  0.4750960000000  0.4710500000000 1.0
C      1  0.5689130000000  0.5936330000000  0.5662770000000 1.0
C      1  0.4880410000000  0.5276900000000  0.3865240000000 1.0
C      1  0.5230790000000  0.4338760000000  0.5434030000000 1.0
C      1  0.5372410000000  0.4238880000000  0.5682330000000 1.0
C      1  0.4829070000000  0.5632020000000  0.5777070000000 1.0
C      1  0.5727190000000  0.5236260000000  0.5663460000000 1.0
C      1  0.4495730000000  0.3955880000000  0.5210860000000 1.0
C      1  0.5310250000000  0.5634040000000  0.5747550000000 1.0
C      1  0.6207630000000  0.5257610000000  0.5277710000000 1.0
C      1  0.4236780000000  0.5040160000000  0.3879480000000 1.0
C      1  0.5864570000000  0.4649500000000  0.5370160000000 1.0
C      1  0.4741730000000  0.5031270000000  0.3878240000000 1.0
C      1  0.5857570000000  0.5726470000000  0.4952720000000 1.0
C      1  0.4546290000000  0.4888070000000  0.5204510000000 1.0
C      1  0.5194830000000  0.3847010000000  0.5178410000000 1.0
C      1  0.4821620000000  0.4354040000000  0.5227030000000 1.0
C      1  0.4135750000000  0.5633160000000  0.5385000000000 1.0
C      1  0.5695300000000  0.5980750000000  0.5378230000000 1.0
C      1  0.4164980000000  0.4848940000000  0.3690970000000 1.0
C      1  0.4792100000000  0.4832810000000  0.6116960000000 1.0
C      1  0.4938990000000  0.6021040000000  0.5398130000000 1.0
C      1  0.4662840000000  0.5361490000000  0.4952230000000 1.0
C      1  0.5246120000000  0.4806770000000  0.4198740000000 1.0
C      1  0.5325690000000  0.5235900000000  0.4831620000000 1.0
C      1  0.5217270000000  0.4649440000000  0.4436420000000 1.0
C      1  0.3926530000000  0.4893540000000  0.4543810000000 1.0
C      1  0.4525070000000  0.6104810000000  0.4570300000000 1.0
C      1  0.4506900000000  0.4419470000000  0.5994570000000 1.0
C      1  0.4910420000000  0.4394650000000  0.4961230000000 1.0
C      1  0.5410470000000  0.4506280000000  0.4579930000000 1.0
C      1  0.4848660000000  0.5686710000000  0.4133480000000 1.0
C      1  0.5573230000000  0.5114700000000  0.4890860000000 1.0
C      1  0.4858030000000  0.5759220000000  0.5296340000000 1.0
C      1  0.4898440000000  0.4799260000000  0.3861750000000 1.0
C      1  0.5796790000000  0.5429310000000  0.4513540000000 1.0
C      1  0.4705090000000  0.5249750000000  0.5518140000000 1.0
C      1  0.5809230000000  0.4113180000000  0.5073420000000 1.0
C      1  0.5604090000000  0.4338730000000  0.4455840000000 1.0
C      1  0.5195220000000  0.6117810000000  0.5322830000000 1.0
C      1  0.4794160000000  0.4448820000000  0.4680820000000 1.0
C      1  0.4357490000000  0.5681140000000  0.3919250000000 1.0
C      1  0.4348250000000  0.5352850000000  0.4364280000000 1.0
C      1  0.4604720000000  0.6363970000000  0.5643900000000 1.0
C      1  0.5510960000000  0.5154330000000  0.5530850000000 1.0
C      1  0.5116620000000  0.3972790000000  0.4923400000000 1.0
END
