TITL C-3866674-3872-426 1.42173150112857 125000 -804.976916748337 0 0 131 (C1) n - 1
REM
REM in /home/nfs/bkarasulu/CARBON/AIRSS/Generating-Clusters/LCBOP/Only-C1/SD-CG/FIRE-CG
REM
REM
REM
REM
REM
REM ./C.cell (11c1c37f851c82e70ff6c80c92926a4b)
REM AIRSS Version 0.9.1 bugfix July 2018 build 013d7b7c2542+ Fri, 06 Jul 2018 19:26:36 +0100
REM compiler GCC version 9.2.1 20190827 (Red Hat 9.2.1-1)
REM options -cpp -mtune=generic -march=x86-64 -g -O0 -fpre-include=/usr/include/finclude/math-vector-fortran.h
REM seed 1332011563 1796762556 158429774 -1814308534 -601550978 67990052 -438817007 -1160982071 -94618611 191670928 -212128040 1473547952 1010456546 -1176634516 -76137901 1503929963 -574084451 -660461741 -153900663 -747895897 -462132705 -716359345 780554052 670051403 1038008876 -1793397918 -1290400759 -486509310 508001813 1722374945 -474347158 -913851563 -773772187
REM
CELL 1.54180   50.00000   50.00000   50.00000   90.00000   90.00000   90.00000
LATT -1
SFAC C  
C      1  0.4918740000000  0.5437040000000  0.4707800000000 1.0
C      1  0.4939590000000  0.3864110000000  0.4982320000000 1.0
C      1  0.4874550000000  0.3872580000000  0.5266020000000 1.0
C      1  0.5173570000000  0.5421410000000  0.5461580000000 1.0
C      1  0.5870770000000  0.4314090000000  0.5392850000000 1.0
C      1  0.5347730000000  0.5142850000000  0.5935800000000 1.0
C      1  0.4436260000000  0.4974800000000  0.4730690000000 1.0
C      1  0.3928650000000  0.5602150000000  0.4817250000000 1.0
C      1  0.5451610000000  0.5398820000000  0.5558670000000 1.0
C      1  0.4901520000000  0.4914330000000  0.4554370000000 1.0
C      1  0.4831000000000  0.4430490000000  0.4820980000000 1.0
C      1  0.5008910000000  0.5283130000000  0.6258720000000 1.0
C      1  0.5568140000000  0.5379450000000  0.4952670000000 1.0
C      1  0.5241910000000  0.4633070000000  0.4061990000000 1.0
C      1  0.4522160000000  0.5788980000000  0.5396860000000 1.0
C      1  0.5317980000000  0.4428720000000  0.5584670000000 1.0
C      1  0.5092580000000  0.4865730000000  0.3975020000000 1.0
C      1  0.4440920000000  0.5182730000000  0.4113620000000 1.0
C      1  0.4922010000000  0.5517620000000  0.5598490000000 1.0
C      1  0.4453630000000  0.5353160000000  0.4344170000000 1.0
C      1  0.4822140000000  0.5708690000000  0.4262610000000 1.0
C      1  0.5226910000000  0.5137340000000  0.6191820000000 1.0
C      1  0.5647620000000  0.3944440000000  0.4816870000000 1.0
C      1  0.4612030000000  0.3743050000000  0.5268800000000 1.0
C      1  0.5761100000000  0.4659110000000  0.4140320000000 1.0
C      1  0.3827970000000  0.6057850000000  0.6390140000000 1.0
C      1  0.4666890000000  0.4838260000000  0.5805590000000 1.0
C      1  0.5314610000000  0.4916950000000  0.5745800000000 1.0
C      1  0.4514590000000  0.3703190000000  0.5010810000000 1.0
C      1  0.5935210000000  0.5250280000000  0.3887340000000 1.0
C      1  0.4800700000000  0.4864980000000  0.4004860000000 1.0
C      1  0.4116770000000  0.5567280000000  0.5269350000000 1.0
C      1  0.5358260000000  0.5703160000000  0.5863270000000 1.0
C      1  0.5719090000000  0.4097450000000  0.5271070000000 1.0
C      1  0.5432300000000  0.5870920000000  0.5351610000000 1.0
C      1  0.5935460000000  0.5351720000000  0.5385010000000 1.0
C      1  0.4676610000000  0.5131940000000  0.3954570000000 1.0
C      1  0.5232160000000  0.4195010000000  0.5421890000000 1.0
C      1  0.4535340000000  0.5209910000000  0.4575120000000 1.0
C      1  0.4633040000000  0.6044560000000  0.4541870000000 1.0
C      1  0.5953940000000  0.4313450000000  0.4917770000000 1.0
C      1  0.5145210000000  0.5283080000000  0.5221500000000 1.0
C      1  0.5794080000000  0.4368040000000  0.4673080000000 1.0
C      1  0.4029150000000  0.5898410000000  0.5926390000000 1.0
C      1  0.5836230000000  0.5272680000000  0.4914910000000 1.0
C      1  0.5074030000000  0.5686840000000  0.4701320000000 1.0
C      1  0.4168530000000  0.4865360000000  0.4661780000000 1.0
C      1  0.4136600000000  0.5647030000000  0.4989860000000 1.0
C      1  0.5489440000000  0.5170680000000  0.4079440000000 1.0
C      1  0.5516910000000  0.4796320000000  0.4562480000000 1.0
C      1  0.5070620000000  0.4682770000000  0.4507630000000 1.0
C      1  0.5127550000000  0.4501770000000  0.4286170000000 1.0
C      1  0.4507190000000  0.4486700000000  0.4348320000000 1.0
C      1  0.4380280000000  0.5775120000000  0.4898670000000 1.0
C      1  0.5697650000000  0.5763250000000  0.5382410000000 1.0
C      1  0.4254680000000  0.5728070000000  0.5463390000000 1.0
C      1  0.5331330000000  0.5818970000000  0.5080650000000 1.0
C      1  0.4497360000000  0.4615710000000  0.5788830000000 1.0
C      1  0.4790270000000  0.4517440000000  0.5087520000000 1.0
C      1  0.5924990000000  0.4958980000000  0.4521030000000 1.0
C      1  0.4570620000000  0.4703260000000  0.4146940000000 1.0
C      1  0.4784700000000  0.3876840000000  0.4550480000000 1.0
C      1  0.5074490000000  0.5372990000000  0.3967620000000 1.0
C      1  0.5263540000000  0.4712000000000  0.5537650000000 1.0
C      1  0.5305940000000  0.5515690000000  0.4365870000000 1.0
C      1  0.5710420000000  0.4101180000000  0.4583980000000 1.0
C      1  0.3729060000000  0.6136260000000  0.6618240000000 1.0
C      1  0.4104100000000  0.5049310000000  0.5399500000000 1.0
C      1  0.3928540000000  0.5978120000000  0.6158210000000 1.0
C      1  0.4845290000000  0.5404250000000  0.6080770000000 1.0
C      1  0.4924950000000  0.4761110000000  0.5166920000000 1.0
C      1  0.4225950000000  0.4683530000000  0.5744270000000 1.0
C      1  0.4758310000000  0.5759960000000  0.5564870000000 1.0
C      1  0.5063920000000  0.5830110000000  0.4960540000000 1.0
C      1  0.4818040000000  0.5977610000000  0.5724370000000 1.0
C      1  0.5151340000000  0.3960290000000  0.4818600000000 1.0
C      1  0.5548790000000  0.4388050000000  0.5746080000000 1.0
C      1  0.4474080000000  0.5807360000000  0.4615440000000 1.0
C      1  0.5046390000000  0.4014960000000  0.4543620000000 1.0
C      1  0.4739120000000  0.4261550000000  0.5506630000000 1.0
C      1  0.6014710000000  0.5317210000000  0.5129270000000 1.0
C      1  0.5845500000000  0.4042210000000  0.5010700000000 1.0
C      1  0.4620950000000  0.4364760000000  0.5740230000000 1.0
C      1  0.4824240000000  0.5989650000000  0.4346800000000 1.0
C      1  0.5481350000000  0.5642440000000  0.4874560000000 1.0
C      1  0.4760590000000  0.4993790000000  0.5127040000000 1.0
C      1  0.4636340000000  0.4381770000000  0.5272530000000 1.0
C      1  0.5768740000000  0.5118500000000  0.4058090000000 1.0
C      1  0.5341930000000  0.5652160000000  0.4612460000000 1.0
C      1  0.5678370000000  0.4849150000000  0.4989020000000 1.0
C      1  0.6007420000000  0.4442450000000  0.5172200000000 1.0
C      1  0.5845870000000  0.5007380000000  0.4798750000000 1.0
C      1  0.5521280000000  0.4594830000000  0.4030470000000 1.0
C      1  0.4836850000000  0.5198520000000  0.4577810000000 1.0
C      1  0.4490520000000  0.4983570000000  0.5028320000000 1.0
C      1  0.5427880000000  0.4076040000000  0.5236860000000 1.0
C      1  0.4022730000000  0.5316350000000  0.5361410000000 1.0
C      1  0.4728100000000  0.5088920000000  0.5746250000000 1.0
C      1  0.4649410000000  0.4787820000000  0.4641870000000 1.0
C      1  0.5108320000000  0.4220280000000  0.4353040000000 1.0
C      1  0.5333750000000  0.5872590000000  0.5635380000000 1.0
C      1  0.5374830000000  0.5201590000000  0.5080780000000 1.0
C      1  0.4704290000000  0.3786520000000  0.4811830000000 1.0
C      1  0.5424650000000  0.4919390000000  0.5108670000000 1.0
C      1  0.4274350000000  0.4955500000000  0.5199200000000 1.0
C      1  0.4083430000000  0.4640910000000  0.4534150000000 1.0
C      1  0.4223120000000  0.4457420000000  0.4387850000000 1.0
C      1  0.5394820000000  0.3974740000000  0.4954530000000 1.0
C      1  0.4818420000000  0.5345830000000  0.5805070000000 1.0
C      1  0.4347010000000  0.4908110000000  0.4142400000000 1.0
C      1  0.5802580000000  0.4380420000000  0.5654520000000 1.0
C      1  0.5347510000000  0.4452630000000  0.4822790000000 1.0
C      1  0.5207290000000  0.4782570000000  0.5260630000000 1.0
C      1  0.5229730000000  0.5127530000000  0.3952010000000 1.0
C      1  0.5705650000000  0.5490820000000  0.5462770000000 1.0
C      1  0.4570710000000  0.5821380000000  0.5117170000000 1.0
C      1  0.4132280000000  0.5818210000000  0.5696010000000 1.0
C      1  0.4822540000000  0.5723680000000  0.5059930000000 1.0
C      1  0.5430710000000  0.5048430000000  0.4528870000000 1.0
C      1  0.4807410000000  0.5451650000000  0.4972140000000 1.0
C      1  0.5573440000000  0.4547620000000  0.4681210000000 1.0
C      1  0.4550970000000  0.5620510000000  0.4379200000000 1.0
C      1  0.5859980000000  0.4909410000000  0.4238560000000 1.0
C      1  0.5090220000000  0.4508600000000  0.4738710000000 1.0
C      1  0.4959330000000  0.4087860000000  0.5436940000000 1.0
C      1  0.4082450000000  0.4877180000000  0.5622050000000 1.0
C      1  0.4886330000000  0.5241870000000  0.5131870000000 1.0
C      1  0.5064910000000  0.5556010000000  0.4191590000000 1.0
C      1  0.4640900000000  0.4505580000000  0.4610850000000 1.0
C      1  0.5415910000000  0.5412300000000  0.5842070000000 1.0
C      1  0.5424750000000  0.5258900000000  0.4345580000000 1.0
END
