TITL C-3866674-3872-257 -83.9600310877518 125000 -1230.59414818149 0 0 200 (C1) n - 1
REM
REM in /home/nfs/bkarasulu/CARBON/AIRSS/Generating-Clusters/LCBOP/Only-C1/SD-CG/HFTN-CG/FIRE-CG
REM
REM
REM
REM
REM
REM ./C.cell (11c1c37f851c82e70ff6c80c92926a4b)
REM AIRSS Version 0.9.1 bugfix July 2018 build 013d7b7c2542+ Fri, 06 Jul 2018 19:26:36 +0100
REM compiler GCC version 9.2.1 20190827 (Red Hat 9.2.1-1)
REM options -cpp -mtune=generic -march=x86-64 -g -O0 -fpre-include=/usr/include/finclude/math-vector-fortran.h
REM seed 906147019 490373732 -508382042 514371460 2009651246 1274277583 1643862855 1692178260 1690289750 -1163497896 -1570805225 -186860386 -1921127837 1247751560 1737792659 -1608027267 -718797359 423586359 -100156397 168308866 1511674587 -735690068 -741531436 -1666308220 -1222428814 -511013895 1606713486 782493111 1376148936 296166465 -856556597 626878177 1843895065
REM
CELL 1.54180   50.00000   50.00000   50.00000   90.00000   90.00000   90.00000
LATT -1
SFAC C  
C      1  0.4173440000000  0.5022800000000  0.5256660000000 1.0
C      1  0.5471200000000  0.5620090000000  0.4321690000000 1.0
C      1  0.5670760000000  0.4890130000000  0.3909310000000 1.0
C      1  0.4677360000000  0.5823500000000  0.4955920000000 1.0
C      1  0.4952920000000  0.5500560000000  0.4107050000000 1.0
C      1  0.4736610000000  0.4541760000000  0.4990150000000 1.0
C      1  0.4751220000000  0.6086550000000  0.5019140000000 1.0
C      1  0.4930390000000  0.4774240000000  0.5558720000000 1.0
C      1  0.4859500000000  0.5403310000000  0.4632430000000 1.0
C      1  0.5056910000000  0.5247390000000  0.6005090000000 1.0
C      1  0.4873260000000  0.4515120000000  0.6167780000000 1.0
C      1  0.4699620000000  0.4780460000000  0.3885830000000 1.0
C      1  0.4843940000000  0.4861980000000  0.4113990000000 1.0
C      1  0.5436260000000  0.3705610000000  0.5034280000000 1.0
C      1  0.5693590000000  0.4692640000000  0.6263850000000 1.0
C      1  0.4183090000000  0.4954780000000  0.4223190000000 1.0
C      1  0.5234770000000  0.5125150000000  0.5782390000000 1.0
C      1  0.5001750000000  0.4723000000000  0.6283170000000 1.0
C      1  0.5676490000000  0.4042570000000  0.5324550000000 1.0
C      1  0.4023500000000  0.5503860000000  0.5502840000000 1.0
C      1  0.5775160000000  0.5939060000000  0.4802590000000 1.0
C      1  0.5290610000000  0.5123800000000  0.4278320000000 1.0
C      1  0.4538100000000  0.4138340000000  0.4703940000000 1.0
C      1  0.6543850000000  0.5020870000000  0.5494820000000 1.0
C      1  0.5906240000000  0.4403820000000  0.4382120000000 1.0
C      1  0.4417330000000  0.4374150000000  0.6128750000000 1.0
C      1  0.5800230000000  0.5117880000000  0.5789250000000 1.0
C      1  0.4021680000000  0.4870970000000  0.4833830000000 1.0
C      1  0.5866630000000  0.4272070000000  0.4635420000000 1.0
C      1  0.4713060000000  0.5013920000000  0.4328110000000 1.0
C      1  0.4692300000000  0.6274850000000  0.4813500000000 1.0
C      1  0.4698460000000  0.3951970000000  0.4283940000000 1.0
C      1  0.4953920000000  0.3895220000000  0.4228700000000 1.0
C      1  0.4295370000000  0.6273290000000  0.5314940000000 1.0
C      1  0.5475410000000  0.5151480000000  0.4499730000000 1.0
C      1  0.5090210000000  0.3973180000000  0.5803860000000 1.0
C      1  0.5201300000000  0.4315030000000  0.4981510000000 1.0
C      1  0.4529410000000  0.4030250000000  0.5312190000000 1.0
C      1  0.4947320000000  0.4008160000000  0.5566170000000 1.0
C      1  0.6013810000000  0.4863160000000  0.4320410000000 1.0
C      1  0.4861670000000  0.5132910000000  0.4547810000000 1.0
C      1  0.4438670000000  0.4938160000000  0.4388920000000 1.0
C      1  0.4419660000000  0.4772780000000  0.5666440000000 1.0
C      1  0.6232320000000  0.4098750000000  0.4939010000000 1.0
C      1  0.5249020000000  0.4220380000000  0.5240890000000 1.0
C      1  0.3980880000000  0.5094940000000  0.4414910000000 1.0
C      1  0.3685580000000  0.4689930000000  0.4570970000000 1.0
C      1  0.4510820000000  0.5717810000000  0.4746550000000 1.0
C      1  0.4294750000000  0.5564230000000  0.4835560000000 1.0
C      1  0.4146300000000  0.4355690000000  0.5167470000000 1.0
C      1  0.4245070000000  0.4705290000000  0.4797100000000 1.0
C      1  0.4329490000000  0.5332040000000  0.5913370000000 1.0
C      1  0.3916780000000  0.4010060000000  0.4841500000000 1.0
C      1  0.5484150000000  0.4801160000000  0.5282960000000 1.0
C      1  0.4249810000000  0.4086470000000  0.5230300000000 1.0
C      1  0.5438300000000  0.5498990000000  0.4060230000000 1.0
C      1  0.4516280000000  0.4127610000000  0.4412370000000 1.0
C      1  0.5072110000000  0.4698580000000  0.4169690000000 1.0
C      1  0.5003140000000  0.6087330000000  0.5457760000000 1.0
C      1  0.5408090000000  0.5382850000000  0.6281220000000 1.0
C      1  0.4031510000000  0.5490780000000  0.4731840000000 1.0
C      1  0.5463600000000  0.6310130000000  0.5293130000000 1.0
C      1  0.4720360000000  0.6265400000000  0.4328890000000 1.0
C      1  0.4576090000000  0.4548370000000  0.3831760000000 1.0
C      1  0.4679000000000  0.4370990000000  0.5723930000000 1.0
C      1  0.6413060000000  0.5190070000000  0.5652880000000 1.0
C      1  0.4608400000000  0.5037140000000  0.5080710000000 1.0
C      1  0.5151350000000  0.4837640000000  0.5733790000000 1.0
C      1  0.5667390000000  0.6016050000000  0.5788740000000 1.0
C      1  0.5717140000000  0.4866600000000  0.4904670000000 1.0
C      1  0.5802020000000  0.5784340000000  0.5735560000000 1.0
C      1  0.6223830000000  0.5385810000000  0.5713170000000 1.0
C      1  0.5726210000000  0.4492550000000  0.4180830000000 1.0
C      1  0.5235080000000  0.4862930000000  0.5157880000000 1.0
C      1  0.5813490000000  0.4773360000000  0.4122520000000 1.0
C      1  0.4677160000000  0.4645390000000  0.5630100000000 1.0
C      1  0.6931420000000  0.4792390000000  0.5319050000000 1.0
C      1  0.4664600000000  0.5589590000000  0.4547860000000 1.0
C      1  0.5196160000000  0.3947510000000  0.4363930000000 1.0
C      1  0.5286520000000  0.4606640000000  0.3999670000000 1.0
C      1  0.4580580000000  0.3892130000000  0.4837820000000 1.0
C      1  0.5925900000000  0.4950210000000  0.5370880000000 1.0
C      1  0.5209570000000  0.5291180000000  0.5536740000000 1.0
C      1  0.5925740000000  0.5770640000000  0.5229150000000 1.0
C      1  0.5426310000000  0.4794160000000  0.3837440000000 1.0
C      1  0.3694650000000  0.4491010000000  0.5326170000000 1.0
C      1  0.6126720000000  0.4284260000000  0.4771590000000 1.0
C      1  0.5471550000000  0.4805120000000  0.6363270000000 1.0
C      1  0.4973200000000  0.5916880000000  0.5681410000000 1.0
C      1  0.4031210000000  0.5892030000000  0.5200880000000 1.0
C      1  0.4953970000000  0.5712340000000  0.5853610000000 1.0
C      1  0.4949870000000  0.5351770000000  0.5461650000000 1.0
C      1  0.4978410000000  0.3853660000000  0.5106360000000 1.0
C      1  0.5356080000000  0.4377490000000  0.5913270000000 1.0
C      1  0.4803420000000  0.5517050000000  0.5318530000000 1.0
C      1  0.5271890000000  0.4124870000000  0.5929020000000 1.0
C      1  0.4070490000000  0.4678830000000  0.4143260000000 1.0
C      1  0.5016840000000  0.4969560000000  0.4716340000000 1.0
C      1  0.4868960000000  0.5460200000000  0.5954270000000 1.0
C      1  0.5500180000000  0.4976510000000  0.4739490000000 1.0
C      1  0.5196280000000  0.5331820000000  0.4095360000000 1.0
C      1  0.4231860000000  0.6286800000000  0.5025820000000 1.0
C      1  0.4428670000000  0.6378550000000  0.4843180000000 1.0
C      1  0.5093880000000  0.4596080000000  0.4430210000000 1.0
C      1  0.5564450000000  0.5420950000000  0.6045060000000 1.0
C      1  0.5516030000000  0.4276060000000  0.5322040000000 1.0
C      1  0.4393480000000  0.5393210000000  0.4079080000000 1.0
C      1  0.4135430000000  0.6055740000000  0.5416010000000 1.0
C      1  0.5627580000000  0.3810750000000  0.5192830000000 1.0
C      1  0.4474970000000  0.4345130000000  0.3973420000000 1.0
C      1  0.4784230000000  0.6165430000000  0.5293400000000 1.0
C      1  0.5538780000000  0.5433950000000  0.4534270000000 1.0
C      1  0.4984280000000  0.4819290000000  0.5282360000000 1.0
C      1  0.5924580000000  0.5744760000000  0.4945790000000 1.0
C      1  0.5645740000000  0.4369150000000  0.4782490000000 1.0
C      1  0.6664900000000  0.4872280000000  0.5290310000000 1.0
C      1  0.5792030000000  0.5560210000000  0.5917950000000 1.0
C      1  0.4308750000000  0.5467190000000  0.5111160000000 1.0
C      1  0.6108730000000  0.4618010000000  0.4444900000000 1.0
C      1  0.3749240000000  0.4674660000000  0.3705820000000 1.0
C      1  0.5710920000000  0.4572890000000  0.4964610000000 1.0
C      1  0.4431420000000  0.6153740000000  0.3904980000000 1.0
C      1  0.4541770000000  0.4359950000000  0.4892900000000 1.0
C      1  0.5365300000000  0.4339970000000  0.4757890000000 1.0
C      1  0.4763740000000  0.4799500000000  0.5107060000000 1.0
C      1  0.5087040000000  0.4007170000000  0.5322780000000 1.0
C      1  0.4851410000000  0.6270280000000  0.4576340000000 1.0
C      1  0.5425990000000  0.5405100000000  0.5415220000000 1.0
C      1  0.5265760000000  0.5824760000000  0.4366400000000 1.0
C      1  0.5210590000000  0.4912810000000  0.6330780000000 1.0
C      1  0.5138420000000  0.6271900000000  0.4579920000000 1.0
C      1  0.4590450000000  0.5420490000000  0.5968040000000 1.0
C      1  0.3862580000000  0.5469470000000  0.4983770000000 1.0
C      1  0.6033900000000  0.5521920000000  0.4800960000000 1.0
C      1  0.6226400000000  0.5631720000000  0.5574380000000 1.0
C      1  0.3956570000000  0.4999920000000  0.5075540000000 1.0
C      1  0.7179660000000  0.4717360000000  0.5344940000000 1.0
C      1  0.4262510000000  0.5075490000000  0.6005920000000 1.0
C      1  0.4690490000000  0.3882810000000  0.5098910000000 1.0
C      1  0.5185550000000  0.3771820000000  0.4911190000000 1.0
C      1  0.3859900000000  0.4911570000000  0.4603270000000 1.0
C      1  0.5980710000000  0.5758000000000  0.5506180000000 1.0
C      1  0.5597220000000  0.4532480000000  0.5236680000000 1.0
C      1  0.5259400000000  0.6516910000000  0.4617410000000 1.0
C      1  0.4363020000000  0.4288520000000  0.4227160000000 1.0
C      1  0.6067940000000  0.5319330000000  0.4623660000000 1.0
C      1  0.4153610000000  0.5456530000000  0.5732170000000 1.0
C      1  0.4249020000000  0.4846690000000  0.5457620000000 1.0
C      1  0.5188240000000  0.5193900000000  0.6259710000000 1.0
C      1  0.5714440000000  0.4964890000000  0.5185040000000 1.0
C      1  0.3860670000000  0.4385040000000  0.5138980000000 1.0
C      1  0.4678200000000  0.4368700000000  0.6017100000000 1.0
C      1  0.3767880000000  0.5210960000000  0.5054070000000 1.0
C      1  0.3970890000000  0.4019500000000  0.4557230000000 1.0
C      1  0.5498940000000  0.5516260000000  0.4798000000000 1.0
C      1  0.3902630000000  0.4676450000000  0.3916430000000 1.0
C      1  0.3776720000000  0.4272800000000  0.4888990000000 1.0
C      1  0.6053510000000  0.5114950000000  0.4445840000000 1.0
C      1  0.4292440000000  0.4480890000000  0.4960380000000 1.0
C      1  0.4275960000000  0.5140370000000  0.4000280000000 1.0
C      1  0.5459520000000  0.4392940000000  0.4117100000000 1.0
C      1  0.4306260000000  0.4811190000000  0.5928350000000 1.0
C      1  0.4831860000000  0.5618120000000  0.5064970000000 1.0
C      1  0.4084340000000  0.3915400000000  0.5056300000000 1.0
C      1  0.4560910000000  0.6302480000000  0.5399580000000 1.0
C      1  0.6416400000000  0.4686270000000  0.4844200000000 1.0
C      1  0.4384530000000  0.5192990000000  0.5160100000000 1.0
C      1  0.4040800000000  0.6072760000000  0.4969510000000 1.0
C      1  0.5857850000000  0.4623060000000  0.6063320000000 1.0
C      1  0.5587930000000  0.5532320000000  0.3837130000000 1.0
C      1  0.5311030000000  0.6044190000000  0.4543030000000 1.0
C      1  0.5023130000000  0.5756660000000  0.4228560000000 1.0
C      1  0.4688110000000  0.4135810000000  0.5548070000000 1.0
C      1  0.4211650000000  0.5506060000000  0.4273330000000 1.0
C      1  0.5202830000000  0.3831420000000  0.4630090000000 1.0
C      1  0.5324390000000  0.4203240000000  0.4303120000000 1.0
C      1  0.3928310000000  0.4283330000000  0.4442040000000 1.0
C      1  0.3881710000000  0.6061740000000  0.4749080000000 1.0
C      1  0.5308570000000  0.4625630000000  0.5829570000000 1.0
C      1  0.4114450000000  0.4421550000000  0.4277510000000 1.0
C      1  0.4038060000000  0.5377830000000  0.4468120000000 1.0
C      1  0.6248860000000  0.4534700000000  0.4682410000000 1.0
C      1  0.6525210000000  0.4801650000000  0.5057600000000 1.0
C      1  0.4674500000000  0.5450830000000  0.4046930000000 1.0
C      1  0.5256330000000  0.6185510000000  0.5390380000000 1.0
C      1  0.4041380000000  0.5590630000000  0.5217320000000 1.0
C      1  0.5244460000000  0.4933420000000  0.4875080000000 1.0
C      1  0.5557650000000  0.6040870000000  0.4684780000000 1.0
C      1  0.4575230000000  0.6221240000000  0.4111660000000 1.0
C      1  0.4643110000000  0.4567980000000  0.4530760000000 1.0
C      1  0.4255730000000  0.4587300000000  0.6090760000000 1.0
C      1  0.5265700000000  0.5504780000000  0.4922800000000 1.0
C      1  0.5244500000000  0.4380990000000  0.4515050000000 1.0
C      1  0.4433630000000  0.4737160000000  0.4584910000000 1.0
C      1  0.4994150000000  0.5485750000000  0.4875160000000 1.0
C      1  0.3753120000000  0.4421460000000  0.4633740000000 1.0
C      1  0.5903620000000  0.4899900000000  0.5648290000000 1.0
C      1  0.5939260000000  0.4673040000000  0.5810890000000 1.0
C      1  0.5975270000000  0.5340080000000  0.5841270000000 1.0
C      1  0.5530130000000  0.5177360000000  0.5869720000000 1.0
END
