TITL C-3866676-3738-176 6.87770052926066e-07 125000 -463.532109762668 0 0 77 (C1) n - 1
REM
REM in /home/nfs/bkarasulu/CARBON/AIRSS/Generating-Clusters/LCBOP/Only-C1/SD-CG/HFTN-CG/FIRE-CG
REM
REM
REM
REM
REM
REM ./C.cell (11c1c37f851c82e70ff6c80c92926a4b)
REM AIRSS Version 0.9.1 bugfix July 2018 build 013d7b7c2542+ Fri, 06 Jul 2018 19:26:36 +0100
REM compiler GCC version 9.2.1 20190827 (Red Hat 9.2.1-1)
REM options -cpp -mtune=generic -march=x86-64 -g -O0 -fpre-include=/usr/include/finclude/math-vector-fortran.h
REM seed 987900089 834167021 -11807476 183246741 1649117748 756362086 1264634518 1301127755 -391626364 -1467271852 1141433494 1571010309 25668272 560015414 -934912423 -306580023 -1057822554 -525382935 1310944121 -1526030951 19523597 713819938 1332317285 697337858 963727383 334240048 -1446178737 -2004282446 -691406850 563680589 1312558007 1243069077 661224698
REM
CELL 1.54180   50.00000   50.00000   50.00000   90.00000   90.00000   90.00000
LATT -1
SFAC C  
C      1  0.4799040000000  0.4246950000000  0.5171550000000 1.0
C      1  0.5617950000000  0.4566850000000  0.4471120000000 1.0
C      1  0.4951270000000  0.5228920000000  0.5731440000000 1.0
C      1  0.5748720000000  0.5320990000000  0.5328110000000 1.0
C      1  0.4400210000000  0.4284410000000  0.4371000000000 1.0
C      1  0.5034200000000  0.5186740000000  0.5987930000000 1.0
C      1  0.4383720000000  0.5933850000000  0.4853490000000 1.0
C      1  0.4633980000000  0.5028800000000  0.4511180000000 1.0
C      1  0.5530770000000  0.5384730000000  0.5493680000000 1.0
C      1  0.5188430000000  0.5147140000000  0.4197130000000 1.0
C      1  0.5222610000000  0.4691580000000  0.5594740000000 1.0
C      1  0.5412870000000  0.4994070000000  0.4300650000000 1.0
C      1  0.5745150000000  0.4858610000000  0.5103270000000 1.0
C      1  0.4345100000000  0.5678920000000  0.4782180000000 1.0
C      1  0.5553670000000  0.5871290000000  0.5544240000000 1.0
C      1  0.4351040000000  0.5048050000000  0.4149730000000 1.0
C      1  0.5794840000000  0.5143280000000  0.5113650000000 1.0
C      1  0.4617780000000  0.4798010000000  0.5962290000000 1.0
C      1  0.5433750000000  0.4881460000000  0.5604570000000 1.0
C      1  0.4485230000000  0.5436530000000  0.4765410000000 1.0
C      1  0.5518190000000  0.4405680000000  0.4903850000000 1.0
C      1  0.5201460000000  0.4493210000000  0.6055900000000 1.0
C      1  0.4494330000000  0.5186100000000  0.5670720000000 1.0
C      1  0.4763190000000  0.4680200000000  0.5514510000000 1.0
C      1  0.4712680000000  0.5377640000000  0.5668800000000 1.0
C      1  0.4459030000000  0.5261750000000  0.4548420000000 1.0
C      1  0.4800680000000  0.4654120000000  0.5801970000000 1.0
C      1  0.4844100000000  0.6043420000000  0.5007420000000 1.0
C      1  0.4488670000000  0.4422270000000  0.4143830000000 1.0
C      1  0.4943590000000  0.4596120000000  0.4170610000000 1.0
C      1  0.5034860000000  0.5857270000000  0.5011450000000 1.0
C      1  0.5380920000000  0.5154690000000  0.5555850000000 1.0
C      1  0.5346000000000  0.5402210000000  0.4554010000000 1.0
C      1  0.5017710000000  0.4722760000000  0.5382790000000 1.0
C      1  0.4667130000000  0.4641080000000  0.4181710000000 1.0
C      1  0.4688110000000  0.5388210000000  0.4954980000000 1.0
C      1  0.4830050000000  0.4955790000000  0.4692050000000 1.0
C      1  0.4104780000000  0.4521440000000  0.5277280000000 1.0
C      1  0.5315510000000  0.4300940000000  0.5074480000000 1.0
C      1  0.5345530000000  0.5570190000000  0.4779500000000 1.0
C      1  0.4832670000000  0.5629850000000  0.5586240000000 1.0
C      1  0.5103750000000  0.5682670000000  0.5554640000000 1.0
C      1  0.5704170000000  0.6084010000000  0.5541580000000 1.0
C      1  0.4954500000000  0.5381170000000  0.5049200000000 1.0
C      1  0.4950190000000  0.4808600000000  0.4893670000000 1.0
C      1  0.5392690000000  0.5641450000000  0.5531120000000 1.0
C      1  0.5034770000000  0.4329980000000  0.5037830000000 1.0
C      1  0.5795150000000  0.5161370000000  0.4608720000000 1.0
C      1  0.5426380000000  0.4712250000000  0.4306300000000 1.0
C      1  0.4406530000000  0.4350540000000  0.3893240000000 1.0
C      1  0.5241780000000  0.4311420000000  0.4455020000000 1.0
C      1  0.4435040000000  0.5020160000000  0.5441760000000 1.0
C      1  0.4371840000000  0.4218340000000  0.4626440000000 1.0
C      1  0.5192040000000  0.4536500000000  0.4278440000000 1.0
C      1  0.4518290000000  0.4749170000000  0.5392900000000 1.0
C      1  0.5804830000000  0.4683260000000  0.4649680000000 1.0
C      1  0.5930210000000  0.4917670000000  0.4563890000000 1.0
C      1  0.4383980000000  0.4534380000000  0.5263570000000 1.0
C      1  0.5109120000000  0.5197260000000  0.5501870000000 1.0
C      1  0.4564550000000  0.4889100000000  0.4263080000000 1.0
C      1  0.4409920000000  0.4226510000000  0.4889070000000 1.0
C      1  0.5122160000000  0.5594350000000  0.4955660000000 1.0
C      1  0.5146670000000  0.5376330000000  0.4346260000000 1.0
C      1  0.5474950000000  0.4351020000000  0.4617920000000 1.0
C      1  0.4288880000000  0.5260970000000  0.4315390000000 1.0
C      1  0.4977750000000  0.4534660000000  0.4851530000000 1.0
C      1  0.5084610000000  0.4604650000000  0.5837430000000 1.0
C      1  0.5559300000000  0.5738280000000  0.4820270000000 1.0
C      1  0.4481040000000  0.5028930000000  0.5912830000000 1.0
C      1  0.5538300000000  0.5186650000000  0.4492470000000 1.0
C      1  0.4527180000000  0.4325210000000  0.5125290000000 1.0
C      1  0.5029130000000  0.5172540000000  0.5228380000000 1.0
C      1  0.5845460000000  0.5266120000000  0.4863870000000 1.0
C      1  0.5710520000000  0.4635880000000  0.4926760000000 1.0
C      1  0.3844640000000  0.4512290000000  0.5289700000000 1.0
C      1  0.4586720000000  0.6081820000000  0.4946120000000 1.0
C      1  0.5013390000000  0.4898380000000  0.5154410000000 1.0
END
