TITL C-3866673-4222-649 -0.00293471883063213 125000 -719.415555838755 0 0 119 (C1) n - 1
REM
REM in /home/nfs/bkarasulu/CARBON/AIRSS/Generating-Clusters/LCBOP/Only-C1/SD-CG/FIRE-CG
REM
REM
REM
REM
REM
REM ./C.cell (11c1c37f851c82e70ff6c80c92926a4b)
REM AIRSS Version 0.9.1 bugfix July 2018 build 013d7b7c2542+ Fri, 06 Jul 2018 19:26:36 +0100
REM compiler GCC version 9.2.1 20190827 (Red Hat 9.2.1-1)
REM options -cpp -mtune=generic -march=x86-64 -g -O0 -fpre-include=/usr/include/finclude/math-vector-fortran.h
REM seed -622363991 -1755039126 1702145002 -730548513 1212979607 -308916697 -1840897298 -1512595964 -513418960 1913197006 -146899557 -1883463966 562752805 2022075619 1054356799 -997389176 1408911064 342427452 959430400 912966061 1069990458 942812743 -752981066 1076394505 -2104056018 -857759733 -2113456522 -1437705722 645818024 947135762 -1206129643 -1967921961 959257944
REM
CELL 1.54180   50.00000   50.00000   50.00000   90.00000   90.00000   90.00000
LATT -1
SFAC C  
C      1  0.5046890000000  0.4724030000000  0.4604760000000 1.0
C      1  0.5312220000000  0.5118470000000  0.4507820000000 1.0
C      1  0.5016300000000  0.5714750000000  0.5341740000000 1.0
C      1  0.4277590000000  0.4536420000000  0.4360540000000 1.0
C      1  0.5277190000000  0.4559480000000  0.5921760000000 1.0
C      1  0.6072930000000  0.4904830000000  0.4778390000000 1.0
C      1  0.4609140000000  0.5344870000000  0.3824620000000 1.0
C      1  0.5523980000000  0.5279240000000  0.4410930000000 1.0
C      1  0.4583730000000  0.4202980000000  0.5707650000000 1.0
C      1  0.4856130000000  0.5160770000000  0.5409290000000 1.0
C      1  0.5888520000000  0.4089040000000  0.5690460000000 1.0
C      1  0.4544220000000  0.4117320000000  0.4455620000000 1.0
C      1  0.4211820000000  0.4942440000000  0.5597100000000 1.0
C      1  0.4135100000000  0.4710790000000  0.4542490000000 1.0
C      1  0.3859180000000  0.5199840000000  0.4260870000000 1.0
C      1  0.4416760000000  0.4934810000000  0.5794160000000 1.0
C      1  0.4240160000000  0.5808680000000  0.4733170000000 1.0
C      1  0.5997460000000  0.4044640000000  0.5923000000000 1.0
C      1  0.5093280000000  0.4544250000000  0.4826090000000 1.0
C      1  0.4953510000000  0.5675800000000  0.4344480000000 1.0
C      1  0.5279560000000  0.5444740000000  0.4861460000000 1.0
C      1  0.4102850000000  0.4984190000000  0.5353500000000 1.0
C      1  0.5492940000000  0.4056810000000  0.5407990000000 1.0
C      1  0.4786660000000  0.4087270000000  0.5574810000000 1.0
C      1  0.5323060000000  0.4335500000000  0.5781540000000 1.0
C      1  0.4867320000000  0.5162890000000  0.4688550000000 1.0
C      1  0.5502560000000  0.4733140000000  0.5316640000000 1.0
C      1  0.5480780000000  0.5391990000000  0.5050130000000 1.0
C      1  0.6031070000000  0.4457160000000  0.5089570000000 1.0
C      1  0.5146450000000  0.5239320000000  0.4707590000000 1.0
C      1  0.4075200000000  0.4946360000000  0.5072580000000 1.0
C      1  0.5785180000000  0.4668790000000  0.4477030000000 1.0
C      1  0.4608820000000  0.5105970000000  0.5298390000000 1.0
C      1  0.4729820000000  0.6096380000000  0.5153870000000 1.0
C      1  0.5720790000000  0.4397790000000  0.4517220000000 1.0
C      1  0.5065120000000  0.4041440000000  0.4469640000000 1.0
C      1  0.5763260000000  0.4143990000000  0.5446180000000 1.0
C      1  0.4920430000000  0.5744930000000  0.5616650000000 1.0
C      1  0.5656940000000  0.5373730000000  0.5249850000000 1.0
C      1  0.5090080000000  0.5277420000000  0.5436720000000 1.0
C      1  0.4113950000000  0.5156560000000  0.4352470000000 1.0
C      1  0.4199690000000  0.5709320000000  0.5504930000000 1.0
C      1  0.4420710000000  0.5275480000000  0.4904760000000 1.0
C      1  0.4692220000000  0.5602000000000  0.5731720000000 1.0
C      1  0.5309110000000  0.4127230000000  0.4534720000000 1.0
C      1  0.4781060000000  0.5598300000000  0.4854680000000 1.0
C      1  0.5225450000000  0.5862520000000  0.5216180000000 1.0
C      1  0.5203360000000  0.5060040000000  0.5938630000000 1.0
C      1  0.5019640000000  0.4661810000000  0.5431660000000 1.0
C      1  0.4440760000000  0.5523900000000  0.4320410000000 1.0
C      1  0.6074190000000  0.4011750000000  0.4368260000000 1.0
C      1  0.6082460000000  0.4668420000000  0.4934510000000 1.0
C      1  0.4321930000000  0.4279310000000  0.4493810000000 1.0
C      1  0.4884560000000  0.4492810000000  0.5024040000000 1.0
C      1  0.4036160000000  0.4548870000000  0.4767210000000 1.0
C      1  0.5445970000000  0.5547800000000  0.4330080000000 1.0
C      1  0.6073890000000  0.5339390000000  0.5488100000000 1.0
C      1  0.5423560000000  0.5152950000000  0.5764740000000 1.0
C      1  0.5217990000000  0.5681520000000  0.4459480000000 1.0
C      1  0.6246170000000  0.3825820000000  0.4306510000000 1.0
C      1  0.4105100000000  0.5771940000000  0.4982970000000 1.0
C      1  0.4731000000000  0.5579010000000  0.3925830000000 1.0
C      1  0.4990670000000  0.5257890000000  0.5976980000000 1.0
C      1  0.4498130000000  0.4438980000000  0.5800610000000 1.0
C      1  0.3965180000000  0.4695780000000  0.4992960000000 1.0
C      1  0.4573080000000  0.4837480000000  0.5210530000000 1.0
C      1  0.6325870000000  0.5265890000000  0.5060710000000 1.0
C      1  0.4645820000000  0.4656430000000  0.5005430000000 1.0
C      1  0.5010280000000  0.4192400000000  0.5439200000000 1.0
C      1  0.4144350000000  0.4286650000000  0.4722680000000 1.0
C      1  0.4475330000000  0.5967010000000  0.4725840000000 1.0
C      1  0.4735790000000  0.5869660000000  0.4763130000000 1.0
C      1  0.4600950000000  0.4754600000000  0.4745840000000 1.0
C      1  0.5254810000000  0.4847620000000  0.4459390000000 1.0
C      1  0.5442730000000  0.3851630000000  0.5232950000000 1.0
C      1  0.4467850000000  0.5335600000000  0.5187550000000 1.0
C      1  0.5294910000000  0.5342100000000  0.5593680000000 1.0
C      1  0.5051550000000  0.5924700000000  0.5779700000000 1.0
C      1  0.5584060000000  0.5677740000000  0.4131590000000 1.0
C      1  0.4519490000000  0.5178570000000  0.5893970000000 1.0
C      1  0.5799870000000  0.5282420000000  0.5478280000000 1.0
C      1  0.4833720000000  0.4741610000000  0.5967370000000 1.0
C      1  0.5909930000000  0.4277960000000  0.5246360000000 1.0
C      1  0.5515070000000  0.4591020000000  0.5074020000000 1.0
C      1  0.5899860000000  0.4200530000000  0.4432710000000 1.0
C      1  0.5888530000000  0.4918610000000  0.4559740000000 1.0
C      1  0.4545270000000  0.5911160000000  0.5257060000000 1.0
C      1  0.4091560000000  0.5742280000000  0.5254680000000 1.0
C      1  0.4957060000000  0.4427880000000  0.5289300000000 1.0
C      1  0.5245420000000  0.5713310000000  0.4749230000000 1.0
C      1  0.4905250000000  0.6042190000000  0.4920590000000 1.0
C      1  0.4430910000000  0.5198210000000  0.3965000000000 1.0
C      1  0.4154000000000  0.4992910000000  0.4580810000000 1.0
C      1  0.6234880000000  0.5118780000000  0.4857760000000 1.0
C      1  0.4564900000000  0.5612340000000  0.5242060000000 1.0
C      1  0.4705800000000  0.5609990000000  0.4213460000000 1.0
C      1  0.5690840000000  0.4820940000000  0.5507220000000 1.0
C      1  0.4856530000000  0.5762260000000  0.3767720000000 1.0
C      1  0.4416000000000  0.5673610000000  0.5670300000000 1.0
C      1  0.5672700000000  0.5074810000000  0.5635900000000 1.0
C      1  0.5276890000000  0.4177350000000  0.5550700000000 1.0
C      1  0.4669170000000  0.5349090000000  0.4766050000000 1.0
C      1  0.4737420000000  0.5359740000000  0.5886620000000 1.0
C      1  0.5778220000000  0.5158990000000  0.4453080000000 1.0
C      1  0.4258160000000  0.5653290000000  0.4496710000000 1.0
C      1  0.4814630000000  0.4889330000000  0.4627790000000 1.0
C      1  0.4349530000000  0.4588970000000  0.4098460000000 1.0
C      1  0.4419090000000  0.4589900000000  0.3847280000000 1.0
C      1  0.4572290000000  0.4702810000000  0.5862090000000 1.0
C      1  0.4333450000000  0.5274950000000  0.4217700000000 1.0
C      1  0.5369520000000  0.4473420000000  0.4862850000000 1.0
C      1  0.5242080000000  0.4800610000000  0.5392870000000 1.0
C      1  0.5115010000000  0.4786630000000  0.5961980000000 1.0
C      1  0.4204960000000  0.5093840000000  0.4850100000000 1.0
C      1  0.4799690000000  0.4042800000000  0.4446830000000 1.0
C      1  0.4838620000000  0.5595580000000  0.5145730000000 1.0
C      1  0.5173020000000  0.5926910000000  0.4940470000000 1.0
C      1  0.5479790000000  0.4321110000000  0.4647760000000 1.0
C      1  0.6275520000000  0.5341130000000  0.5312030000000 1.0
END
