TITL C-3866675-3766-484 -3349.10069218804 125000 -939.818085318829 0 0 158 (C1) n - 1
REM
REM in /home/nfs/bkarasulu/CARBON/AIRSS/Generating-Clusters/LCBOP/Only-C1/SD-CG/FIRE-CG
REM
REM
REM
REM
REM
REM ./C.cell (11c1c37f851c82e70ff6c80c92926a4b)
REM AIRSS Version 0.9.1 bugfix July 2018 build 013d7b7c2542+ Fri, 06 Jul 2018 19:26:36 +0100
REM compiler GCC version 9.2.1 20190827 (Red Hat 9.2.1-1)
REM options -cpp -mtune=generic -march=x86-64 -g -O0 -fpre-include=/usr/include/finclude/math-vector-fortran.h
REM seed -828050179 1918617238 1853606033 -1065912305 -445138578 -270497623 1941825545 -1633567124 1512860212 -1164854177 -329890524 -1341959361 -1315430717 75154301 -474262861 1219438095 -598836205 -1343860147 822277773 -1726274594 2034680614 1388796123 -713197574 -423257795 1564101720 1105389209 483092394 2134739931 -214664471 838994921 -1902251186 1920714373 285663447
REM
CELL 1.54180   50.00000   50.00000   50.00000   90.00000   90.00000   90.00000
LATT -1
SFAC C  
C      1  0.5264570000000  0.4063090000000  0.4298770000000 1.0
C      1  0.4530630000000  0.4522260000000  0.5298790000000 1.0
C      1  0.5683430000000  0.5666670000000  0.5952900000000 1.0
C      1  0.5641130000000  0.4066740000000  0.5314860000000 1.0
C      1  0.5124110000000  0.6007900000000  0.4066090000000 1.0
C      1  0.5774310000000  0.5097690000000  0.4877430000000 1.0
C      1  0.4126770000000  0.4871320000000  0.4590720000000 1.0
C      1  0.4990780000000  0.5515750000000  0.4769320000000 1.0
C      1  0.5449890000000  0.5411510000000  0.4904250000000 1.0
C      1  0.5646530000000  0.5004900000000  0.5144520000000 1.0
C      1  0.4550040000000  0.5663230000000  0.4249310000000 1.0
C      1  0.5262770000000  0.6089330000000  0.4963100000000 1.0
C      1  0.4834220000000  0.6007320000000  0.4663870000000 1.0
C      1  0.5197120000000  0.4036170000000  0.5532480000000 1.0
C      1  0.4344620000000  0.5754720000000  0.4731650000000 1.0
C      1  0.4198540000000  0.5373270000000  0.6109500000000 1.0
C      1  0.5040430000000  0.5739080000000  0.4063810000000 1.0
C      1  0.5512170000000  0.4196350000000  0.4261710000000 1.0
C      1  0.5118270000000  0.4104750000000  0.4549050000000 1.0
C      1  0.5631580000000  0.4998390000000  0.4654430000000 1.0
C      1  0.5094110000000  0.5266660000000  0.6016710000000 1.0
C      1  0.5450010000000  0.5924320000000  0.4586870000000 1.0
C      1  0.5614760000000  0.4710840000000  0.5083890000000 1.0
C      1  0.4015890000000  0.4909820000000  0.5621320000000 1.0
C      1  0.4958100000000  0.4749700000000  0.5609090000000 1.0
C      1  0.4962740000000  0.5195310000000  0.5381920000000 1.0
C      1  0.5669880000000  0.4580090000000  0.5745650000000 1.0
C      1  0.4702050000000  0.6108020000000  0.4901120000000 1.0
C      1  0.4553560000000  0.4221990000000  0.5844660000000 1.0
C      1  0.5119780000000  0.5582170000000  0.5598610000000 1.0
C      1  0.5476940000000  0.5224600000000  0.5388010000000 1.0
C      1  0.5322250000000  0.4898670000000  0.4187690000000 1.0
C      1  0.5295400000000  0.5810010000000  0.5017030000000 1.0
C      1  0.4309040000000  0.5029400000000  0.5266380000000 1.0
C      1  0.5296580000000  0.5195800000000  0.4984530000000 1.0
C      1  0.4009710000000  0.4375500000000  0.4998360000000 1.0
C      1  0.4929600000000  0.4101220000000  0.5441050000000 1.0
C      1  0.5217320000000  0.6089630000000  0.5437250000000 1.0
C      1  0.4096440000000  0.4511250000000  0.5260710000000 1.0
C      1  0.5091110000000  0.4761460000000  0.5104440000000 1.0
C      1  0.5273570000000  0.4005680000000  0.4790740000000 1.0
C      1  0.6411370000000  0.5624650000000  0.4430490000000 1.0
C      1  0.4664520000000  0.5762370000000  0.5622500000000 1.0
C      1  0.6038370000000  0.4731710000000  0.5397800000000 1.0
C      1  0.4880500000000  0.4280770000000  0.4511000000000 1.0
C      1  0.5252460000000  0.5534690000000  0.4047170000000 1.0
C      1  0.5192630000000  0.5325430000000  0.5463180000000 1.0
C      1  0.5430510000000  0.5672450000000  0.4469700000000 1.0
C      1  0.5120430000000  0.5823870000000  0.5446250000000 1.0
C      1  0.4587990000000  0.6041770000000  0.5142790000000 1.0
C      1  0.4555640000000  0.4501520000000  0.5030400000000 1.0
C      1  0.5162310000000  0.3892160000000  0.4103550000000 1.0
C      1  0.5603410000000  0.4571790000000  0.4821840000000 1.0
C      1  0.4971880000000  0.5288510000000  0.4594830000000 1.0
C      1  0.4361080000000  0.3610410000000  0.5355550000000 1.0
C      1  0.4344740000000  0.5435380000000  0.4199320000000 1.0
C      1  0.4587970000000  0.4590350000000  0.4762680000000 1.0
C      1  0.5386860000000  0.5276590000000  0.5920050000000 1.0
C      1  0.5934860000000  0.5765250000000  0.4984070000000 1.0
C      1  0.4028970000000  0.4428830000000  0.4714160000000 1.0
C      1  0.5700800000000  0.4312290000000  0.4418420000000 1.0
C      1  0.4918490000000  0.4827640000000  0.3932240000000 1.0
C      1  0.5480130000000  0.4998060000000  0.5889400000000 1.0
C      1  0.4403130000000  0.4791800000000  0.4675700000000 1.0
C      1  0.4615650000000  0.5328310000000  0.5090210000000 1.0
C      1  0.4110500000000  0.5223770000000  0.4887260000000 1.0
C      1  0.5487440000000  0.5624550000000  0.5089030000000 1.0
C      1  0.5793010000000  0.5498380000000  0.4263380000000 1.0
C      1  0.4953420000000  0.4337580000000  0.5290200000000 1.0
C      1  0.5469400000000  0.5436540000000  0.4623050000000 1.0
C      1  0.5159480000000  0.4641980000000  0.5800130000000 1.0
C      1  0.4520840000000  0.5226270000000  0.4543500000000 1.0
C      1  0.5753270000000  0.5896260000000  0.4771830000000 1.0
C      1  0.6258710000000  0.5398290000000  0.4408240000000 1.0
C      1  0.4652630000000  0.4241220000000  0.4335650000000 1.0
C      1  0.4862410000000  0.5590200000000  0.5745350000000 1.0
C      1  0.5523270000000  0.5094720000000  0.4224350000000 1.0
C      1  0.5568280000000  0.5469940000000  0.5801350000000 1.0
C      1  0.5506960000000  0.5589800000000  0.4201670000000 1.0
C      1  0.4733180000000  0.4915390000000  0.5990000000000 1.0
C      1  0.5690450000000  0.4870600000000  0.5730740000000 1.0
C      1  0.6361770000000  0.5164560000000  0.4309310000000 1.0
C      1  0.4706640000000  0.4669010000000  0.5783690000000 1.0
C      1  0.5282120000000  0.4743750000000  0.4431230000000 1.0
C      1  0.4714940000000  0.4666200000000  0.3995910000000 1.0
C      1  0.4508190000000  0.5042100000000  0.4752170000000 1.0
C      1  0.4513590000000  0.4674030000000  0.5545220000000 1.0
C      1  0.5004100000000  0.4620200000000  0.5348130000000 1.0
C      1  0.5153420000000  0.4540950000000  0.4932860000000 1.0
C      1  0.5282940000000  0.4203640000000  0.5753500000000 1.0
C      1  0.5845830000000  0.4243030000000  0.5320310000000 1.0
C      1  0.4605260000000  0.3719030000000  0.5389010000000 1.0
C      1  0.5128510000000  0.4996680000000  0.4003690000000 1.0
C      1  0.4213370000000  0.4222710000000  0.5442000000000 1.0
C      1  0.6021060000000  0.5262770000000  0.5296540000000 1.0
C      1  0.3936610000000  0.4107110000000  0.5076590000000 1.0
C      1  0.4458710000000  0.4140860000000  0.5587420000000 1.0
C      1  0.4103310000000  0.4795460000000  0.5352900000000 1.0
C      1  0.5981640000000  0.5406010000000  0.4491350000000 1.0
C      1  0.5252300000000  0.4834250000000  0.5977290000000 1.0
C      1  0.4839770000000  0.4552390000000  0.4615050000000 1.0
C      1  0.4865810000000  0.5207600000000  0.5119780000000 1.0
C      1  0.4753580000000  0.5696250000000  0.4039790000000 1.0
C      1  0.4414810000000  0.4410190000000  0.4299890000000 1.0
C      1  0.4124810000000  0.3738790000000  0.5344590000000 1.0
C      1  0.5193960000000  0.6257300000000  0.4036990000000 1.0
C      1  0.5056370000000  0.3738910000000  0.3921330000000 1.0
C      1  0.5506930000000  0.4750580000000  0.4621230000000 1.0
C      1  0.5040010000000  0.4311220000000  0.5021330000000 1.0
C      1  0.5548490000000  0.4091340000000  0.4792570000000 1.0
C      1  0.4225580000000  0.5542240000000  0.5221230000000 1.0
C      1  0.5023690000000  0.4769320000000  0.4556110000000 1.0
C      1  0.5037720000000  0.5681270000000  0.4992950000000 1.0
C      1  0.4183760000000  0.5681270000000  0.4954440000000 1.0
C      1  0.4758280000000  0.5296100000000  0.4421410000000 1.0
C      1  0.5648310000000  0.5658370000000  0.5329360000000 1.0
C      1  0.4080910000000  0.5160810000000  0.4605490000000 1.0
C      1  0.5253870000000  0.6232120000000  0.5205450000000 1.0
C      1  0.5165680000000  0.5276930000000  0.3951440000000 1.0
C      1  0.4573560000000  0.5803780000000  0.4526950000000 1.0
C      1  0.5245730000000  0.3893620000000  0.5058200000000 1.0
C      1  0.4824960000000  0.5007040000000  0.5516670000000 1.0
C      1  0.4458110000000  0.4656330000000  0.4125200000000 1.0
C      1  0.5055250000000  0.5026440000000  0.4978260000000 1.0
C      1  0.4329900000000  0.4916820000000  0.4073580000000 1.0
C      1  0.4926600000000  0.5757150000000  0.5239180000000 1.0
C      1  0.5004320000000  0.5020690000000  0.4690340000000 1.0
C      1  0.5943710000000  0.5317870000000  0.4784700000000 1.0
C      1  0.4178560000000  0.5292360000000  0.5397960000000 1.0
C      1  0.4515430000000  0.5553910000000  0.5226400000000 1.0
C      1  0.4143370000000  0.5179440000000  0.5673120000000 1.0
C      1  0.5538360000000  0.4341060000000  0.5760740000000 1.0
C      1  0.4834030000000  0.5381050000000  0.5930850000000 1.0
C      1  0.4656800000000  0.5694610000000  0.3780010000000 1.0
C      1  0.5194010000000  0.6066520000000  0.4680000000000 1.0
C      1  0.5546290000000  0.5198770000000  0.4482520000000 1.0
C      1  0.5935240000000  0.4981620000000  0.5490760000000 1.0
C      1  0.6017390000000  0.5474300000000  0.5010440000000 1.0
C      1  0.4605650000000  0.5183780000000  0.5936910000000 1.0
C      1  0.5373030000000  0.3966930000000  0.5311720000000 1.0
C      1  0.5022850000000  0.4983230000000  0.6076240000000 1.0
C      1  0.5072530000000  0.4368660000000  0.5867570000000 1.0
C      1  0.4777340000000  0.4392560000000  0.5884580000000 1.0
C      1  0.5861900000000  0.5829910000000  0.5258280000000 1.0
C      1  0.5990640000000  0.4469900000000  0.5346340000000 1.0
C      1  0.5626240000000  0.5444800000000  0.5516600000000 1.0
C      1  0.4546130000000  0.4953670000000  0.5449510000000 1.0
C      1  0.4672080000000  0.3982060000000  0.5461810000000 1.0
C      1  0.4264190000000  0.5316980000000  0.4450090000000 1.0
C      1  0.4203870000000  0.4344690000000  0.4493820000000 1.0
C      1  0.4320240000000  0.5240640000000  0.5898750000000 1.0
C      1  0.4342430000000  0.5192080000000  0.4027740000000 1.0
C      1  0.4063060000000  0.4009830000000  0.5310710000000 1.0
C      1  0.3927290000000  0.4682070000000  0.4637670000000 1.0
C      1  0.4645620000000  0.5801590000000  0.5317670000000 1.0
C      1  0.5673340000000  0.4322830000000  0.4702650000000 1.0
C      1  0.3844940000000  0.4785230000000  0.5792440000000 1.0
C      1  0.4389650000000  0.5145130000000  0.5001870000000 1.0
END
