TITL C-3866674-3872-258 -3.8423024742448e-05 125000 -327.597679189238 0 0 55 (C1) n - 1
REM
REM in /home/nfs/bkarasulu/CARBON/AIRSS/Generating-Clusters/LCBOP/Only-C1/SD-CG/HFTN-CG/FIRE-CG
REM
REM
REM
REM
REM
REM ./C.cell (11c1c37f851c82e70ff6c80c92926a4b)
REM AIRSS Version 0.9.1 bugfix July 2018 build 013d7b7c2542+ Fri, 06 Jul 2018 19:26:36 +0100
REM compiler GCC version 9.2.1 20190827 (Red Hat 9.2.1-1)
REM options -cpp -mtune=generic -march=x86-64 -g -O0 -fpre-include=/usr/include/finclude/math-vector-fortran.h
REM seed 787433703 23286133 -713611387 -1608959899 -454217623 -326464252 252917319 1357664240 572288506 586000085 -892627403 1326708075 1712335307 -297780753 878951707 -1517029720 -1039606579 2115139651 1300247659 -1408474475 424665319 1863832101 1302779143 -345574969 -1100984827 -329242390 801490019 -1503552416 -1327299167 -2060551524 48588849 -258366361 -270576187
REM
CELL 1.54180   50.00000   50.00000   50.00000   90.00000   90.00000   90.00000
LATT -1
SFAC C  
C      1  0.5334210000000  0.5510840000000  0.5030170000000 1.0
C      1  0.4608060000000  0.5286950000000  0.4488520000000 1.0
C      1  0.4252580000000  0.3966790000000  0.4802160000000 1.0
C      1  0.5116260000000  0.5244930000000  0.5396250000000 1.0
C      1  0.4733350000000  0.4207970000000  0.4832890000000 1.0
C      1  0.5258380000000  0.4538640000000  0.5310940000000 1.0
C      1  0.5248270000000  0.5226210000000  0.4645360000000 1.0
C      1  0.5054950000000  0.4969250000000  0.5438120000000 1.0
C      1  0.5183740000000  0.4408900000000  0.4435480000000 1.0
C      1  0.4363150000000  0.5487840000000  0.5145050000000 1.0
C      1  0.4836180000000  0.5969340000000  0.5024530000000 1.0
C      1  0.4143730000000  0.4634330000000  0.5187290000000 1.0
C      1  0.4833340000000  0.4929880000000  0.5612430000000 1.0
C      1  0.4487900000000  0.4077810000000  0.4816790000000 1.0
C      1  0.5304030000000  0.5060000000000  0.4452640000000 1.0
C      1  0.5628350000000  0.4542350000000  0.4604280000000 1.0
C      1  0.5088190000000  0.5597380000000  0.5722340000000 1.0
C      1  0.4778260000000  0.4455520000000  0.4701050000000 1.0
C      1  0.4745450000000  0.4702740000000  0.4840120000000 1.0
C      1  0.4601840000000  0.5090230000000  0.5574560000000 1.0
C      1  0.4948310000000  0.5884670000000  0.4789820000000 1.0
C      1  0.5220130000000  0.4151560000000  0.5030020000000 1.0
C      1  0.4383260000000  0.4966340000000  0.5448890000000 1.0
C      1  0.4563940000000  0.5011590000000  0.4507830000000 1.0
C      1  0.4492960000000  0.5525060000000  0.5376950000000 1.0
C      1  0.5164590000000  0.6234460000000  0.4439610000000 1.0
C      1  0.5353440000000  0.5614390000000  0.5772650000000 1.0
C      1  0.4372260000000  0.5006220000000  0.4967600000000 1.0
C      1  0.5892720000000  0.5030040000000  0.5136480000000 1.0
C      1  0.4320070000000  0.5283600000000  0.4976700000000 1.0
C      1  0.5425120000000  0.4112290000000  0.5469780000000 1.0
C      1  0.5106250000000  0.4765170000000  0.5251460000000 1.0
C      1  0.5799770000000  0.5198420000000  0.5320760000000 1.0
C      1  0.5411800000000  0.4365430000000  0.4594740000000 1.0
C      1  0.5587110000000  0.5350440000000  0.5417630000000 1.0
C      1  0.4666890000000  0.5369970000000  0.5533650000000 1.0
C      1  0.4948010000000  0.4768930000000  0.5020870000000 1.0
C      1  0.4749030000000  0.5494940000000  0.4574850000000 1.0
C      1  0.5790090000000  0.4709910000000  0.4733140000000 1.0
C      1  0.5385530000000  0.4179470000000  0.4804630000000 1.0
C      1  0.5343580000000  0.5349550000000  0.5264150000000 1.0
C      1  0.4955940000000  0.5608210000000  0.4725440000000 1.0
C      1  0.5883220000000  0.4868560000000  0.4925260000000 1.0
C      1  0.4618490000000  0.4842020000000  0.4289850000000 1.0
C      1  0.5305220000000  0.4263730000000  0.5277110000000 1.0
C      1  0.4774510000000  0.4625790000000  0.4254520000000 1.0
C      1  0.5569980000000  0.5502340000000  0.5655230000000 1.0
C      1  0.4947800000000  0.4102870000000  0.4981250000000 1.0
C      1  0.5056580000000  0.6068790000000  0.4609330000000 1.0
C      1  0.4545830000000  0.4895570000000  0.4770250000000 1.0
C      1  0.4910310000000  0.4471630000000  0.4446640000000 1.0
C      1  0.5175210000000  0.5443880000000  0.4804920000000 1.0
C      1  0.4294960000000  0.4861040000000  0.5202050000000 1.0
C      1  0.5489850000000  0.5737040000000  0.5018580000000 1.0
C      1  0.4947000000000  0.5428180000000  0.5546420000000 1.0
END
