TITL C-3866675-3766-221 5.93869248710702e-07 125000 -1076.04909292589 0 0 174 (C1) n - 1
REM
REM in /home/nfs/bkarasulu/CARBON/AIRSS/Generating-Clusters/LCBOP/Only-C1/SD-CG/HFTN-CG/FIRE-CG
REM
REM
REM
REM
REM
REM ./C.cell (11c1c37f851c82e70ff6c80c92926a4b)
REM AIRSS Version 0.9.1 bugfix July 2018 build 013d7b7c2542+ Fri, 06 Jul 2018 19:26:36 +0100
REM compiler GCC version 9.2.1 20190827 (Red Hat 9.2.1-1)
REM options -cpp -mtune=generic -march=x86-64 -g -O0 -fpre-include=/usr/include/finclude/math-vector-fortran.h
REM seed 148836403 895080480 769327058 2073358023 1584223793 560526142 1645081411 -2074091515 -601800851 84195744 752293381 -1931550178 -2118244110 963623385 -17754454 999539050 2128497270 -248819461 536040539 -1556661405 382250120 1320554579 -948878564 308880476 -803476707 -1137236481 -503799208 1968659917 -1153951661 769278625 -1736542750 1246922575 -1162802785
REM
CELL 1.54180   50.00000   50.00000   50.00000   90.00000   90.00000   90.00000
LATT -1
SFAC C  
C      1  0.5104210000000  0.3747850000000  0.5330130000000 1.0
C      1  0.4281550000000  0.4860150000000  0.4935370000000 1.0
C      1  0.3762300000000  0.6005780000000  0.5084060000000 1.0
C      1  0.5747060000000  0.4010400000000  0.5163950000000 1.0
C      1  0.5640330000000  0.4610800000000  0.4292980000000 1.0
C      1  0.4435740000000  0.6186190000000  0.4494160000000 1.0
C      1  0.4163200000000  0.4597390000000  0.4204700000000 1.0
C      1  0.5795640000000  0.5313360000000  0.5940220000000 1.0
C      1  0.6060950000000  0.4681730000000  0.5718790000000 1.0
C      1  0.5062330000000  0.4881710000000  0.3827160000000 1.0
C      1  0.6051860000000  0.5312320000000  0.4479800000000 1.0
C      1  0.5080710000000  0.4704630000000  0.4796290000000 1.0
C      1  0.4840820000000  0.4857230000000  0.5593580000000 1.0
C      1  0.4173970000000  0.4738430000000  0.5565710000000 1.0
C      1  0.4739950000000  0.6631430000000  0.5238350000000 1.0
C      1  0.5804880000000  0.5035690000000  0.5397600000000 1.0
C      1  0.4067670000000  0.5631710000000  0.5089410000000 1.0
C      1  0.4059390000000  0.5962090000000  0.4707020000000 1.0
C      1  0.4960280000000  0.4827160000000  0.6089170000000 1.0
C      1  0.5150430000000  0.4133520000000  0.5614130000000 1.0
C      1  0.4631280000000  0.6384920000000  0.4531790000000 1.0
C      1  0.4197940000000  0.5594350000000  0.5342740000000 1.0
C      1  0.3999350000000  0.4612570000000  0.3979340000000 1.0
C      1  0.6162380000000  0.4851300000000  0.5118560000000 1.0
C      1  0.4860500000000  0.4462330000000  0.3930610000000 1.0
C      1  0.5893660000000  0.4127500000000  0.4944020000000 1.0
C      1  0.5229680000000  0.5733730000000  0.5066110000000 1.0
C      1  0.4765910000000  0.5017480000000  0.4901720000000 1.0
C      1  0.4728810000000  0.6554380000000  0.4717410000000 1.0
C      1  0.5036100000000  0.4966750000000  0.4885770000000 1.0
C      1  0.5662350000000  0.5273040000000  0.5345080000000 1.0
C      1  0.3876510000000  0.5183960000000  0.5058090000000 1.0
C      1  0.5734590000000  0.4829070000000  0.4956800000000 1.0
C      1  0.5555080000000  0.5464280000000  0.5902600000000 1.0
C      1  0.4326130000000  0.6230310000000  0.5196440000000 1.0
C      1  0.5893950000000  0.4597610000000  0.5933380000000 1.0
C      1  0.5155120000000  0.5341830000000  0.5312160000000 1.0
C      1  0.5384770000000  0.5196080000000  0.5372120000000 1.0
C      1  0.5722660000000  0.5822860000000  0.5582430000000 1.0
C      1  0.6134420000000  0.4954990000000  0.5754470000000 1.0
C      1  0.5195070000000  0.4674990000000  0.6096570000000 1.0
C      1  0.4426040000000  0.5017210000000  0.5937930000000 1.0
C      1  0.4609250000000  0.4522520000000  0.4679650000000 1.0
C      1  0.4389870000000  0.4505600000000  0.6004530000000 1.0
C      1  0.4608820000000  0.4679470000000  0.4420510000000 1.0
C      1  0.4711910000000  0.5491810000000  0.5151160000000 1.0
C      1  0.5520580000000  0.4436820000000  0.4801190000000 1.0
C      1  0.6010660000000  0.4546220000000  0.5466570000000 1.0
C      1  0.4568520000000  0.4857700000000  0.3987600000000 1.0
C      1  0.4547740000000  0.4474350000000  0.5337410000000 1.0
C      1  0.4062540000000  0.4482390000000  0.4444980000000 1.0
C      1  0.4825240000000  0.4431040000000  0.5399180000000 1.0
C      1  0.4845790000000  0.4831640000000  0.4369830000000 1.0
C      1  0.4872620000000  0.4212860000000  0.5578440000000 1.0
C      1  0.4298850000000  0.4982800000000  0.5677800000000 1.0
C      1  0.4790410000000  0.4077030000000  0.4455190000000 1.0
C      1  0.4607310000000  0.5690890000000  0.4391360000000 1.0
C      1  0.4811200000000  0.5110640000000  0.4310860000000 1.0
C      1  0.5306830000000  0.4067510000000  0.4382620000000 1.0
C      1  0.6168020000000  0.4558270000000  0.5201710000000 1.0
C      1  0.5538160000000  0.3969790000000  0.5330000000000 1.0
C      1  0.4236330000000  0.5337750000000  0.4739220000000 1.0
C      1  0.4499350000000  0.5343880000000  0.3979550000000 1.0
C      1  0.5273100000000  0.4697750000000  0.3925930000000 1.0
C      1  0.5492540000000  0.4557120000000  0.4538110000000 1.0
C      1  0.5557050000000  0.4619790000000  0.5009530000000 1.0
C      1  0.5281810000000  0.4260380000000  0.5832320000000 1.0
C      1  0.5649430000000  0.5673330000000  0.4373480000000 1.0
C      1  0.5526580000000  0.4737460000000  0.4041350000000 1.0
C      1  0.4746710000000  0.5416970000000  0.5872540000000 1.0
C      1  0.5577450000000  0.4020740000000  0.4495010000000 1.0
C      1  0.4543280000000  0.6164210000000  0.5067520000000 1.0
C      1  0.5786070000000  0.4056870000000  0.4676550000000 1.0
C      1  0.5262810000000  0.4239270000000  0.4158630000000 1.0
C      1  0.4539900000000  0.6120920000000  0.5771840000000 1.0
C      1  0.4883120000000  0.5586490000000  0.4290600000000 1.0
C      1  0.5861230000000  0.5465480000000  0.5252390000000 1.0
C      1  0.3853780000000  0.4630190000000  0.3763900000000 1.0
C      1  0.5228380000000  0.4659520000000  0.4556250000000 1.0
C      1  0.4762510000000  0.4122120000000  0.6043830000000 1.0
C      1  0.4861940000000  0.4521670000000  0.4845770000000 1.0
C      1  0.4872950000000  0.5281560000000  0.5284950000000 1.0
C      1  0.5596140000000  0.5142740000000  0.4641250000000 1.0
C      1  0.4337840000000  0.4595320000000  0.4826570000000 1.0
C      1  0.5807190000000  0.4985440000000  0.4729300000000 1.0
C      1  0.5670430000000  0.4707780000000  0.6032280000000 1.0
C      1  0.5417500000000  0.4822260000000  0.6000210000000 1.0
C      1  0.4637460000000  0.5575160000000  0.4883710000000 1.0
C      1  0.4430180000000  0.4695040000000  0.4194240000000 1.0
C      1  0.4990290000000  0.4661520000000  0.5438260000000 1.0
C      1  0.5446780000000  0.5230810000000  0.4855770000000 1.0
C      1  0.5056690000000  0.5410670000000  0.4696350000000 1.0
C      1  0.4533780000000  0.5575710000000  0.5741730000000 1.0
C      1  0.6089400000000  0.4336230000000  0.5020000000000 1.0
C      1  0.4623090000000  0.5126040000000  0.4085970000000 1.0
C      1  0.5396290000000  0.5704050000000  0.4269520000000 1.0
C      1  0.4759670000000  0.6639880000000  0.4970470000000 1.0
C      1  0.5299650000000  0.5323610000000  0.5873310000000 1.0
C      1  0.4717210000000  0.5739800000000  0.5293790000000 1.0
C      1  0.3843340000000  0.4978610000000  0.5231620000000 1.0
C      1  0.4926480000000  0.4267440000000  0.4952150000000 1.0
C      1  0.4848210000000  0.5067810000000  0.6196800000000 1.0
C      1  0.5076040000000  0.5676340000000  0.4825870000000 1.0
C      1  0.5044510000000  0.5476870000000  0.5801170000000 1.0
C      1  0.4315040000000  0.4144270000000  0.4693270000000 1.0
C      1  0.4913950000000  0.5341410000000  0.4452400000000 1.0
C      1  0.5885120000000  0.4892800000000  0.5180530000000 1.0
C      1  0.4422630000000  0.5907920000000  0.4381610000000 1.0
C      1  0.4677040000000  0.6536800000000  0.5481820000000 1.0
C      1  0.4162660000000  0.4394160000000  0.4695690000000 1.0
C      1  0.4827970000000  0.5832260000000  0.5532840000000 1.0
C      1  0.5494230000000  0.4577350000000  0.5288550000000 1.0
C      1  0.5068020000000  0.4667320000000  0.4332790000000 1.0
C      1  0.5656240000000  0.4997310000000  0.4010730000000 1.0
C      1  0.4732340000000  0.4050300000000  0.4179130000000 1.0
C      1  0.5100910000000  0.5167520000000  0.3802920000000 1.0
C      1  0.5342410000000  0.4969160000000  0.5539590000000 1.0
C      1  0.4370580000000  0.5446360000000  0.5522380000000 1.0
C      1  0.5158550000000  0.5579300000000  0.4147000000000 1.0
C      1  0.4419270000000  0.4342480000000  0.5773820000000 1.0
C      1  0.6084820000000  0.5174970000000  0.4230870000000 1.0
C      1  0.6103180000000  0.5353370000000  0.5129610000000 1.0
C      1  0.5912740000000  0.4712860000000  0.4278950000000 1.0
C      1  0.5119920000000  0.4111720000000  0.4823260000000 1.0
C      1  0.6010750000000  0.5170140000000  0.5863980000000 1.0
C      1  0.4416070000000  0.3737650000000  0.4997380000000 1.0
C      1  0.4788200000000  0.4765360000000  0.5866330000000 1.0
C      1  0.5071880000000  0.5693470000000  0.5587860000000 1.0
C      1  0.5010040000000  0.5294300000000  0.3576700000000 1.0
C      1  0.5595220000000  0.5723320000000  0.5797370000000 1.0
C      1  0.4199410000000  0.6212770000000  0.4667830000000 1.0
C      1  0.5273720000000  0.3948820000000  0.5432300000000 1.0
C      1  0.5201380000000  0.5624780000000  0.5330300000000 1.0
C      1  0.4522780000000  0.4749360000000  0.5987400000000 1.0
C      1  0.4035680000000  0.5390410000000  0.4939210000000 1.0
C      1  0.3941840000000  0.4797050000000  0.5407940000000 1.0
C      1  0.4818880000000  0.5799840000000  0.4829800000000 1.0
C      1  0.6201600000000  0.5118100000000  0.4971340000000 1.0
C      1  0.5380500000000  0.4202110000000  0.4870150000000 1.0
C      1  0.4796960000000  0.4737820000000  0.3851990000000 1.0
C      1  0.5119190000000  0.4492570000000  0.4091280000000 1.0
C      1  0.4646860000000  0.5200230000000  0.6032460000000 1.0
C      1  0.5838050000000  0.5723970000000  0.5360490000000 1.0
C      1  0.4149030000000  0.5820110000000  0.4469270000000 1.0
C      1  0.5241600000000  0.5323710000000  0.4002540000000 1.0
C      1  0.5877710000000  0.5546750000000  0.4460510000000 1.0
C      1  0.5177340000000  0.5201090000000  0.4838320000000 1.0
C      1  0.4338360000000  0.4982310000000  0.5194550000000 1.0
C      1  0.3966520000000  0.5869150000000  0.4960850000000 1.0
C      1  0.4630900000000  0.3650280000000  0.5128280000000 1.0
C      1  0.4343140000000  0.4494800000000  0.5536050000000 1.0
C      1  0.5927070000000  0.4965120000000  0.4130250000000 1.0
C      1  0.5503270000000  0.5207390000000  0.4390590000000 1.0
C      1  0.5345070000000  0.5035550000000  0.5818750000000 1.0
C      1  0.4734600000000  0.5090370000000  0.5451820000000 1.0
C      1  0.5482830000000  0.5201410000000  0.4111410000000 1.0
C      1  0.4463540000000  0.5514020000000  0.4672290000000 1.0
C      1  0.4964300000000  0.4241480000000  0.6180530000000 1.0
C      1  0.4285740000000  0.3910300000000  0.4841160000000 1.0
C      1  0.4664430000000  0.4179850000000  0.5782030000000 1.0
C      1  0.4594190000000  0.5057750000000  0.4703920000000 1.0
C      1  0.4615230000000  0.5856020000000  0.5723020000000 1.0
C      1  0.4317440000000  0.5067050000000  0.4734150000000 1.0
C      1  0.4590720000000  0.6365430000000  0.5669970000000 1.0
C      1  0.4585250000000  0.4215990000000  0.4604760000000 1.0
C      1  0.4732360000000  0.6047620000000  0.4919920000000 1.0
C      1  0.5273470000000  0.4716070000000  0.5418250000000 1.0
C      1  0.5177950000000  0.4389520000000  0.6065210000000 1.0
C      1  0.4729490000000  0.4217580000000  0.3967860000000 1.0
C      1  0.4430550000000  0.5142540000000  0.5455550000000 1.0
C      1  0.5066080000000  0.4040110000000  0.4551210000000 1.0
C      1  0.5725620000000  0.4485810000000  0.5433200000000 1.0
C      1  0.6059910000000  0.5127900000000  0.4711190000000 1.0
C      1  0.4875250000000  0.3652140000000  0.5233750000000 1.0
END
