TITL C-3866669-3764-287 -2.08721359239794e-07 125000 -527.451219969965 0 0 87 (C1) n - 1
REM
REM in /home/nfs/bkarasulu/CARBON/AIRSS/Generating-Clusters/LCBOP/Only-C1/SD-CG/HFTN-CG/FIRE-CG
REM
REM
REM
REM
REM
REM ./C.cell (11c1c37f851c82e70ff6c80c92926a4b)
REM AIRSS Version 0.9.1 bugfix July 2018 build 013d7b7c2542+ Fri, 06 Jul 2018 19:26:36 +0100
REM compiler GCC version 9.2.1 20190827 (Red Hat 9.2.1-1)
REM options -cpp -mtune=generic -march=x86-64 -g -O0 -fpre-include=/usr/include/finclude/math-vector-fortran.h
REM seed 1299523193 46190137 -1740489409 1749496296 -1286947016 -476669120 802457028 -47629541 -836243543 1870481940 232232394 572371720 -632979262 -321056143 1276786332 -1111325716 -1370738208 -1238596473 1985944027 1366597028 -563943396 1898709736 -965870335 2020407424 -263133575 -377281393 -689765103 1989377583 1263696583 -55622922 -1303725399 -1294960576 109945520
REM
CELL 1.54180   50.00000   50.00000   50.00000   90.00000   90.00000   90.00000
LATT -1
SFAC C  
C      1  0.6108200000000  0.5003940000000  0.5430450000000 1.0
C      1  0.4360210000000  0.4580750000000  0.5387520000000 1.0
C      1  0.5726000000000  0.4742750000000  0.5286300000000 1.0
C      1  0.4974900000000  0.4951150000000  0.6012100000000 1.0
C      1  0.5347360000000  0.4518740000000  0.4465060000000 1.0
C      1  0.4367660000000  0.5327450000000  0.5602740000000 1.0
C      1  0.5175610000000  0.5170830000000  0.5504450000000 1.0
C      1  0.4442020000000  0.4719990000000  0.4464320000000 1.0
C      1  0.4161720000000  0.4833620000000  0.4979730000000 1.0
C      1  0.5142030000000  0.4192450000000  0.5694620000000 1.0
C      1  0.4885890000000  0.4242920000000  0.5821100000000 1.0
C      1  0.4614970000000  0.5479410000000  0.5618390000000 1.0
C      1  0.5359870000000  0.5562270000000  0.5304960000000 1.0
C      1  0.5188370000000  0.5774220000000  0.5226860000000 1.0
C      1  0.4826170000000  0.4238530000000  0.4862730000000 1.0
C      1  0.5214930000000  0.4965160000000  0.4604240000000 1.0
C      1  0.4318930000000  0.5547640000000  0.5182380000000 1.0
C      1  0.5866710000000  0.4692970000000  0.4620330000000 1.0
C      1  0.5287640000000  0.5540850000000  0.4499170000000 1.0
C      1  0.4875810000000  0.5920470000000  0.4884480000000 1.0
C      1  0.5294950000000  0.5252960000000  0.5753730000000 1.0
C      1  0.4404950000000  0.4845750000000  0.4202530000000 1.0
C      1  0.4273770000000  0.4575230000000  0.4913190000000 1.0
C      1  0.4869190000000  0.5292490000000  0.4841760000000 1.0
C      1  0.6135500000000  0.4744940000000  0.4671290000000 1.0
C      1  0.4633850000000  0.5890180000000  0.4998570000000 1.0
C      1  0.5141330000000  0.4705560000000  0.4508650000000 1.0
C      1  0.4793310000000  0.4823960000000  0.5137160000000 1.0
C      1  0.4965000000000  0.5799810000000  0.5406990000000 1.0
C      1  0.4773190000000  0.4377170000000  0.4625070000000 1.0
C      1  0.4708560000000  0.4777550000000  0.5633090000000 1.0
C      1  0.5590330000000  0.5240840000000  0.4998080000000 1.0
C      1  0.4702090000000  0.4840730000000  0.4884680000000 1.0
C      1  0.4901530000000  0.5024270000000  0.4053290000000 1.0
C      1  0.4569130000000  0.4909270000000  0.4640770000000 1.0
C      1  0.4704670000000  0.4192290000000  0.5599820000000 1.0
C      1  0.4706930000000  0.5685790000000  0.5436840000000 1.0
C      1  0.5011240000000  0.4827230000000  0.3898690000000 1.0
C      1  0.5094770000000  0.5483180000000  0.4296990000000 1.0
C      1  0.5545300000000  0.5384050000000  0.5706710000000 1.0
C      1  0.5502460000000  0.4587020000000  0.5364980000000 1.0
C      1  0.4875700000000  0.4817730000000  0.5407110000000 1.0
C      1  0.4429320000000  0.4455810000000  0.5132090000000 1.0
C      1  0.5855070000000  0.4996730000000  0.5325420000000 1.0
C      1  0.4180610000000  0.5039470000000  0.4257650000000 1.0
C      1  0.5724140000000  0.5243210000000  0.5254460000000 1.0
C      1  0.4204420000000  0.5097680000000  0.5015140000000 1.0
C      1  0.5335700000000  0.4157990000000  0.4775360000000 1.0
C      1  0.4326960000000  0.5046930000000  0.5624000000000 1.0
C      1  0.6381360000000  0.4802790000000  0.4735510000000 1.0
C      1  0.5111560000000  0.5134060000000  0.4820610000000 1.0
C      1  0.5698260000000  0.4891660000000  0.4509340000000 1.0
C      1  0.4529840000000  0.5737160000000  0.5211030000000 1.0
C      1  0.5133470000000  0.4231790000000  0.5402120000000 1.0
C      1  0.4335850000000  0.5262350000000  0.4370510000000 1.0
C      1  0.5369680000000  0.4346300000000  0.5288540000000 1.0
C      1  0.4518880000000  0.5319760000000  0.4149520000000 1.0
C      1  0.4433900000000  0.4789420000000  0.5569910000000 1.0
C      1  0.4684250000000  0.4297270000000  0.5107520000000 1.0
C      1  0.4617850000000  0.5041860000000  0.4089250000000 1.0
C      1  0.5137980000000  0.5828930000000  0.4939940000000 1.0
C      1  0.5654700000000  0.5413730000000  0.4781400000000 1.0
C      1  0.4846800000000  0.4472500000000  0.5977520000000 1.0
C      1  0.4301850000000  0.4531410000000  0.4629180000000 1.0
C      1  0.4586130000000  0.5330120000000  0.4818350000000 1.0
C      1  0.4835650000000  0.4228840000000  0.5342350000000 1.0
C      1  0.4192580000000  0.5466720000000  0.5424230000000 1.0
C      1  0.4487620000000  0.5183000000000  0.4598860000000 1.0
C      1  0.5130200000000  0.4898710000000  0.5479600000000 1.0
C      1  0.4646070000000  0.5567770000000  0.4127960000000 1.0
C      1  0.5590180000000  0.5692570000000  0.4814840000000 1.0
C      1  0.5163090000000  0.5142390000000  0.5977320000000 1.0
C      1  0.5066350000000  0.5224830000000  0.4173770000000 1.0
C      1  0.5302600000000  0.5188560000000  0.5025950000000 1.0
C      1  0.5505930000000  0.5341540000000  0.4538430000000 1.0
C      1  0.5313620000000  0.5740050000000  0.4729550000000 1.0
C      1  0.5491630000000  0.4347120000000  0.4635700000000 1.0
C      1  0.5083470000000  0.4115050000000  0.4861950000000 1.0
C      1  0.5607030000000  0.5453100000000  0.5432230000000 1.0
C      1  0.5472670000000  0.5061150000000  0.4507860000000 1.0
C      1  0.5751650000000  0.4441510000000  0.4684460000000 1.0
C      1  0.4892020000000  0.4581490000000  0.4498560000000 1.0
C      1  0.4365530000000  0.5334830000000  0.5004010000000 1.0
C      1  0.4824500000000  0.4742030000000  0.5893770000000 1.0
C      1  0.4883350000000  0.5655280000000  0.4223170000000 1.0
C      1  0.5214910000000  0.5311770000000  0.5266300000000 1.0
C      1  0.5338030000000  0.4728630000000  0.5542900000000 1.0
END
