TITL C-3866672-3872-508 -0.0722956113843764 125000 -393.900200697994 0 0 66 (C1) n - 1
REM
REM in /home/nfs/bkarasulu/CARBON/AIRSS/Generating-Clusters/LCBOP/Only-C1/SD-CG/FIRE-CG
REM
REM
REM
REM
REM
REM ./C.cell (11c1c37f851c82e70ff6c80c92926a4b)
REM AIRSS Version 0.9.1 bugfix July 2018 build 013d7b7c2542+ Fri, 06 Jul 2018 19:26:36 +0100
REM compiler GCC version 9.2.1 20190827 (Red Hat 9.2.1-1)
REM options -cpp -mtune=generic -march=x86-64 -g -O0 -fpre-include=/usr/include/finclude/math-vector-fortran.h
REM seed -1447866097 -1208996474 -682516888 1251897561 -366512534 -320982206 804102163 1912994140 -55395401 -1763285958 186506100 575024263 155280843 -2043128828 -1538931291 445059857 -1117753568 1901471969 499776202 -1253085187 1472224225 901131196 -2130863513 -110949011 26996040 308693007 -515507852 -529202158 -1011995237 -523210382 781578597 -119529097 1962713651
REM
CELL 1.54180   50.00000   50.00000   50.00000   90.00000   90.00000   90.00000
LATT -1
SFAC C  
C      1  0.4506130000000  0.4489570000000  0.4841440000000 1.0
C      1  0.4433290000000  0.4582040000000  0.5447030000000 1.0
C      1  0.5668650000000  0.5094550000000  0.5321420000000 1.0
C      1  0.4608190000000  0.5178200000000  0.5850780000000 1.0
C      1  0.5643290000000  0.4824620000000  0.5398300000000 1.0
C      1  0.5686390000000  0.4461940000000  0.4544320000000 1.0
C      1  0.5436620000000  0.5260880000000  0.5325480000000 1.0
C      1  0.5136160000000  0.4360560000000  0.5599500000000 1.0
C      1  0.5110560000000  0.5737820000000  0.4886980000000 1.0
C      1  0.4563560000000  0.5334330000000  0.4686900000000 1.0
C      1  0.5418060000000  0.5507270000000  0.5190310000000 1.0
C      1  0.4717790000000  0.4578640000000  0.4181710000000 1.0
C      1  0.5160640000000  0.4934490000000  0.4832740000000 1.0
C      1  0.6353370000000  0.4240460000000  0.4172830000000 1.0
C      1  0.4871960000000  0.4405660000000  0.5599140000000 1.0
C      1  0.4546850000000  0.5177920000000  0.6115880000000 1.0
C      1  0.4400440000000  0.4842490000000  0.4437440000000 1.0
C      1  0.4725970000000  0.5534700000000  0.4564530000000 1.0
C      1  0.4871180000000  0.4984710000000  0.4402320000000 1.0
C      1  0.4936900000000  0.5025070000000  0.4680280000000 1.0
C      1  0.5083880000000  0.4829060000000  0.5090580000000 1.0
C      1  0.5840870000000  0.4388250000000  0.5402560000000 1.0
C      1  0.5698010000000  0.5827010000000  0.4751810000000 1.0
C      1  0.4383910000000  0.5099110000000  0.5192990000000 1.0
C      1  0.4229280000000  0.4976170000000  0.4618710000000 1.0
C      1  0.5482460000000  0.5762210000000  0.5308090000000 1.0
C      1  0.4426460000000  0.4277520000000  0.4711780000000 1.0
C      1  0.4713250000000  0.5130780000000  0.4827940000000 1.0
C      1  0.4591280000000  0.4964760000000  0.5031750000000 1.0
C      1  0.4284850000000  0.5270720000000  0.4657340000000 1.0
C      1  0.6572210000000  0.4167790000000  0.4051210000000 1.0
C      1  0.4883480000000  0.5697650000000  0.4730370000000 1.0
C      1  0.4839180000000  0.4871830000000  0.5534380000000 1.0
C      1  0.6130860000000  0.4314340000000  0.4296490000000 1.0
C      1  0.4439270000000  0.5282790000000  0.5653880000000 1.0
C      1  0.4132510000000  0.5110750000000  0.5043640000000 1.0
C      1  0.5624470000000  0.4549160000000  0.5450930000000 1.0
C      1  0.4401430000000  0.5317050000000  0.5380660000000 1.0
C      1  0.4662950000000  0.4796870000000  0.4337260000000 1.0
C      1  0.5210610000000  0.5159690000000  0.5455200000000 1.0
C      1  0.5055820000000  0.4372710000000  0.4947430000000 1.0
C      1  0.5445870000000  0.5991040000000  0.5134720000000 1.0
C      1  0.5548480000000  0.5598450000000  0.4732360000000 1.0
C      1  0.5911580000000  0.5194310000000  0.5244890000000 1.0
C      1  0.5387320000000  0.4435090000000  0.5549960000000 1.0
C      1  0.5908420000000  0.4388210000000  0.4420130000000 1.0
C      1  0.5088000000000  0.5223910000000  0.5706230000000 1.0
C      1  0.4902500000000  0.5214140000000  0.4238080000000 1.0
C      1  0.5655430000000  0.6020520000000  0.4940940000000 1.0
C      1  0.4101990000000  0.4642610000000  0.5039930000000 1.0
C      1  0.5278870000000  0.4353270000000  0.4797260000000 1.0
C      1  0.4700520000000  0.4622140000000  0.5538490000000 1.0
C      1  0.4846290000000  0.5072040000000  0.5747440000000 1.0
C      1  0.4171600000000  0.5588240000000  0.5041020000000 1.0
C      1  0.4823280000000  0.5464190000000  0.4307160000000 1.0
C      1  0.4920210000000  0.4598860000000  0.5045400000000 1.0
C      1  0.5383260000000  0.4811440000000  0.4711330000000 1.0
C      1  0.4312750000000  0.5566530000000  0.5273270000000 1.0
C      1  0.4105710000000  0.4874190000000  0.4874120000000 1.0
C      1  0.4650880000000  0.4676610000000  0.4991960000000 1.0
C      1  0.5181250000000  0.5984560000000  0.5017210000000 1.0
C      1  0.5456470000000  0.4539520000000  0.4679430000000 1.0
C      1  0.5331340000000  0.5545970000000  0.4913040000000 1.0
C      1  0.5053850000000  0.4944420000000  0.5343630000000 1.0
C      1  0.4226020000000  0.4569840000000  0.5272390000000 1.0
C      1  0.4125070000000  0.5357760000000  0.4885230000000 1.0
END
