TITL C-3866669-3764-93 -0.00583456211067248 125000 -988.646627599015 0 0 161 (C1) n - 1
REM
REM in /home/nfs/bkarasulu/CARBON/AIRSS/Generating-Clusters/LCBOP/Only-C1/SD-CG/HFTN-CG/FIRE-CG
REM
REM
REM
REM
REM
REM ./C.cell (11c1c37f851c82e70ff6c80c92926a4b)
REM AIRSS Version 0.9.1 bugfix July 2018 build 013d7b7c2542+ Fri, 06 Jul 2018 19:26:36 +0100
REM compiler GCC version 9.2.1 20190827 (Red Hat 9.2.1-1)
REM options -cpp -mtune=generic -march=x86-64 -g -O0 -fpre-include=/usr/include/finclude/math-vector-fortran.h
REM seed -1208972824 -1830288993 -1708342612 -556237247 126185190 1101453388 894470039 1363187546 -324937066 -902825495 15266990 -407345281 518621238 1728864306 -1337932552 1052181331 -1741642424 1565685945 1321233305 245724119 1205693859 682695862 -99105865 295738211 1947840418 2087096012 1521017077 -1354618944 1021618221 -1641417741 985095582 1673485560 -487278522
REM
CELL 1.54180   50.00000   50.00000   50.00000   90.00000   90.00000   90.00000
LATT -1
SFAC C  
C      1  0.5670780000000  0.6017680000000  0.4924850000000 1.0
C      1  0.5691640000000  0.5569300000000  0.4333550000000 1.0
C      1  0.5715590000000  0.5956050000000  0.4652480000000 1.0
C      1  0.5407290000000  0.4038410000000  0.6033620000000 1.0
C      1  0.5537120000000  0.6092300000000  0.4477270000000 1.0
C      1  0.4140810000000  0.4995180000000  0.4288980000000 1.0
C      1  0.4296450000000  0.4854330000000  0.4092670000000 1.0
C      1  0.5124650000000  0.5307550000000  0.4974030000000 1.0
C      1  0.6435710000000  0.5192590000000  0.4125280000000 1.0
C      1  0.5377440000000  0.4381130000000  0.5141460000000 1.0
C      1  0.4190210000000  0.4667720000000  0.5992540000000 1.0
C      1  0.5556280000000  0.4979210000000  0.3926440000000 1.0
C      1  0.5439180000000  0.5702910000000  0.4268070000000 1.0
C      1  0.4248580000000  0.5603680000000  0.4978950000000 1.0
C      1  0.4834070000000  0.5632300000000  0.3711090000000 1.0
C      1  0.5166720000000  0.3934820000000  0.5985150000000 1.0
C      1  0.4726340000000  0.6111050000000  0.4773180000000 1.0
C      1  0.4069090000000  0.5443320000000  0.5141490000000 1.0
C      1  0.4702410000000  0.5541790000000  0.3931980000000 1.0
C      1  0.5843480000000  0.4879960000000  0.4994960000000 1.0
C      1  0.6263610000000  0.5247590000000  0.4587960000000 1.0
C      1  0.4040470000000  0.4935370000000  0.5244020000000 1.0
C      1  0.4796250000000  0.5553890000000  0.5204680000000 1.0
C      1  0.4862390000000  0.3871310000000  0.5063680000000 1.0
C      1  0.4271770000000  0.4259270000000  0.4612530000000 1.0
C      1  0.5174680000000  0.5569860000000  0.5838510000000 1.0
C      1  0.4216720000000  0.4526910000000  0.5498070000000 1.0
C      1  0.4683110000000  0.4122900000000  0.5962270000000 1.0
C      1  0.4787040000000  0.5594020000000  0.4196350000000 1.0
C      1  0.5536570000000  0.5122020000000  0.4670230000000 1.0
C      1  0.4491150000000  0.5006660000000  0.5748250000000 1.0
C      1  0.5399220000000  0.5418110000000  0.3892420000000 1.0
C      1  0.4491690000000  0.5004750000000  0.4621360000000 1.0
C      1  0.4888230000000  0.5475070000000  0.4944320000000 1.0
C      1  0.5488680000000  0.5893940000000  0.5101880000000 1.0
C      1  0.4546440000000  0.6067660000000  0.4341380000000 1.0
C      1  0.4590940000000  0.4339870000000  0.4280610000000 1.0
C      1  0.4675410000000  0.4599910000000  0.6174830000000 1.0
C      1  0.4505440000000  0.6037030000000  0.4911960000000 1.0
C      1  0.4022130000000  0.4850520000000  0.4514060000000 1.0
C      1  0.4611340000000  0.4910200000000  0.5282610000000 1.0
C      1  0.4787170000000  0.6091430000000  0.4495220000000 1.0
C      1  0.4170020000000  0.5284420000000  0.4301170000000 1.0
C      1  0.4938990000000  0.5018540000000  0.6233420000000 1.0
C      1  0.5275780000000  0.6029340000000  0.5220100000000 1.0
C      1  0.4292200000000  0.5940490000000  0.4354060000000 1.0
C      1  0.5575470000000  0.4184840000000  0.4598520000000 1.0
C      1  0.4501670000000  0.4172890000000  0.5750550000000 1.0
C      1  0.5308390000000  0.4121150000000  0.5019280000000 1.0
C      1  0.4629370000000  0.4057030000000  0.4361300000000 1.0
C      1  0.6021280000000  0.5264190000000  0.4735250000000 1.0
C      1  0.5778810000000  0.5531380000000  0.5038520000000 1.0
C      1  0.4440120000000  0.5555390000000  0.5514060000000 1.0
C      1  0.4696740000000  0.5518860000000  0.4724180000000 1.0
C      1  0.4520270000000  0.4721880000000  0.4610630000000 1.0
C      1  0.5178780000000  0.5115680000000  0.4221020000000 1.0
C      1  0.4420160000000  0.4479850000000  0.4482940000000 1.0
C      1  0.4116540000000  0.4654690000000  0.5242320000000 1.0
C      1  0.3987990000000  0.5212590000000  0.5296700000000 1.0
C      1  0.4779100000000  0.5583350000000  0.4463360000000 1.0
C      1  0.4445140000000  0.5469880000000  0.5785520000000 1.0
C      1  0.4915530000000  0.4753260000000  0.6143410000000 1.0
C      1  0.6239600000000  0.5186110000000  0.4312010000000 1.0
C      1  0.4670490000000  0.5122780000000  0.4421150000000 1.0
C      1  0.5627210000000  0.5256240000000  0.3948450000000 1.0
C      1  0.4930160000000  0.5026680000000  0.4357330000000 1.0
C      1  0.5590550000000  0.4763220000000  0.5378330000000 1.0
C      1  0.5072980000000  0.4541270000000  0.4373210000000 1.0
C      1  0.4499690000000  0.5858800000000  0.6070400000000 1.0
C      1  0.5217530000000  0.5385170000000  0.6048150000000 1.0
C      1  0.5150910000000  0.4680210000000  0.3921150000000 1.0
C      1  0.5731000000000  0.4446170000000  0.6114470000000 1.0
C      1  0.4011370000000  0.4709060000000  0.4749040000000 1.0
C      1  0.5783130000000  0.5327720000000  0.4180620000000 1.0
C      1  0.4955810000000  0.5022640000000  0.5600680000000 1.0
C      1  0.5926200000000  0.4407800000000  0.4828890000000 1.0
C      1  0.4242860000000  0.4297350000000  0.4893140000000 1.0
C      1  0.5597940000000  0.4218050000000  0.6081050000000 1.0
C      1  0.5521400000000  0.5609500000000  0.5115860000000 1.0
C      1  0.5773270000000  0.4967670000000  0.5269040000000 1.0
C      1  0.5964640000000  0.5114110000000  0.4268720000000 1.0
C      1  0.5145770000000  0.4532980000000  0.5230410000000 1.0
C      1  0.5043660000000  0.5958920000000  0.5333780000000 1.0
C      1  0.4978470000000  0.5289450000000  0.6172910000000 1.0
C      1  0.5815470000000  0.4590170000000  0.5008520000000 1.0
C      1  0.3905310000000  0.5256630000000  0.5564470000000 1.0
C      1  0.4168280000000  0.5413650000000  0.4555190000000 1.0
C      1  0.6377820000000  0.4122530000000  0.4922830000000 1.0
C      1  0.4697810000000  0.4511570000000  0.4081380000000 1.0
C      1  0.3997280000000  0.5645920000000  0.4574270000000 1.0
C      1  0.4565940000000  0.5601760000000  0.6005420000000 1.0
C      1  0.5717710000000  0.5161250000000  0.5979000000000 1.0
C      1  0.4688300000000  0.4964900000000  0.5555260000000 1.0
C      1  0.5365930000000  0.5156040000000  0.4464660000000 1.0
C      1  0.4240020000000  0.5472220000000  0.4091450000000 1.0
C      1  0.4884800000000  0.3946530000000  0.4436830000000 1.0
C      1  0.5613000000000  0.4525680000000  0.5202350000000 1.0
C      1  0.4984290000000  0.4539020000000  0.4100910000000 1.0
C      1  0.5347000000000  0.4071840000000  0.4731890000000 1.0
C      1  0.4410570000000  0.4695000000000  0.6145060000000 1.0
C      1  0.4983230000000  0.4787730000000  0.4495030000000 1.0
C      1  0.4275410000000  0.5877630000000  0.4868720000000 1.0
C      1  0.4151260000000  0.5888570000000  0.4603840000000 1.0
C      1  0.5032220000000  0.4349350000000  0.4588130000000 1.0
C      1  0.5048910000000  0.4112280000000  0.5425720000000 1.0
C      1  0.4510320000000  0.4713130000000  0.4002740000000 1.0
C      1  0.5176070000000  0.5353700000000  0.4038210000000 1.0
C      1  0.5300120000000  0.4898410000000  0.4029380000000 1.0
C      1  0.5820840000000  0.5212890000000  0.5720590000000 1.0
C      1  0.5806920000000  0.4619980000000  0.4423370000000 1.0
C      1  0.4215230000000  0.5754300000000  0.4148560000000 1.0
C      1  0.5807340000000  0.5685640000000  0.4577480000000 1.0
C      1  0.4795610000000  0.4701400000000  0.4684140000000 1.0
C      1  0.4489390000000  0.4218560000000  0.5016110000000 1.0
C      1  0.4449810000000  0.5416720000000  0.3912320000000 1.0
C      1  0.5316960000000  0.4687790000000  0.5794260000000 1.0
C      1  0.5103750000000  0.5024090000000  0.4980480000000 1.0
C      1  0.4695560000000  0.4319590000000  0.6163400000000 1.0
C      1  0.5166840000000  0.4612420000000  0.3657100000000 1.0
C      1  0.5878620000000  0.4895410000000  0.4451010000000 1.0
C      1  0.4332190000000  0.5804070000000  0.5465900000000 1.0
C      1  0.4676570000000  0.4433120000000  0.5007360000000 1.0
C      1  0.5806050000000  0.4701110000000  0.6126310000000 1.0
C      1  0.4862600000000  0.4453640000000  0.4797560000000 1.0
C      1  0.5775650000000  0.4386880000000  0.4586890000000 1.0
C      1  0.5128290000000  0.5546000000000  0.5565330000000 1.0
C      1  0.4103830000000  0.4539430000000  0.4972110000000 1.0
C      1  0.4978830000000  0.4387650000000  0.5422100000000 1.0
C      1  0.5051150000000  0.6036680000000  0.4396230000000 1.0
C      1  0.5859850000000  0.5152960000000  0.5461350000000 1.0
C      1  0.5855930000000  0.4976560000000  0.6147470000000 1.0
C      1  0.5901070000000  0.5513660000000  0.4787720000000 1.0
C      1  0.4465910000000  0.4374490000000  0.5555120000000 1.0
C      1  0.4957870000000  0.5698400000000  0.5392450000000 1.0
C      1  0.4568960000000  0.5407360000000  0.5299010000000 1.0
C      1  0.4902420000000  0.3948900000000  0.5949490000000 1.0
C      1  0.5320040000000  0.5951200000000  0.4355660000000 1.0
C      1  0.4447100000000  0.5148210000000  0.4869250000000 1.0
C      1  0.4608000000000  0.3963390000000  0.5043350000000 1.0
C      1  0.5395430000000  0.4842710000000  0.5570000000000 1.0
C      1  0.6037860000000  0.5069700000000  0.6329770000000 1.0
C      1  0.4380820000000  0.4011050000000  0.4506990000000 1.0
C      1  0.4323340000000  0.5217260000000  0.5823540000000 1.0
C      1  0.4708000000000  0.4475020000000  0.5444390000000 1.0
C      1  0.4754370000000  0.5459220000000  0.6157880000000 1.0
C      1  0.4043860000000  0.5214500000000  0.5791940000000 1.0
C      1  0.4098180000000  0.4611810000000  0.5744990000000 1.0
C      1  0.4524820000000  0.5147030000000  0.5148580000000 1.0
C      1  0.5224190000000  0.5071100000000  0.5527560000000 1.0
C      1  0.4394780000000  0.5428360000000  0.4770620000000 1.0
C      1  0.5822280000000  0.5029830000000  0.4731500000000 1.0
C      1  0.5100340000000  0.4076390000000  0.4574970000000 1.0
C      1  0.6157610000000  0.4262380000000  0.4876610000000 1.0
C      1  0.6594470000000  0.3984860000000  0.4968350000000 1.0
C      1  0.5474230000000  0.5272550000000  0.6068310000000 1.0
C      1  0.5098800000000  0.3984180000000  0.5172860000000 1.0
C      1  0.5325840000000  0.5408320000000  0.5158260000000 1.0
C      1  0.4649720000000  0.4636650000000  0.5211070000000 1.0
C      1  0.5112480000000  0.4785650000000  0.5104400000000 1.0
C      1  0.5268780000000  0.5335230000000  0.5429350000000 1.0
C      1  0.5132190000000  0.4657060000000  0.5987000000000 1.0
END
