TITL C-3866676-3738-588 0.11988864835982 125000 -485.782653212662 0 0 80 (C1) n - 1
REM
REM in /home/nfs/bkarasulu/CARBON/AIRSS/Generating-Clusters/LCBOP/Only-C1/SD-CG/FIRE-CG
REM
REM
REM
REM
REM
REM ./C.cell (11c1c37f851c82e70ff6c80c92926a4b)
REM AIRSS Version 0.9.1 bugfix July 2018 build 013d7b7c2542+ Fri, 06 Jul 2018 19:26:36 +0100
REM compiler GCC version 9.2.1 20190827 (Red Hat 9.2.1-1)
REM options -cpp -mtune=generic -march=x86-64 -g -O0 -fpre-include=/usr/include/finclude/math-vector-fortran.h
REM seed -886446354 -535109341 -18057917 1684674270 -31221406 1307924683 1011789461 -360455000 763223953 -1812654773 1328558980 -84604676 -1365041648 1694341878 1599627652 -205351377 1559107753 -1041617717 -114359795 -1166512437 1720379076 -1345477938 -1607819259 -313013269 4725607 2100641554 571227831 -543762839 806746355 -2008922191 -675808555 -1778978332 -1114985985
REM
CELL 1.54180   50.00000   50.00000   50.00000   90.00000   90.00000   90.00000
LATT -1
SFAC C  
C      1  0.5379380000000  0.4354510000000  0.5404980000000 1.0
C      1  0.5170920000000  0.4778080000000  0.4758590000000 1.0
C      1  0.4588070000000  0.4506880000000  0.4360490000000 1.0
C      1  0.5205740000000  0.4206560000000  0.4523360000000 1.0
C      1  0.5690270000000  0.6010780000000  0.5614190000000 1.0
C      1  0.4918620000000  0.5544810000000  0.4037090000000 1.0
C      1  0.5133020000000  0.5560560000000  0.5480780000000 1.0
C      1  0.5184570000000  0.5658970000000  0.4879980000000 1.0
C      1  0.5153340000000  0.4367240000000  0.4297970000000 1.0
C      1  0.4537670000000  0.4038470000000  0.5512880000000 1.0
C      1  0.5907430000000  0.4901590000000  0.4835360000000 1.0
C      1  0.4426360000000  0.5595970000000  0.5339860000000 1.0
C      1  0.5725540000000  0.5062380000000  0.5520710000000 1.0
C      1  0.4144890000000  0.4351140000000  0.5501950000000 1.0
C      1  0.5868500000000  0.6384270000000  0.5862360000000 1.0
C      1  0.5073370000000  0.5903420000000  0.4805520000000 1.0
C      1  0.5044940000000  0.4908050000000  0.4542420000000 1.0
C      1  0.5870700000000  0.5392900000000  0.5017900000000 1.0
C      1  0.4698870000000  0.4898950000000  0.4055490000000 1.0
C      1  0.4182420000000  0.4939340000000  0.4022830000000 1.0
C      1  0.4355500000000  0.4752610000000  0.5659150000000 1.0
C      1  0.4856390000000  0.5237280000000  0.5728270000000 1.0
C      1  0.5907370000000  0.5167780000000  0.4853810000000 1.0
C      1  0.5395020000000  0.5645770000000  0.5070730000000 1.0
C      1  0.4934180000000  0.5063610000000  0.4125800000000 1.0
C      1  0.4916600000000  0.4028570000000  0.5208170000000 1.0
C      1  0.4187880000000  0.4733200000000  0.5205330000000 1.0
C      1  0.4907490000000  0.4353570000000  0.5571940000000 1.0
C      1  0.5831730000000  0.6615630000000  0.5976580000000 1.0
C      1  0.5341730000000  0.5692280000000  0.5347280000000 1.0
C      1  0.5259140000000  0.4968770000000  0.4959950000000 1.0
C      1  0.5650460000000  0.5563320000000  0.4988290000000 1.0
C      1  0.4266590000000  0.5479990000000  0.5161550000000 1.0
C      1  0.5994300000000  0.5385360000000  0.5271970000000 1.0
C      1  0.5087840000000  0.5413340000000  0.4771640000000 1.0
C      1  0.4005150000000  0.4803350000000  0.4169720000000 1.0
C      1  0.5312850000000  0.4876550000000  0.5226660000000 1.0
C      1  0.5086710000000  0.4729430000000  0.5326620000000 1.0
C      1  0.4843990000000  0.5089630000000  0.5113160000000 1.0
C      1  0.5018180000000  0.4081880000000  0.4967070000000 1.0
C      1  0.5520060000000  0.4946520000000  0.5397900000000 1.0
C      1  0.4200060000000  0.4624060000000  0.5462890000000 1.0
C      1  0.4796780000000  0.4121790000000  0.5445280000000 1.0
C      1  0.4963750000000  0.5335430000000  0.4216470000000 1.0
C      1  0.5103350000000  0.4865270000000  0.4268470000000 1.0
C      1  0.3988640000000  0.4627980000000  0.4371350000000 1.0
C      1  0.5131340000000  0.4478030000000  0.5449970000000 1.0
C      1  0.5373820000000  0.3991600000000  0.4503630000000 1.0
C      1  0.4744170000000  0.4623690000000  0.4156140000000 1.0
C      1  0.5601160000000  0.4351440000000  0.5256250000000 1.0
C      1  0.4782160000000  0.5014240000000  0.4589920000000 1.0
C      1  0.5765510000000  0.4459850000000  0.5076440000000 1.0
C      1  0.4227970000000  0.5282340000000  0.4987540000000 1.0
C      1  0.5923690000000  0.5238840000000  0.5486000000000 1.0
C      1  0.4512800000000  0.4609880000000  0.4853790000000 1.0
C      1  0.5503890000000  0.5870920000000  0.5488510000000 1.0
C      1  0.4650430000000  0.5595360000000  0.5482940000000 1.0
C      1  0.4151140000000  0.4500770000000  0.4542990000000 1.0
C      1  0.4325690000000  0.4797830000000  0.4971450000000 1.0
C      1  0.5066980000000  0.5195250000000  0.4957090000000 1.0
C      1  0.5019410000000  0.4542650000000  0.4833000000000 1.0
C      1  0.4429960000000  0.4509300000000  0.4595280000000 1.0
C      1  0.5906610000000  0.6136000000000  0.5739440000000 1.0
C      1  0.5037960000000  0.5398260000000  0.4488500000000 1.0
C      1  0.4962000000000  0.6128310000000  0.4735300000000 1.0
C      1  0.5864580000000  0.4653350000000  0.4922310000000 1.0
C      1  0.5033230000000  0.4594500000000  0.4191900000000 1.0
C      1  0.4442980000000  0.4979220000000  0.3978950000000 1.0
C      1  0.4762060000000  0.4515480000000  0.5750860000000 1.0
C      1  0.4750330000000  0.5002870000000  0.5797790000000 1.0
C      1  0.4843480000000  0.4806260000000  0.5185030000000 1.0
C      1  0.5085090000000  0.4274300000000  0.4773080000000 1.0
C      1  0.4618510000000  0.4758420000000  0.5758790000000 1.0
C      1  0.6152800000000  0.6016790000000  0.5741600000000 1.0
C      1  0.4884650000000  0.5469960000000  0.5573300000000 1.0
C      1  0.4285080000000  0.4124520000000  0.5525570000000 1.0
C      1  0.4871010000000  0.5739780000000  0.3870860000000 1.0
C      1  0.4339940000000  0.5060530000000  0.4860820000000 1.0
C      1  0.4775160000000  0.4617570000000  0.4970800000000 1.0
C      1  0.4538100000000  0.5094040000000  0.4663380000000 1.0
END
