TITL C-3866670-4165-89 0.12211385046292 125000 -293.862935471128 0 0 50 (C1) n - 1
REM
REM in /home/nfs/bkarasulu/CARBON/AIRSS/Generating-Clusters/LCBOP/Only-C1/SD-CG/HFTN-CG/FIRE-CG
REM
REM
REM
REM
REM
REM ./C.cell (11c1c37f851c82e70ff6c80c92926a4b)
REM AIRSS Version 0.9.1 bugfix July 2018 build 013d7b7c2542+ Fri, 06 Jul 2018 19:26:36 +0100
REM compiler GCC version 9.2.1 20190827 (Red Hat 9.2.1-1)
REM options -cpp -mtune=generic -march=x86-64 -g -O0 -fpre-include=/usr/include/finclude/math-vector-fortran.h
REM seed 302022031 -105009077 696859762 -70192626 1036082396 -475851059 -1120169849 -1754473881 329508317 1319515214 -1286629773 916688231 -179496211 166170335 -897092303 -1183204846 1603317133 1665572768 1367025685 1452923525 901143674 1350868182 951702532 -1301823650 70231724 822374359 128852163 1902059347 594727951 1545378749 146752941 -1993308607 -1667297999
REM
CELL 1.54180   50.00000   50.00000   50.00000   90.00000   90.00000   90.00000
LATT -1
SFAC C  
C      1  0.4861380000000  0.5510420000000  0.4218760000000 1.0
C      1  0.4343190000000  0.4730740000000  0.4937130000000 1.0
C      1  0.5081740000000  0.5293580000000  0.5337940000000 1.0
C      1  0.5304020000000  0.5764530000000  0.5194950000000 1.0
C      1  0.4750330000000  0.4566700000000  0.5198440000000 1.0
C      1  0.4590000000000  0.5430610000000  0.4215940000000 1.0
C      1  0.4490960000000  0.4612220000000  0.5145260000000 1.0
C      1  0.4627670000000  0.4960580000000  0.5576240000000 1.0
C      1  0.4816530000000  0.5195470000000  0.4904380000000 1.0
C      1  0.5162930000000  0.4851410000000  0.5096460000000 1.0
C      1  0.5908040000000  0.4943470000000  0.5044260000000 1.0
C      1  0.4374340000000  0.5374500000000  0.4383430000000 1.0
C      1  0.4855900000000  0.5818930000000  0.4604130000000 1.0
C      1  0.6346180000000  0.4149240000000  0.5430240000000 1.0
C      1  0.4097780000000  0.5312510000000  0.4334400000000 1.0
C      1  0.4684070000000  0.4821800000000  0.4609940000000 1.0
C      1  0.5328800000000  0.4466420000000  0.4724600000000 1.0
C      1  0.4848360000000  0.5202790000000  0.5192260000000 1.0
C      1  0.4171530000000  0.5185290000000  0.4772510000000 1.0
C      1  0.5327500000000  0.4330570000000  0.4960250000000 1.0
C      1  0.3964210000000  0.5207610000000  0.4568050000000 1.0
C      1  0.5137460000000  0.4946700000000  0.4567000000000 1.0
C      1  0.5196680000000  0.5138230000000  0.5550160000000 1.0
C      1  0.5547040000000  0.4889170000000  0.5723030000000 1.0
C      1  0.5680800000000  0.4822740000000  0.5134730000000 1.0
C      1  0.5422880000000  0.4922980000000  0.5074080000000 1.0
C      1  0.4188500000000  0.4966940000000  0.4950050000000 1.0
C      1  0.4406820000000  0.5327710000000  0.4672440000000 1.0
C      1  0.3701580000000  0.5145240000000  0.4592610000000 1.0
C      1  0.5270120000000  0.4697190000000  0.4597730000000 1.0
C      1  0.4737970000000  0.5667240000000  0.4792220000000 1.0
C      1  0.5348410000000  0.4693910000000  0.5628910000000 1.0
C      1  0.4914300000000  0.5756650000000  0.4348260000000 1.0
C      1  0.4836520000000  0.4829970000000  0.5686960000000 1.0
C      1  0.5023820000000  0.4614610000000  0.5178070000000 1.0
C      1  0.5607200000000  0.5386770000000  0.5713690000000 1.0
C      1  0.4633600000000  0.5118830000000  0.5357780000000 1.0
C      1  0.5184890000000  0.5124420000000  0.4354300000000 1.0
C      1  0.5194230000000  0.5540350000000  0.5269800000000 1.0
C      1  0.5465270000000  0.5160900000000  0.5665540000000 1.0
C      1  0.5107330000000  0.4863120000000  0.5623560000000 1.0
C      1  0.5913350000000  0.4434930000000  0.5344810000000 1.0
C      1  0.5066280000000  0.5317980000000  0.4212200000000 1.0
C      1  0.4644250000000  0.5402120000000  0.4804640000000 1.0
C      1  0.5428720000000  0.4518650000000  0.5413620000000 1.0
C      1  0.6131400000000  0.4290800000000  0.5387930000000 1.0
C      1  0.5237830000000  0.4423580000000  0.5215760000000 1.0
C      1  0.5685390000000  0.4587070000000  0.5299370000000 1.0
C      1  0.4889500000000  0.4989880000000  0.4707620000000 1.0
C      1  0.4462370000000  0.4691930000000  0.4683570000000 1.0
END
