TITL C-3866674-3872-480 -0.132396826852008 125000 -755.515292831333 0 0 123 (C1) n - 1
REM
REM in /home/nfs/bkarasulu/CARBON/AIRSS/Generating-Clusters/LCBOP/Only-C1/SD-CG/FIRE-CG
REM
REM
REM
REM
REM
REM ./C.cell (11c1c37f851c82e70ff6c80c92926a4b)
REM AIRSS Version 0.9.1 bugfix July 2018 build 013d7b7c2542+ Fri, 06 Jul 2018 19:26:36 +0100
REM compiler GCC version 9.2.1 20190827 (Red Hat 9.2.1-1)
REM options -cpp -mtune=generic -march=x86-64 -g -O0 -fpre-include=/usr/include/finclude/math-vector-fortran.h
REM seed 1609083985 1915522699 1345148459 -127465271 2073444544 -479741170 -704315150 -1606706230 -545933817 1662611635 907860298 -768935941 985994882 1785355699 1124394244 -556705889 110508707 -8381414 1286421585 619887384 -2075810619 1631872912 2044248377 2067284829 -1654478384 -1729320720 -177359782 1943465471 -229794992 -1015666203 1111186618 550200268 -677692317
REM
CELL 1.54180   50.00000   50.00000   50.00000   90.00000   90.00000   90.00000
LATT -1
SFAC C  
C      1  0.4611870000000  0.4327690000000  0.5832060000000 1.0
C      1  0.4552480000000  0.3985660000000  0.5076560000000 1.0
C      1  0.4524260000000  0.5987450000000  0.4790520000000 1.0
C      1  0.4847820000000  0.4201930000000  0.4828300000000 1.0
C      1  0.4989100000000  0.4910440000000  0.5002280000000 1.0
C      1  0.4366600000000  0.5321740000000  0.4967680000000 1.0
C      1  0.5944920000000  0.5357630000000  0.5411990000000 1.0
C      1  0.5211380000000  0.5252140000000  0.5948020000000 1.0
C      1  0.4904600000000  0.4648890000000  0.5058350000000 1.0
C      1  0.4243680000000  0.5200470000000  0.4248070000000 1.0
C      1  0.5968750000000  0.5456580000000  0.5656690000000 1.0
C      1  0.4441680000000  0.5745290000000  0.5505550000000 1.0
C      1  0.4732860000000  0.5828400000000  0.4683290000000 1.0
C      1  0.4882240000000  0.4845570000000  0.5473560000000 1.0
C      1  0.4824480000000  0.5895150000000  0.3823820000000 1.0
C      1  0.4783390000000  0.4639280000000  0.5307080000000 1.0
C      1  0.5341580000000  0.5405580000000  0.4124340000000 1.0
C      1  0.4430390000000  0.5965770000000  0.5045430000000 1.0
C      1  0.4833450000000  0.4926760000000  0.4103300000000 1.0
C      1  0.5663670000000  0.5391950000000  0.6055040000000 1.0
C      1  0.4316330000000  0.5110100000000  0.5795740000000 1.0
C      1  0.4174340000000  0.5374760000000  0.5748540000000 1.0
C      1  0.4133200000000  0.4943240000000  0.4692860000000 1.0
C      1  0.5061800000000  0.4721130000000  0.5985610000000 1.0
C      1  0.4746390000000  0.5363310000000  0.5927940000000 1.0
C      1  0.5444840000000  0.5225260000000  0.6104090000000 1.0
C      1  0.5091840000000  0.5670780000000  0.5756570000000 1.0
C      1  0.3980090000000  0.5068790000000  0.4916770000000 1.0
C      1  0.5220040000000  0.4461590000000  0.4763570000000 1.0
C      1  0.3977960000000  0.4980570000000  0.5424150000000 1.0
C      1  0.5805360000000  0.3673260000000  0.4001870000000 1.0
C      1  0.6078860000000  0.5545890000000  0.4316740000000 1.0
C      1  0.5804270000000  0.3977690000000  0.4435080000000 1.0
C      1  0.4796990000000  0.5747620000000  0.4052470000000 1.0
C      1  0.4551790000000  0.4623460000000  0.4683010000000 1.0
C      1  0.4578770000000  0.5573900000000  0.4084010000000 1.0
C      1  0.5014900000000  0.5098770000000  0.3968010000000 1.0
C      1  0.4220960000000  0.5587280000000  0.5587340000000 1.0
C      1  0.5018580000000  0.4028760000000  0.5302530000000 1.0
C      1  0.5103110000000  0.4581470000000  0.4522260000000 1.0
C      1  0.5805930000000  0.5237140000000  0.5201240000000 1.0
C      1  0.5351750000000  0.6273040000000  0.4938820000000 1.0
C      1  0.5207600000000  0.5911050000000  0.4649400000000 1.0
C      1  0.4810740000000  0.4697830000000  0.4541460000000 1.0
C      1  0.4798230000000  0.5105530000000  0.5534290000000 1.0
C      1  0.4231560000000  0.4721000000000  0.5108170000000 1.0
C      1  0.4883510000000  0.4916030000000  0.6099400000000 1.0
C      1  0.4954000000000  0.5338700000000  0.4764440000000 1.0
C      1  0.4816260000000  0.5641020000000  0.5848970000000 1.0
C      1  0.5852510000000  0.5472490000000  0.4784920000000 1.0
C      1  0.5615230000000  0.4795410000000  0.5328800000000 1.0
C      1  0.4607730000000  0.4877470000000  0.6159860000000 1.0
C      1  0.4003840000000  0.4904130000000  0.5152270000000 1.0
C      1  0.4826030000000  0.4958380000000  0.4394680000000 1.0
C      1  0.5812140000000  0.3818220000000  0.4223590000000 1.0
C      1  0.5861010000000  0.5475170000000  0.5898580000000 1.0
C      1  0.5615860000000  0.4511490000000  0.5353230000000 1.0
C      1  0.5397310000000  0.5001350000000  0.4795920000000 1.0
C      1  0.5420940000000  0.4343790000000  0.5219160000000 1.0
C      1  0.4934030000000  0.5491870000000  0.5289230000000 1.0
C      1  0.5351640000000  0.5877590000000  0.5369410000000 1.0
C      1  0.5312600000000  0.6005830000000  0.4895380000000 1.0
C      1  0.4850420000000  0.4657700000000  0.4001800000000 1.0
C      1  0.4094730000000  0.5327430000000  0.4955840000000 1.0
C      1  0.4788090000000  0.5591380000000  0.4840420000000 1.0
C      1  0.5228810000000  0.5863410000000  0.5607330000000 1.0
C      1  0.4313950000000  0.4567580000000  0.5332440000000 1.0
C      1  0.5176090000000  0.5395460000000  0.5702960000000 1.0
C      1  0.5342840000000  0.4932840000000  0.4280290000000 1.0
C      1  0.4987620000000  0.5768130000000  0.4258770000000 1.0
C      1  0.4147300000000  0.5032070000000  0.4430290000000 1.0
C      1  0.4387470000000  0.4473820000000  0.5795460000000 1.0
C      1  0.4203120000000  0.4295410000000  0.4557590000000 1.0
C      1  0.5352660000000  0.4183320000000  0.3727980000000 1.0
C      1  0.5241200000000  0.4657520000000  0.4275240000000 1.0
C      1  0.4373220000000  0.4982320000000  0.6067090000000 1.0
C      1  0.5251610000000  0.5469320000000  0.4785020000000 1.0
C      1  0.5263920000000  0.4956780000000  0.5044920000000 1.0
C      1  0.5427440000000  0.5536570000000  0.5004710000000 1.0
C      1  0.5772370000000  0.3406770000000  0.3549870000000 1.0
C      1  0.5176650000000  0.4621620000000  0.5739030000000 1.0
C      1  0.5704070000000  0.4367810000000  0.4796230000000 1.0
C      1  0.4530780000000  0.5779760000000  0.5235280000000 1.0
C      1  0.4952080000000  0.5192490000000  0.6054030000000 1.0
C      1  0.5688390000000  0.5412150000000  0.5006130000000 1.0
C      1  0.5806510000000  0.4950540000000  0.5182600000000 1.0
C      1  0.4607850000000  0.5196020000000  0.5725000000000 1.0
C      1  0.5114500000000  0.4549650000000  0.4041490000000 1.0
C      1  0.5306340000000  0.5646510000000  0.4561090000000 1.0
C      1  0.5003180000000  0.5305400000000  0.5484860000000 1.0
C      1  0.4768800000000  0.3941820000000  0.5240050000000 1.0
C      1  0.5234610000000  0.4363600000000  0.3874530000000 1.0
C      1  0.4865650000000  0.4260340000000  0.5768760000000 1.0
C      1  0.5277270000000  0.5133970000000  0.4074650000000 1.0
C      1  0.5007940000000  0.5152140000000  0.4524100000000 1.0
C      1  0.5445720000000  0.4373920000000  0.4919600000000 1.0
C      1  0.5975780000000  0.5511000000000  0.4553620000000 1.0
C      1  0.5349940000000  0.4893180000000  0.5314610000000 1.0
C      1  0.4537010000000  0.5094100000000  0.4927010000000 1.0
C      1  0.4162480000000  0.4906360000000  0.5630640000000 1.0
C      1  0.5773400000000  0.4156640000000  0.4627950000000 1.0
C      1  0.4387830000000  0.4827950000000  0.4848590000000 1.0
C      1  0.5460560000000  0.5039690000000  0.6304800000000 1.0
C      1  0.5381040000000  0.5809010000000  0.5098420000000 1.0
C      1  0.4393020000000  0.5392610000000  0.4140810000000 1.0
C      1  0.4748230000000  0.5621870000000  0.5128020000000 1.0
C      1  0.4623040000000  0.5798580000000  0.5717150000000 1.0
C      1  0.5167590000000  0.4809960000000  0.5521850000000 1.0
C      1  0.4432850000000  0.4353740000000  0.4694180000000 1.0
C      1  0.4253960000000  0.4637460000000  0.5605580000000 1.0
C      1  0.5933490000000  0.4807450000000  0.4975610000000 1.0
C      1  0.5789890000000  0.3537620000000  0.3774670000000 1.0
C      1  0.4571670000000  0.4157050000000  0.4847240000000 1.0
C      1  0.4986270000000  0.4423000000000  0.4916890000000 1.0
C      1  0.4571000000000  0.4465120000000  0.5319940000000 1.0
C      1  0.5880380000000  0.4583250000000  0.4838550000000 1.0
C      1  0.5111790000000  0.4352610000000  0.5651850000000 1.0
C      1  0.5231420000000  0.5605650000000  0.4285830000000 1.0
C      1  0.5199610000000  0.4234170000000  0.5392580000000 1.0
C      1  0.4818740000000  0.5124470000000  0.4936820000000 1.0
C      1  0.5287790000000  0.5049750000000  0.4537520000000 1.0
C      1  0.4642630000000  0.4524120000000  0.3887820000000 1.0
C      1  0.4945320000000  0.5911510000000  0.4513710000000 1.0
END
