TITL C-3866670-4165-412 -5.09482110949711e-07 125000 -596.372869365369 0 0 96 (C1) n - 1
REM
REM in /home/nfs/bkarasulu/CARBON/AIRSS/Generating-Clusters/LCBOP/Only-C1/SD-CG/FIRE-CG
REM
REM
REM
REM
REM
REM ./C.cell (11c1c37f851c82e70ff6c80c92926a4b)
REM AIRSS Version 0.9.1 bugfix July 2018 build 013d7b7c2542+ Fri, 06 Jul 2018 19:26:36 +0100
REM compiler GCC version 9.2.1 20190827 (Red Hat 9.2.1-1)
REM options -cpp -mtune=generic -march=x86-64 -g -O0 -fpre-include=/usr/include/finclude/math-vector-fortran.h
REM seed 720629841 -741220642 -15174208 1325825004 659682579 192922916 -1747297620 548081053 896856888 -186310416 2128969034 -601488751 -1093722037 1720547745 16575783 1615926474 -1564804508 -835612808 -1289240728 -346746201 -731737721 -429170648 1915253090 1749679085 -2126972955 -468738624 286296805 1062611219 -1686728323 -131488216 -1571818050 -125102754 677216216
REM
CELL 1.54180   50.00000   50.00000   50.00000   90.00000   90.00000   90.00000
LATT -1
SFAC C  
C      1  0.4774600000000  0.4503120000000  0.4911130000000 1.0
C      1  0.5118200000000  0.5068580000000  0.4084100000000 1.0
C      1  0.5313380000000  0.5726070000000  0.5455920000000 1.0
C      1  0.5262210000000  0.4707510000000  0.5726060000000 1.0
C      1  0.4839860000000  0.4854970000000  0.4611110000000 1.0
C      1  0.4274540000000  0.4194030000000  0.5415350000000 1.0
C      1  0.5534980000000  0.5097780000000  0.4254920000000 1.0
C      1  0.5303820000000  0.5261120000000  0.4194830000000 1.0
C      1  0.4739600000000  0.5388140000000  0.4201730000000 1.0
C      1  0.4136670000000  0.4747380000000  0.4815270000000 1.0
C      1  0.5117490000000  0.5906800000000  0.4992320000000 1.0
C      1  0.5272020000000  0.4587700000000  0.4111040000000 1.0
C      1  0.5133030000000  0.5845090000000  0.4680770000000 1.0
C      1  0.5237760000000  0.4851510000000  0.5970410000000 1.0
C      1  0.4152960000000  0.4917950000000  0.5298020000000 1.0
C      1  0.4655670000000  0.4105760000000  0.5093890000000 1.0
C      1  0.5326730000000  0.4707530000000  0.5098310000000 1.0
C      1  0.5500340000000  0.4297580000000  0.5286790000000 1.0
C      1  0.5291200000000  0.4263930000000  0.4526920000000 1.0
C      1  0.4367690000000  0.4728400000000  0.4664110000000 1.0
C      1  0.5258390000000  0.4974410000000  0.5136120000000 1.0
C      1  0.5300040000000  0.5935650000000  0.5236310000000 1.0
C      1  0.5196930000000  0.5399210000000  0.4961750000000 1.0
C      1  0.4701530000000  0.5040070000000  0.5629540000000 1.0
C      1  0.4568010000000  0.5754490000000  0.5481420000000 1.0
C      1  0.5587750000000  0.5748710000000  0.4899630000000 1.0
C      1  0.5288350000000  0.5134900000000  0.5976260000000 1.0
C      1  0.4682400000000  0.4076260000000  0.4796780000000 1.0
C      1  0.4557020000000  0.4949000000000  0.4647810000000 1.0
C      1  0.4789430000000  0.4361250000000  0.5162950000000 1.0
C      1  0.5344000000000  0.3977990000000  0.4912350000000 1.0
C      1  0.4834250000000  0.5751820000000  0.5392830000000 1.0
C      1  0.5790270000000  0.5290810000000  0.4752840000000 1.0
C      1  0.4494150000000  0.5184880000000  0.5759870000000 1.0
C      1  0.4513800000000  0.4897690000000  0.4115320000000 1.0
C      1  0.4572540000000  0.5273030000000  0.6017030000000 1.0
C      1  0.5256760000000  0.4344440000000  0.4258010000000 1.0
C      1  0.5049090000000  0.5650310000000  0.5556710000000 1.0
C      1  0.5559610000000  0.5124050000000  0.4762830000000 1.0
C      1  0.4168630000000  0.4700540000000  0.5476710000000 1.0
C      1  0.4361930000000  0.5593220000000  0.5544000000000 1.0
C      1  0.5049060000000  0.4788420000000  0.6175290000000 1.0
C      1  0.4879250000000  0.4984800000000  0.6262190000000 1.0
C      1  0.4640970000000  0.5405810000000  0.4966560000000 1.0
C      1  0.5512600000000  0.5519880000000  0.5500410000000 1.0
C      1  0.4049650000000  0.4853780000000  0.5043960000000 1.0
C      1  0.5329070000000  0.5150890000000  0.4932230000000 1.0
C      1  0.5482210000000  0.4746880000000  0.5543790000000 1.0
C      1  0.4930950000000  0.5560810000000  0.4329590000000 1.0
C      1  0.4197640000000  0.4435560000000  0.5501060000000 1.0
C      1  0.4628740000000  0.4347510000000  0.4699250000000 1.0
C      1  0.4931440000000  0.5170700000000  0.5532740000000 1.0
C      1  0.5456720000000  0.4573760000000  0.5310830000000 1.0
C      1  0.5014540000000  0.5399340000000  0.5688710000000 1.0
C      1  0.4554760000000  0.5169650000000  0.4226510000000 1.0
C      1  0.5685780000000  0.4507820000000  0.4733060000000 1.0
C      1  0.4435630000000  0.4046730000000  0.5258460000000 1.0
C      1  0.4489230000000  0.5601220000000  0.4813610000000 1.0
C      1  0.4882560000000  0.5764270000000  0.4536450000000 1.0
C      1  0.5077890000000  0.4795340000000  0.4159380000000 1.0
C      1  0.4905070000000  0.5744850000000  0.5115500000000 1.0
C      1  0.5654500000000  0.4980630000000  0.5493470000000 1.0
C      1  0.5450700000000  0.4081490000000  0.5135790000000 1.0
C      1  0.4633570000000  0.5788170000000  0.4661710000000 1.0
C      1  0.4444150000000  0.5158070000000  0.4490520000000 1.0
C      1  0.4898780000000  0.4445860000000  0.5409910000000 1.0
C      1  0.5082610000000  0.5058260000000  0.5332370000000 1.0
C      1  0.4608560000000  0.4656340000000  0.4262910000000 1.0
C      1  0.5409610000000  0.4466470000000  0.4691470000000 1.0
C      1  0.5809900000000  0.5508740000000  0.4588410000000 1.0
C      1  0.4234200000000  0.5523300000000  0.4724880000000 1.0
C      1  0.5230730000000  0.4614740000000  0.4852720000000 1.0
C      1  0.5348390000000  0.5707220000000  0.4504840000000 1.0
C      1  0.5065580000000  0.5317370000000  0.5958780000000 1.0
C      1  0.5871420000000  0.4626190000000  0.4886880000000 1.0
C      1  0.4959200000000  0.4685640000000  0.4805790000000 1.0
C      1  0.5412570000000  0.5579760000000  0.5017420000000 1.0
C      1  0.5516400000000  0.4680490000000  0.4000270000000 1.0
C      1  0.4301520000000  0.5160170000000  0.5324060000000 1.0
C      1  0.5869940000000  0.4918940000000  0.5315990000000 1.0
C      1  0.5612990000000  0.5711170000000  0.4617600000000 1.0
C      1  0.4874440000000  0.4748310000000  0.4344000000000 1.0
C      1  0.4918010000000  0.5474960000000  0.5004780000000 1.0
C      1  0.5592290000000  0.5260240000000  0.5529490000000 1.0
C      1  0.5531970000000  0.4996480000000  0.4516880000000 1.0
C      1  0.4917370000000  0.3962480000000  0.4685020000000 1.0
C      1  0.5221670000000  0.5509010000000  0.4317510000000 1.0
C      1  0.4327960000000  0.5313160000000  0.5567400000000 1.0
C      1  0.4219190000000  0.5308020000000  0.4564070000000 1.0
C      1  0.4490320000000  0.5227310000000  0.5122610000000 1.0
C      1  0.5191220000000  0.4039680000000  0.4680090000000 1.0
C      1  0.5633080000000  0.4919150000000  0.4057240000000 1.0
C      1  0.4489100000000  0.4514960000000  0.4504740000000 1.0
C      1  0.5043840000000  0.4554060000000  0.5612330000000 1.0
C      1  0.5938190000000  0.4779890000000  0.5096430000000 1.0
C      1  0.4834640000000  0.5231530000000  0.6121980000000 1.0
END
