TITL C-3866671-3735-517 0.0382994450156711 125000 -789.460262788835 0 0 130 (C1) n - 1
REM
REM in /home/nfs/bkarasulu/CARBON/AIRSS/Generating-Clusters/LCBOP/Only-C1/SD-CG/FIRE-CG
REM
REM
REM
REM
REM
REM ./C.cell (11c1c37f851c82e70ff6c80c92926a4b)
REM AIRSS Version 0.9.1 bugfix July 2018 build 013d7b7c2542+ Fri, 06 Jul 2018 19:26:36 +0100
REM compiler GCC version 9.2.1 20190827 (Red Hat 9.2.1-1)
REM options -cpp -mtune=generic -march=x86-64 -g -O0 -fpre-include=/usr/include/finclude/math-vector-fortran.h
REM seed -413160556 -1295038686 -2043551896 809013393 -1731179311 -1987349392 -48089063 1056370147 -1034203295 -1417832243 -798871161 -52599754 555103471 1254839545 -136268371 -720490368 1158189388 683674598 1792697634 589757398 1160024591 350848579 1598468778 2025563927 -1566184162 -1952847186 1187677143 -479791905 -134508069 -240943533 -1088681492 -537742199 -1032797887
REM
CELL 1.54180   50.00000   50.00000   50.00000   90.00000   90.00000   90.00000
LATT -1
SFAC C  
C      1  0.5067100000000  0.5537800000000  0.4286870000000 1.0
C      1  0.4664590000000  0.4930550000000  0.4808870000000 1.0
C      1  0.4275090000000  0.4405000000000  0.4360900000000 1.0
C      1  0.4916440000000  0.5015740000000  0.4915620000000 1.0
C      1  0.5255680000000  0.4750660000000  0.4487340000000 1.0
C      1  0.5246590000000  0.4331860000000  0.4162780000000 1.0
C      1  0.4637360000000  0.5320290000000  0.4591650000000 1.0
C      1  0.5477890000000  0.4519110000000  0.4096630000000 1.0
C      1  0.4664690000000  0.5124020000000  0.6044750000000 1.0
C      1  0.4988060000000  0.4682350000000  0.4458600000000 1.0
C      1  0.4329030000000  0.4929710000000  0.5187410000000 1.0
C      1  0.5491210000000  0.5813040000000  0.4362080000000 1.0
C      1  0.3891060000000  0.5736180000000  0.6245490000000 1.0
C      1  0.4335720000000  0.5373250000000  0.4979310000000 1.0
C      1  0.4736690000000  0.4361470000000  0.5823680000000 1.0
C      1  0.5373000000000  0.5222790000000  0.4991440000000 1.0
C      1  0.4915530000000  0.4784350000000  0.5427390000000 1.0
C      1  0.4461800000000  0.4807840000000  0.4134120000000 1.0
C      1  0.4950450000000  0.3986480000000  0.4807900000000 1.0
C      1  0.5942870000000  0.4569850000000  0.4574410000000 1.0
C      1  0.5446540000000  0.4617450000000  0.4642740000000 1.0
C      1  0.5427600000000  0.4786870000000  0.5390840000000 1.0
C      1  0.4907780000000  0.4729730000000  0.6090620000000 1.0
C      1  0.4182230000000  0.5329780000000  0.4362730000000 1.0
C      1  0.4244980000000  0.4396020000000  0.4644270000000 1.0
C      1  0.5332740000000  0.4127600000000  0.4365710000000 1.0
C      1  0.5445320000000  0.4813440000000  0.4082160000000 1.0
C      1  0.4248070000000  0.4661570000000  0.4241730000000 1.0
C      1  0.5454490000000  0.4158740000000  0.5111370000000 1.0
C      1  0.4474260000000  0.5329310000000  0.5575770000000 1.0
C      1  0.5667640000000  0.5848960000000  0.5088380000000 1.0
C      1  0.4643020000000  0.6114070000000  0.4712580000000 1.0
C      1  0.3959930000000  0.5991150000000  0.4827070000000 1.0
C      1  0.5944160000000  0.5458110000000  0.5018600000000 1.0
C      1  0.5700700000000  0.4338980000000  0.4147550000000 1.0
C      1  0.5367640000000  0.4960920000000  0.4328230000000 1.0
C      1  0.5140460000000  0.5144970000000  0.5916540000000 1.0
C      1  0.4682590000000  0.4085550000000  0.4716320000000 1.0
C      1  0.4810400000000  0.5549780000000  0.4955780000000 1.0
C      1  0.4622530000000  0.5009680000000  0.4251230000000 1.0
C      1  0.5695910000000  0.5204490000000  0.5503670000000 1.0
C      1  0.5722250000000  0.4933010000000  0.4822680000000 1.0
C      1  0.4279740000000  0.5638380000000  0.5905460000000 1.0
C      1  0.4726460000000  0.4567180000000  0.5385260000000 1.0
C      1  0.5360190000000  0.4930380000000  0.3840190000000 1.0
C      1  0.6059030000000  0.4332140000000  0.4614520000000 1.0
C      1  0.4278760000000  0.5561720000000  0.4763630000000 1.0
C      1  0.4687720000000  0.4573180000000  0.6000490000000 1.0
C      1  0.5854650000000  0.4240050000000  0.5371920000000 1.0
C      1  0.5525800000000  0.5147310000000  0.4765190000000 1.0
C      1  0.5674940000000  0.5480710000000  0.5432880000000 1.0
C      1  0.4190860000000  0.5121410000000  0.5019630000000 1.0
C      1  0.5121690000000  0.5141550000000  0.5029880000000 1.0
C      1  0.5745730000000  0.3979000000000  0.4765770000000 1.0
C      1  0.5215550000000  0.4056510000000  0.5228260000000 1.0
C      1  0.5380730000000  0.5011500000000  0.5836910000000 1.0
C      1  0.4083870000000  0.5689000000000  0.6076500000000 1.0
C      1  0.5677720000000  0.5835990000000  0.4574350000000 1.0
C      1  0.4446970000000  0.4991230000000  0.5919260000000 1.0
C      1  0.4803420000000  0.5486280000000  0.4174650000000 1.0
C      1  0.5942140000000  0.5781190000000  0.4530940000000 1.0
C      1  0.4433070000000  0.4705560000000  0.5963720000000 1.0
C      1  0.4872990000000  0.5818040000000  0.5024630000000 1.0
C      1  0.4404180000000  0.4182840000000  0.4776160000000 1.0
C      1  0.4657790000000  0.5280780000000  0.5361370000000 1.0
C      1  0.4145720000000  0.4667120000000  0.5576420000000 1.0
C      1  0.4763800000000  0.4286830000000  0.4531880000000 1.0
C      1  0.5484220000000  0.4055680000000  0.4838490000000 1.0
C      1  0.4049600000000  0.5097430000000  0.4344750000000 1.0
C      1  0.4353380000000  0.5089420000000  0.5665030000000 1.0
C      1  0.5004940000000  0.3959250000000  0.5085450000000 1.0
C      1  0.5632120000000  0.4648070000000  0.5236480000000 1.0
C      1  0.5268600000000  0.5727420000000  0.4238180000000 1.0
C      1  0.4829500000000  0.5056630000000  0.5415030000000 1.0
C      1  0.4881010000000  0.5425610000000  0.4704510000000 1.0
C      1  0.5365560000000  0.5192840000000  0.4514400000000 1.0
C      1  0.5109500000000  0.5725270000000  0.5457280000000 1.0
C      1  0.6009280000000  0.4946300000000  0.5236080000000 1.0
C      1  0.4712990000000  0.5727550000000  0.5696260000000 1.0
C      1  0.5979460000000  0.4089130000000  0.4694860000000 1.0
C      1  0.5131870000000  0.5043940000000  0.3758230000000 1.0
C      1  0.4432600000000  0.3893850000000  0.5385070000000 1.0
C      1  0.4568460000000  0.4107060000000  0.5448490000000 1.0
C      1  0.4484750000000  0.5565850000000  0.5731830000000 1.0
C      1  0.5796530000000  0.4593740000000  0.6386260000000 1.0
C      1  0.4258710000000  0.4901890000000  0.5463030000000 1.0
C      1  0.4660540000000  0.4566640000000  0.5106850000000 1.0
C      1  0.4898300000000  0.5130840000000  0.3854150000000 1.0
C      1  0.5953300000000  0.5093560000000  0.5455220000000 1.0
C      1  0.5714030000000  0.4714980000000  0.4638230000000 1.0
C      1  0.4075010000000  0.4822900000000  0.4403290000000 1.0
C      1  0.5350340000000  0.4529660000000  0.4885350000000 1.0
C      1  0.4925700000000  0.5009350000000  0.6046810000000 1.0
C      1  0.5802160000000  0.4831210000000  0.5084030000000 1.0
C      1  0.4886150000000  0.4520000000000  0.4937200000000 1.0
C      1  0.5663240000000  0.4734070000000  0.6211610000000 1.0
C      1  0.4707020000000  0.5923750000000  0.5482650000000 1.0
C      1  0.4564400000000  0.5628140000000  0.4268440000000 1.0
C      1  0.4220230000000  0.4579570000000  0.5823400000000 1.0
C      1  0.5751100000000  0.5583250000000  0.5168350000000 1.0
C      1  0.5378500000000  0.6121710000000  0.4814030000000 1.0
C      1  0.5636940000000  0.5683890000000  0.5628130000000 1.0
C      1  0.4407300000000  0.5488080000000  0.4491020000000 1.0
C      1  0.4870800000000  0.6031460000000  0.4837590000000 1.0
C      1  0.4684710000000  0.4340110000000  0.5548670000000 1.0
C      1  0.4619960000000  0.5041670000000  0.4542680000000 1.0
C      1  0.5618700000000  0.4113420000000  0.4291540000000 1.0
C      1  0.5252670000000  0.4049510000000  0.4644140000000 1.0
C      1  0.5098130000000  0.5414420000000  0.5848290000000 1.0
C      1  0.4871420000000  0.4516200000000  0.4650110000000 1.0
C      1  0.5120980000000  0.5380070000000  0.4528750000000 1.0
C      1  0.5138460000000  0.4571500000000  0.5058110000000 1.0
C      1  0.5586040000000  0.5932580000000  0.4827650000000 1.0
C      1  0.4514210000000  0.4789890000000  0.5016560000000 1.0
C      1  0.4117270000000  0.5786010000000  0.4794470000000 1.0
C      1  0.4988800000000  0.5621480000000  0.5699830000000 1.0
C      1  0.5165760000000  0.4714570000000  0.5309330000000 1.0
C      1  0.5641300000000  0.4352180000000  0.5234630000000 1.0
C      1  0.4602130000000  0.5408330000000  0.5108980000000 1.0
C      1  0.4922040000000  0.5874740000000  0.5294880000000 1.0
C      1  0.5631420000000  0.5948320000000  0.5566160000000 1.0
C      1  0.5526860000000  0.4874810000000  0.6033390000000 1.0
C      1  0.4997360000000  0.4415530000000  0.4067090000000 1.0
C      1  0.4072140000000  0.4731080000000  0.4676560000000 1.0
C      1  0.4759090000000  0.5210220000000  0.4085540000000 1.0
C      1  0.5116290000000  0.6157770000000  0.4794150000000 1.0
C      1  0.4030860000000  0.4945390000000  0.4857000000000 1.0
C      1  0.4895420000000  0.4630240000000  0.4194600000000 1.0
C      1  0.5646700000000  0.6030560000000  0.5307730000000 1.0
C      1  0.5487540000000  0.5011000000000  0.5569430000000 1.0
END
