TITL C-3866671-3735-540 0.000356152194757513 125000 -283.247690714428 0 0 48 (C1) n - 1
REM
REM in /home/nfs/bkarasulu/CARBON/AIRSS/Generating-Clusters/LCBOP/Only-C1/SD-CG/FIRE-CG
REM
REM
REM
REM
REM
REM ./C.cell (11c1c37f851c82e70ff6c80c92926a4b)
REM AIRSS Version 0.9.1 bugfix July 2018 build 013d7b7c2542+ Fri, 06 Jul 2018 19:26:36 +0100
REM compiler GCC version 9.2.1 20190827 (Red Hat 9.2.1-1)
REM options -cpp -mtune=generic -march=x86-64 -g -O0 -fpre-include=/usr/include/finclude/math-vector-fortran.h
REM seed 850769626 -1754773747 -1683560665 -548403470 -1261417275 -2139169331 1713082475 -781518266 -631137860 502597702 238000524 -1721970386 -11785763 -1898259244 -2034088378 713999214 -1638536961 778684465 -704834966 -1707559763 -379134473 635205722 -208514275 -248004085 1327687589 997431037 2085540674 -468687452 -1857991928 -524907814 1611660835 -1340139963 -377268977
REM
CELL 1.54180   50.00000   50.00000   50.00000   90.00000   90.00000   90.00000
LATT -1
SFAC C  
C      1  0.5616840000000  0.4430860000000  0.4928470000000 1.0
C      1  0.6366300000000  0.5235190000000  0.4522880000000 1.0
C      1  0.5985600000000  0.4787200000000  0.5200360000000 1.0
C      1  0.5363710000000  0.5059810000000  0.5817650000000 1.0
C      1  0.4745420000000  0.4549100000000  0.5118430000000 1.0
C      1  0.4811640000000  0.5160830000000  0.4942870000000 1.0
C      1  0.4782880000000  0.5346830000000  0.5546500000000 1.0
C      1  0.5059720000000  0.4869860000000  0.4638490000000 1.0
C      1  0.4359540000000  0.4721030000000  0.4220210000000 1.0
C      1  0.5039980000000  0.4593780000000  0.4571360000000 1.0
C      1  0.6155320000000  0.5166310000000  0.4659480000000 1.0
C      1  0.4245940000000  0.5348940000000  0.4569100000000 1.0
C      1  0.4827010000000  0.5022330000000  0.4696450000000 1.0
C      1  0.5175220000000  0.5245980000000  0.5807810000000 1.0
C      1  0.4597370000000  0.5209780000000  0.5390110000000 1.0
C      1  0.5795690000000  0.4633210000000  0.5351160000000 1.0
C      1  0.4201900000000  0.4952960000000  0.4279510000000 1.0
C      1  0.3856250000000  0.5295940000000  0.4306190000000 1.0
C      1  0.5666570000000  0.4425410000000  0.5207510000000 1.0
C      1  0.4321240000000  0.5194130000000  0.5468140000000 1.0
C      1  0.4606740000000  0.4718820000000  0.4365640000000 1.0
C      1  0.4002170000000  0.5438840000000  0.4486910000000 1.0
C      1  0.4200090000000  0.4944110000000  0.5413710000000 1.0
C      1  0.4362260000000  0.5108980000000  0.4476680000000 1.0
C      1  0.4606180000000  0.4968270000000  0.4527690000000 1.0
C      1  0.5783480000000  0.4617850000000  0.4795810000000 1.0
C      1  0.6217410000000  0.4880170000000  0.5310860000000 1.0
C      1  0.4184440000000  0.5406800000000  0.5583000000000 1.0
C      1  0.4945250000000  0.5411800000000  0.4961800000000 1.0
C      1  0.5481570000000  0.5367120000000  0.4909830000000 1.0
C      1  0.5717950000000  0.5263770000000  0.4848150000000 1.0
C      1  0.5919640000000  0.4830970000000  0.4924230000000 1.0
C      1  0.4065110000000  0.5611150000000  0.5692150000000 1.0
C      1  0.5225280000000  0.5414900000000  0.4958720000000 1.0
C      1  0.4975430000000  0.5426950000000  0.5732750000000 1.0
C      1  0.4802720000000  0.5645060000000  0.4971610000000 1.0
C      1  0.4680570000000  0.5045480000000  0.5167700000000 1.0
C      1  0.4325210000000  0.4745420000000  0.5278920000000 1.0
C      1  0.5111620000000  0.4413740000000  0.4778660000000 1.0
C      1  0.5932930000000  0.5088880000000  0.4808850000000 1.0
C      1  0.4826570000000  0.4545680000000  0.4390840000000 1.0
C      1  0.5544090000000  0.4877620000000  0.5749400000000 1.0
C      1  0.5377930000000  0.4339960000000  0.4818220000000 1.0
C      1  0.4925390000000  0.4401100000000  0.4989190000000 1.0
C      1  0.3952670000000  0.5061560000000  0.4206020000000 1.0
C      1  0.4968590000000  0.5678510000000  0.5839650000000 1.0
C      1  0.4587980000000  0.4771690000000  0.5175720000000 1.0
C      1  0.5696610000000  0.4725320000000  0.5594610000000 1.0
END
