TITL C-3866672-3872-61 -4.98839641023301e-07 125000 -38.8970892606601 0 0 8 (C2) n - 1
REM
REM in /home/nfs/bkarasulu/CARBON/AIRSS/Generating-Clusters/LCBOP/Only-C1/SD-CG/HFTN-CG/FIRE-CG
REM
REM
REM
REM
REM
REM ./C.cell (11c1c37f851c82e70ff6c80c92926a4b)
REM AIRSS Version 0.9.1 bugfix July 2018 build 013d7b7c2542+ Fri, 06 Jul 2018 19:26:36 +0100
REM compiler GCC version 9.2.1 20190827 (Red Hat 9.2.1-1)
REM options -cpp -mtune=generic -march=x86-64 -g -O0 -fpre-include=/usr/include/finclude/math-vector-fortran.h
REM seed 1473335077 1421972602 -570787671 -715450253 1451701954 -230652339 -1603575484 958115814 1074960486 741466164 1235987666 -522334183 1566181618 39946784 -1596480904 -709252918 1586856178 -466925330 -347686753 129396453 -1683074310 -39008525 -1050102372 1512491555 -195751968 1220663659 -1935057489 1371545439 -1213212888 1822675325 -1526687434 -1813811619 -1336507062
REM
CELL 1.54180   50.00000   50.00000   50.00000   90.00000   90.00000   90.00000
LATT -1
SFAC C  
C      1  0.4999050000000  0.4834070000000  0.4993110000000 1.0
C      1  0.4677820000000  0.5470880000000  0.5096640000000 1.0
C      1  0.4970260000000  0.5083500000000  0.4859560000000 1.0
C      1  0.4819120000000  0.5285500000000  0.4980070000000 1.0
C      1  0.5212240000000  0.4798730000000  0.5170500000000 1.0
C      1  0.5412170000000  0.4770790000000  0.5335330000000 1.0
C      1  0.5089470000000  0.5124280000000  0.4616680000000 1.0
C      1  0.4819880000000  0.4632240000000  0.4948120000000 1.0
END
