TITL C-3866670-4165-10 38.8004142510025 125000 -1159.3177220759 0 0 190 (C1) n - 1
REM
REM in /home/nfs/bkarasulu/CARBON/AIRSS/Generating-Clusters/LCBOP/Only-C1/SD-CG/HFTN-CG/FIRE-CG
REM
REM
REM
REM
REM
REM ./C.cell (11c1c37f851c82e70ff6c80c92926a4b)
REM AIRSS Version 0.9.1 bugfix July 2018 build 013d7b7c2542+ Fri, 06 Jul 2018 19:26:36 +0100
REM compiler GCC version 9.2.1 20190827 (Red Hat 9.2.1-1)
REM options -cpp -mtune=generic -march=x86-64 -g -O0 -fpre-include=/usr/include/finclude/math-vector-fortran.h
REM seed 1387419977 906143313 697637870 -1899945828 223590570 735649718 196073458 -2139678953 -751150947 -1772571995 -1999446272 604022488 -1780923123 -961521532 349551226 -2030670885 1580239750 -1473998724 -1987348216 638477758 -1845930030 -935226204 432819100 130821667 -2116738126 1324548281 581496990 777609478 -271605295 -1331011 -687134105 -1112343010 1159782742
REM
CELL 1.54180   50.00000   50.00000   50.00000   90.00000   90.00000   90.00000
LATT -1
SFAC C  
C      1  0.4888260000000  0.5209350000000  0.5186780000000 1.0
C      1  0.4983360000000  0.5872610000000  0.4696250000000 1.0
C      1  0.4940850000000  0.5553510000000  0.5672760000000 1.0
C      1  0.5287420000000  0.5945100000000  0.5106530000000 1.0
C      1  0.4811740000000  0.6078620000000  0.5134760000000 1.0
C      1  0.5248870000000  0.5194660000000  0.6156630000000 1.0
C      1  0.4820020000000  0.4459540000000  0.4877030000000 1.0
C      1  0.5640840000000  0.5635300000000  0.4185080000000 1.0
C      1  0.6177470000000  0.5279330000000  0.4654550000000 1.0
C      1  0.4316930000000  0.4641310000000  0.4464060000000 1.0
C      1  0.5688060000000  0.4765520000000  0.5102150000000 1.0
C      1  0.5279450000000  0.4261180000000  0.5360740000000 1.0
C      1  0.4654220000000  0.4478590000000  0.5102490000000 1.0
C      1  0.5159160000000  0.5749120000000  0.3984940000000 1.0
C      1  0.4608130000000  0.5957080000000  0.5292450000000 1.0
C      1  0.4139360000000  0.4192150000000  0.5596780000000 1.0
C      1  0.4132450000000  0.5922410000000  0.5403550000000 1.0
C      1  0.5113500000000  0.5726100000000  0.4267690000000 1.0
C      1  0.4545600000000  0.5089130000000  0.4070020000000 1.0
C      1  0.5441080000000  0.4810580000000  0.5915090000000 1.0
C      1  0.4508240000000  0.4077320000000  0.5282260000000 1.0
C      1  0.4080930000000  0.4777830000000  0.4534740000000 1.0
C      1  0.5205490000000  0.4098510000000  0.3610420000000 1.0
C      1  0.5844490000000  0.5446430000000  0.4295360000000 1.0
C      1  0.4528180000000  0.5291920000000  0.5636680000000 1.0
C      1  0.5348100000000  0.4763800000000  0.4394420000000 1.0
C      1  0.4776040000000  0.4488940000000  0.5888760000000 1.0
C      1  0.4633110000000  0.4880630000000  0.5379990000000 1.0
C      1  0.4920200000000  0.3836720000000  0.4988140000000 1.0
C      1  0.5573370000000  0.6008200000000  0.4514770000000 1.0
C      1  0.5969100000000  0.5430620000000  0.5438160000000 1.0
C      1  0.5883850000000  0.4690330000000  0.5673460000000 1.0
C      1  0.5238370000000  0.5489390000000  0.5309510000000 1.0
C      1  0.4162480000000  0.5248190000000  0.4332210000000 1.0
C      1  0.5522700000000  0.5340490000000  0.4709210000000 1.0
C      1  0.4223670000000  0.5689030000000  0.4569250000000 1.0
C      1  0.5478220000000  0.5047170000000  0.6077220000000 1.0
C      1  0.5074790000000  0.5824320000000  0.5585960000000 1.0
C      1  0.5820650000000  0.3783000000000  0.4899610000000 1.0
C      1  0.4302370000000  0.6340680000000  0.4839070000000 1.0
C      1  0.5234640000000  0.5777880000000  0.5339520000000 1.0
C      1  0.5213190000000  0.4702730000000  0.5069050000000 1.0
C      1  0.4301640000000  0.4590050000000  0.5765170000000 1.0
C      1  0.4096780000000  0.4779220000000  0.5105100000000 1.0
C      1  0.5750910000000  0.5173490000000  0.4273420000000 1.0
C      1  0.4314810000000  0.4187260000000  0.4715460000000 1.0
C      1  0.3550350000000  0.4850770000000  0.5149190000000 1.0
C      1  0.4741060000000  0.4594800000000  0.6150370000000 1.0
C      1  0.5779750000000  0.5882890000000  0.5194170000000 1.0
C      1  0.4291040000000  0.4932610000000  0.4986370000000 1.0
C      1  0.5481990000000  0.4230250000000  0.4947330000000 1.0
C      1  0.4353020000000  0.6084960000000  0.4834770000000 1.0
C      1  0.5522770000000  0.3901320000000  0.5866480000000 1.0
C      1  0.5929630000000  0.5681510000000  0.5045430000000 1.0
C      1  0.5170040000000  0.4883450000000  0.4886890000000 1.0
C      1  0.5035030000000  0.5566680000000  0.6374210000000 1.0
C      1  0.3719320000000  0.4774860000000  0.5375590000000 1.0
C      1  0.5033060000000  0.5176200000000  0.4342240000000 1.0
C      1  0.4927680000000  0.4589880000000  0.4655750000000 1.0
C      1  0.6175320000000  0.4568440000000  0.5077820000000 1.0
C      1  0.5271790000000  0.3939010000000  0.5774860000000 1.0
C      1  0.4579780000000  0.4734650000000  0.4383270000000 1.0
C      1  0.4879220000000  0.5804740000000  0.3897830000000 1.0
C      1  0.5630640000000  0.4302190000000  0.4165790000000 1.0
C      1  0.5723910000000  0.5181120000000  0.6077920000000 1.0
C      1  0.4716800000000  0.5545360000000  0.4429870000000 1.0
C      1  0.6088030000000  0.4268590000000  0.4528640000000 1.0
C      1  0.6091560000000  0.4383870000000  0.5294280000000 1.0
C      1  0.4964890000000  0.4557620000000  0.5461490000000 1.0
C      1  0.4333200000000  0.4344330000000  0.4477920000000 1.0
C      1  0.4651230000000  0.6002910000000  0.4318580000000 1.0
C      1  0.4637630000000  0.5822420000000  0.4075300000000 1.0
C      1  0.5220220000000  0.4047280000000  0.4105810000000 1.0
C      1  0.5484820000000  0.3915720000000  0.4500940000000 1.0
C      1  0.4801770000000  0.5090800000000  0.4151140000000 1.0
C      1  0.5881970000000  0.4917570000000  0.5507940000000 1.0
C      1  0.5113540000000  0.5973130000000  0.4436770000000 1.0
C      1  0.5723800000000  0.4091360000000  0.5807790000000 1.0
C      1  0.4263680000000  0.5099570000000  0.4105170000000 1.0
C      1  0.4392040000000  0.6047370000000  0.5454790000000 1.0
C      1  0.4982110000000  0.5479230000000  0.4344620000000 1.0
C      1  0.5202050000000  0.4124970000000  0.5594820000000 1.0
C      1  0.5158350000000  0.5051980000000  0.5565990000000 1.0
C      1  0.5663650000000  0.4625110000000  0.5847810000000 1.0
C      1  0.5094820000000  0.4344430000000  0.3592010000000 1.0
C      1  0.4524110000000  0.3985700000000  0.4770500000000 1.0
C      1  0.4374910000000  0.4865210000000  0.5804690000000 1.0
C      1  0.3608510000000  0.4994990000000  0.4918780000000 1.0
C      1  0.4456990000000  0.5016400000000  0.5573170000000 1.0
C      1  0.5701720000000  0.4322650000000  0.4826590000000 1.0
C      1  0.5937430000000  0.5424540000000  0.5159760000000 1.0
C      1  0.5663410000000  0.4915570000000  0.5328990000000 1.0
C      1  0.5097410000000  0.5362540000000  0.5097550000000 1.0
C      1  0.4992150000000  0.5074980000000  0.4654970000000 1.0
C      1  0.5252650000000  0.3959610000000  0.3837720000000 1.0
C      1  0.5173600000000  0.4578300000000  0.4517360000000 1.0
C      1  0.4060220000000  0.5092370000000  0.4580680000000 1.0
C      1  0.4294140000000  0.5950090000000  0.5915080000000 1.0
C      1  0.4261940000000  0.5520520000000  0.4341660000000 1.0
C      1  0.6035190000000  0.4471930000000  0.4358340000000 1.0
C      1  0.4725900000000  0.4609270000000  0.5336950000000 1.0
C      1  0.5034910000000  0.6009060000000  0.4965820000000 1.0
C      1  0.5840640000000  0.5994000000000  0.5440250000000 1.0
C      1  0.5758630000000  0.4991980000000  0.4506390000000 1.0
C      1  0.5736720000000  0.3903940000000  0.4650710000000 1.0
C      1  0.4219260000000  0.4324870000000  0.4950320000000 1.0
C      1  0.5414320000000  0.5004930000000  0.5409770000000 1.0
C      1  0.6235890000000  0.5032120000000  0.4774790000000 1.0
C      1  0.4639500000000  0.3921900000000  0.5055060000000 1.0
C      1  0.5632550000000  0.4738930000000  0.4433730000000 1.0
C      1  0.3943270000000  0.6027180000000  0.5228450000000 1.0
C      1  0.4067460000000  0.5696650000000  0.5573380000000 1.0
C      1  0.4000680000000  0.5442830000000  0.5469800000000 1.0
C      1  0.4694200000000  0.5825110000000  0.4584210000000 1.0
C      1  0.4478590000000  0.5613480000000  0.4985280000000 1.0
C      1  0.3915760000000  0.4613390000000  0.4703300000000 1.0
C      1  0.6130570000000  0.5022880000000  0.5459500000000 1.0
C      1  0.4970470000000  0.4167110000000  0.4167210000000 1.0
C      1  0.4980810000000  0.4490880000000  0.3787750000000 1.0
C      1  0.5567470000000  0.5977930000000  0.5018290000000 1.0
C      1  0.5455880000000  0.4092580000000  0.4268120000000 1.0
C      1  0.4775040000000  0.4817490000000  0.4572160000000 1.0
C      1  0.5504180000000  0.5134570000000  0.4130350000000 1.0
C      1  0.4534160000000  0.4950300000000  0.5110620000000 1.0
C      1  0.5914870000000  0.5731100000000  0.4755340000000 1.0
C      1  0.4051600000000  0.4463290000000  0.5663400000000 1.0
C      1  0.5877520000000  0.6114720000000  0.5668260000000 1.0
C      1  0.4538760000000  0.4277280000000  0.4291120000000 1.0
C      1  0.5869570000000  0.4162080000000  0.4665600000000 1.0
C      1  0.5938480000000  0.3907080000000  0.5113950000000 1.0
C      1  0.5168170000000  0.5361200000000  0.5571340000000 1.0
C      1  0.5049280000000  0.5395200000000  0.6161000000000 1.0
C      1  0.3989850000000  0.5186550000000  0.5392630000000 1.0
C      1  0.5406460000000  0.5573660000000  0.4615970000000 1.0
C      1  0.6066110000000  0.4503700000000  0.5557460000000 1.0
C      1  0.4903730000000  0.5026120000000  0.5404380000000 1.0
C      1  0.4588120000000  0.5670640000000  0.5253880000000 1.0
C      1  0.3959950000000  0.4918650000000  0.5310040000000 1.0
C      1  0.4620230000000  0.5265670000000  0.5921680000000 1.0
C      1  0.3985820000000  0.5595080000000  0.6048900000000 1.0
C      1  0.4735050000000  0.3932160000000  0.4568210000000 1.0
C      1  0.5710950000000  0.5964070000000  0.4755320000000 1.0
C      1  0.4434240000000  0.4157440000000  0.5564620000000 1.0
C      1  0.4967850000000  0.3828470000000  0.4698830000000 1.0
C      1  0.5533680000000  0.5739410000000  0.4426370000000 1.0
C      1  0.5182260000000  0.4821270000000  0.5777880000000 1.0
C      1  0.5672450000000  0.4350170000000  0.5915300000000 1.0
C      1  0.5860270000000  0.5206520000000  0.4993030000000 1.0
C      1  0.3542200000000  0.6164450000000  0.4917860000000 1.0
C      1  0.3737690000000  0.6097400000000  0.5076740000000 1.0
C      1  0.3804930000000  0.4576160000000  0.5566860000000 1.0
C      1  0.4662780000000  0.5185380000000  0.5028320000000 1.0
C      1  0.4534650000000  0.4390650000000  0.5747690000000 1.0
C      1  0.5336370000000  0.6146980000000  0.4457390000000 1.0
C      1  0.4463620000000  0.5344410000000  0.4901270000000 1.0
C      1  0.6221470000000  0.4793360000000  0.4919210000000 1.0
C      1  0.4662530000000  0.5510130000000  0.5495640000000 1.0
C      1  0.4251010000000  0.5160010000000  0.4811920000000 1.0
C      1  0.4032290000000  0.4541990000000  0.4954360000000 1.0
C      1  0.5881190000000  0.5345480000000  0.5939810000000 1.0
C      1  0.4429290000000  0.4317110000000  0.5136190000000 1.0
C      1  0.5715930000000  0.5143120000000  0.4753690000000 1.0
C      1  0.4862790000000  0.5423400000000  0.5947200000000 1.0
C      1  0.4425920000000  0.6101230000000  0.5731410000000 1.0
C      1  0.5699300000000  0.4283770000000  0.3898080000000 1.0
C      1  0.4897720000000  0.4429300000000  0.4048260000000 1.0
C      1  0.4991630000000  0.4606640000000  0.5736580000000 1.0
C      1  0.6002010000000  0.5508900000000  0.4554500000000 1.0
C      1  0.5160160000000  0.3878390000000  0.5125700000000 1.0
C      1  0.5882850000000  0.4049560000000  0.5575930000000 1.0
C      1  0.4517300000000  0.5010190000000  0.6023430000000 1.0
C      1  0.4666760000000  0.4528440000000  0.4186660000000 1.0
C      1  0.5983250000000  0.4108720000000  0.5311330000000 1.0
C      1  0.5186890000000  0.4521450000000  0.5293330000000 1.0
C      1  0.5145120000000  0.5608460000000  0.4716690000000 1.0
C      1  0.5279750000000  0.5014540000000  0.4259940000000 1.0
C      1  0.3772420000000  0.5103800000000  0.4725830000000 1.0
C      1  0.4437760000000  0.5812700000000  0.4756720000000 1.0
C      1  0.5055510000000  0.5375750000000  0.4821930000000 1.0
C      1  0.5332180000000  0.4099690000000  0.5140550000000 1.0
C      1  0.4743890000000  0.4076870000000  0.4326800000000 1.0
C      1  0.4093330000000  0.4981500000000  0.3926870000000 1.0
C      1  0.4515380000000  0.5581660000000  0.4208440000000 1.0
C      1  0.5234800000000  0.3812500000000  0.4599840000000 1.0
C      1  0.4639480000000  0.4838840000000  0.6211270000000 1.0
C      1  0.4110770000000  0.5740810000000  0.5855240000000 1.0
C      1  0.5063200000000  0.6053210000000  0.5731040000000 1.0
C      1  0.5760190000000  0.4519540000000  0.4306500000000 1.0
C      1  0.5953180000000  0.5443480000000  0.5703360000000 1.0
C      1  0.5449400000000  0.5680480000000  0.3961840000000 1.0
END
