TITL C-3866675-3766-619 -3.19798222741367 125000 -520.195568036689 0 0 86 (C1) n - 1
REM
REM in /home/nfs/bkarasulu/CARBON/AIRSS/Generating-Clusters/LCBOP/Only-C1/SD-CG/FIRE-CG
REM
REM
REM
REM
REM
REM ./C.cell (11c1c37f851c82e70ff6c80c92926a4b)
REM AIRSS Version 0.9.1 bugfix July 2018 build 013d7b7c2542+ Fri, 06 Jul 2018 19:26:36 +0100
REM compiler GCC version 9.2.1 20190827 (Red Hat 9.2.1-1)
REM options -cpp -mtune=generic -march=x86-64 -g -O0 -fpre-include=/usr/include/finclude/math-vector-fortran.h
REM seed -1295353863 105657841 -662077798 -643988523 732387129 450297507 1701069248 -1938664790 1069723367 -1109012647 -755525887 -197513085 -1386823516 1823106115 988853093 -488292137 -1924189720 -428063570 2011789293 -708148522 -655691917 -19983170 -676005372 279640734 855726909 130276769 -612917185 256484657 -509777478 1021724574 -751707432 -1661544167 -1524075585
REM
CELL 1.54180   50.00000   50.00000   50.00000   90.00000   90.00000   90.00000
LATT -1
SFAC C  
C      1  0.4270070000000  0.4790740000000  0.4156920000000 1.0
C      1  0.4384760000000  0.5267710000000  0.5016520000000 1.0
C      1  0.5123720000000  0.5484660000000  0.4904480000000 1.0
C      1  0.4715250000000  0.5475640000000  0.3813160000000 1.0
C      1  0.6055910000000  0.5282480000000  0.5019920000000 1.0
C      1  0.5046560000000  0.5011130000000  0.4852650000000 1.0
C      1  0.5892080000000  0.5488380000000  0.4958020000000 1.0
C      1  0.5004650000000  0.4529780000000  0.4235010000000 1.0
C      1  0.5693610000000  0.4136590000000  0.4956540000000 1.0
C      1  0.5131490000000  0.5586280000000  0.5647910000000 1.0
C      1  0.4631310000000  0.4501940000000  0.4514240000000 1.0
C      1  0.4409360000000  0.5424110000000  0.5467670000000 1.0
C      1  0.5391100000000  0.5992830000000  0.5713580000000 1.0
C      1  0.5001430000000  0.4209220000000  0.5169350000000 1.0
C      1  0.4050550000000  0.4626280000000  0.4622570000000 1.0
C      1  0.5744130000000  0.4620950000000  0.4862740000000 1.0
C      1  0.5844960000000  0.4358460000000  0.4908990000000 1.0
C      1  0.4198500000000  0.5749120000000  0.5767060000000 1.0
C      1  0.4108260000000  0.4695930000000  0.4369790000000 1.0
C      1  0.4378380000000  0.4373210000000  0.4900770000000 1.0
C      1  0.5448580000000  0.5044610000000  0.5114840000000 1.0
C      1  0.4844500000000  0.4944820000000  0.5696220000000 1.0
C      1  0.5187170000000  0.5036760000000  0.4109000000000 1.0
C      1  0.4992620000000  0.4880960000000  0.6348130000000 1.0
C      1  0.5012180000000  0.5253090000000  0.4198640000000 1.0
C      1  0.4560450000000  0.4422740000000  0.5112730000000 1.0
C      1  0.5407210000000  0.5572560000000  0.4949000000000 1.0
C      1  0.4801070000000  0.5196300000000  0.5265760000000 1.0
C      1  0.5651350000000  0.5343940000000  0.4569030000000 1.0
C      1  0.4745960000000  0.5572880000000  0.4597560000000 1.0
C      1  0.5308830000000  0.5747660000000  0.5802460000000 1.0
C      1  0.4906000000000  0.5473520000000  0.5778070000000 1.0
C      1  0.3991280000000  0.5886590000000  0.5845030000000 1.0
C      1  0.4351740000000  0.5373510000000  0.4776160000000 1.0
C      1  0.5176530000000  0.5535400000000  0.5373700000000 1.0
C      1  0.6057560000000  0.5019150000000  0.4956910000000 1.0
C      1  0.5094510000000  0.3809470000000  0.5439000000000 1.0
C      1  0.4669550000000  0.5621150000000  0.5809250000000 1.0
C      1  0.4947800000000  0.4222630000000  0.5648080000000 1.0
C      1  0.4419190000000  0.5602300000000  0.5683590000000 1.0
C      1  0.5872880000000  0.4879540000000  0.4794020000000 1.0
C      1  0.4135340000000  0.4510370000000  0.4851820000000 1.0
C      1  0.5185810000000  0.4565520000000  0.4801820000000 1.0
C      1  0.4854220000000  0.4711660000000  0.5864560000000 1.0
C      1  0.4715870000000  0.4543180000000  0.4245370000000 1.0
C      1  0.5014770000000  0.5499330000000  0.4639020000000 1.0
C      1  0.5133840000000  0.4303440000000  0.4697090000000 1.0
C      1  0.5386770000000  0.5653650000000  0.6054710000000 1.0
C      1  0.4841240000000  0.4937070000000  0.5406170000000 1.0
C      1  0.4501450000000  0.4296040000000  0.4653520000000 1.0
C      1  0.4871110000000  0.4446560000000  0.5771940000000 1.0
C      1  0.5156600000000  0.5407100000000  0.4407740000000 1.0
C      1  0.4822020000000  0.5359900000000  0.4026590000000 1.0
C      1  0.5425250000000  0.4871330000000  0.5319740000000 1.0
C      1  0.5321900000000  0.5046880000000  0.4861370000000 1.0
C      1  0.5454530000000  0.4952830000000  0.4625700000000 1.0
C      1  0.5103080000000  0.4312270000000  0.4411910000000 1.0
C      1  0.5167440000000  0.4137940000000  0.4936060000000 1.0
C      1  0.4890370000000  0.5196430000000  0.5811900000000 1.0
C      1  0.5407300000000  0.5633620000000  0.5232270000000 1.0
C      1  0.5373050000000  0.5503180000000  0.6273050000000 1.0
C      1  0.5234720000000  0.4685050000000  0.5360250000000 1.0
C      1  0.4249410000000  0.5310610000000  0.4134270000000 1.0
C      1  0.5141130000000  0.5077140000000  0.6448800000000 1.0
C      1  0.4478370000000  0.5496870000000  0.4559760000000 1.0
C      1  0.5437380000000  0.4049860000000  0.4973810000000 1.0
C      1  0.5649580000000  0.5506060000000  0.4809260000000 1.0
C      1  0.4954500000000  0.4690620000000  0.5304440000000 1.0
C      1  0.5455710000000  0.4605610000000  0.4882700000000 1.0
C      1  0.5019980000000  0.4071260000000  0.5420310000000 1.0
C      1  0.5282280000000  0.5300370000000  0.6418730000000 1.0
C      1  0.5450740000000  0.5176060000000  0.4134420000000 1.0
C      1  0.4512150000000  0.4656930000000  0.4088200000000 1.0
C      1  0.5003290000000  0.5393770000000  0.5176560000000 1.0
C      1  0.4883900000000  0.4754900000000  0.6140920000000 1.0
C      1  0.4351500000000  0.5482540000000  0.4310980000000 1.0
C      1  0.4226210000000  0.5053260000000  0.4068580000000 1.0
C      1  0.4833340000000  0.4451010000000  0.5189120000000 1.0
C      1  0.5718420000000  0.5059190000000  0.4619500000000 1.0
C      1  0.4527110000000  0.5285190000000  0.5254980000000 1.0
C      1  0.5175230000000  0.4766900000000  0.4218920000000 1.0
C      1  0.4614640000000  0.5589840000000  0.3601520000000 1.0
C      1  0.5450380000000  0.5368860000000  0.4361870000000 1.0
C      1  0.5372020000000  0.4776550000000  0.4426100000000 1.0
C      1  0.4723060000000  0.4705250000000  0.4683960000000 1.0
C      1  0.4969920000000  0.4752930000000  0.4794600000000 1.0
END
