TITL C-3866673-4222-753 -1.49237195988891e-06 125000 -509.4405202926 0 0 84 (C1) n - 1
REM
REM in /home/nfs/bkarasulu/CARBON/AIRSS/Generating-Clusters/LCBOP/Only-C1/SD-CG/FIRE-CG
REM
REM
REM
REM
REM
REM ./C.cell (11c1c37f851c82e70ff6c80c92926a4b)
REM AIRSS Version 0.9.1 bugfix July 2018 build 013d7b7c2542+ Fri, 06 Jul 2018 19:26:36 +0100
REM compiler GCC version 9.2.1 20190827 (Red Hat 9.2.1-1)
REM options -cpp -mtune=generic -march=x86-64 -g -O0 -fpre-include=/usr/include/finclude/math-vector-fortran.h
REM seed 433834131 1726223656 -1798837796 -1681466406 1819343278 595063213 243960445 2018926535 -169260658 756470174 2094592763 1806189655 1972644045 1804078167 -1499702862 -1352625150 1495075264 -1265632813 1371237138 2075903753 1078742845 496047744 452710996 849774560 -457150539 -629002713 -322141750 2117711669 700315002 95763092 -342894748 -2023589649 575790357
REM
CELL 1.54180   50.00000   50.00000   50.00000   90.00000   90.00000   90.00000
LATT -1
SFAC C  
C      1  0.5336270000000  0.5670410000000  0.4819600000000 1.0
C      1  0.4906000000000  0.5104460000000  0.5406980000000 1.0
C      1  0.5564380000000  0.4441270000000  0.4795310000000 1.0
C      1  0.5451610000000  0.4679340000000  0.5477570000000 1.0
C      1  0.4890490000000  0.5217330000000  0.4971900000000 1.0
C      1  0.5276940000000  0.4435540000000  0.5451760000000 1.0
C      1  0.5426630000000  0.4991230000000  0.4927640000000 1.0
C      1  0.4301630000000  0.4822250000000  0.5258950000000 1.0
C      1  0.4315150000000  0.4746970000000  0.5534750000000 1.0
C      1  0.5328790000000  0.4425630000000  0.4970170000000 1.0
C      1  0.4787630000000  0.4619050000000  0.5917950000000 1.0
C      1  0.5324090000000  0.4320290000000  0.4410140000000 1.0
C      1  0.4902140000000  0.4337900000000  0.4663690000000 1.0
C      1  0.4852290000000  0.5762260000000  0.5873390000000 1.0
C      1  0.4899510000000  0.5903340000000  0.4968030000000 1.0
C      1  0.4756250000000  0.5778240000000  0.5186270000000 1.0
C      1  0.4441310000000  0.4621400000000  0.4493920000000 1.0
C      1  0.5049340000000  0.4399460000000  0.4429620000000 1.0
C      1  0.4440700000000  0.4371460000000  0.4981550000000 1.0
C      1  0.4848090000000  0.5188060000000  0.4270030000000 1.0
C      1  0.4101860000000  0.5132970000000  0.4751990000000 1.0
C      1  0.5141550000000  0.4705290000000  0.4072930000000 1.0
C      1  0.5772570000000  0.5383260000000  0.5325310000000 1.0
C      1  0.5809200000000  0.4493320000000  0.4927920000000 1.0
C      1  0.5198020000000  0.4299350000000  0.5202240000000 1.0
C      1  0.5159620000000  0.5389990000000  0.5757330000000 1.0
C      1  0.4712130000000  0.4860370000000  0.5796780000000 1.0
C      1  0.5710130000000  0.4957360000000  0.4922390000000 1.0
C      1  0.4397770000000  0.4899860000000  0.4407840000000 1.0
C      1  0.4299360000000  0.5294020000000  0.5443760000000 1.0
C      1  0.4246480000000  0.5253990000000  0.4960610000000 1.0
C      1  0.6031690000000  0.4338480000000  0.4910610000000 1.0
C      1  0.4642640000000  0.4212430000000  0.5132950000000 1.0
C      1  0.5415820000000  0.4713710000000  0.4067150000000 1.0
C      1  0.4800000000000  0.5550150000000  0.4613140000000 1.0
C      1  0.4711780000000  0.5010570000000  0.4991760000000 1.0
C      1  0.5180600000000  0.5095370000000  0.5750100000000 1.0
C      1  0.4914200000000  0.5011800000000  0.5671140000000 1.0
C      1  0.5788970000000  0.4732330000000  0.5081750000000 1.0
C      1  0.4263000000000  0.5114650000000  0.5215370000000 1.0
C      1  0.5241180000000  0.4850270000000  0.4773660000000 1.0
C      1  0.4502940000000  0.5643010000000  0.5142000000000 1.0
C      1  0.5373360000000  0.4901900000000  0.5654990000000 1.0
C      1  0.5523660000000  0.4513420000000  0.4508760000000 1.0
C      1  0.5029560000000  0.4669810000000  0.4333620000000 1.0
C      1  0.5538800000000  0.5375070000000  0.5189340000000 1.0
C      1  0.5484560000000  0.5065100000000  0.4358090000000 1.0
C      1  0.4548800000000  0.5144310000000  0.4298100000000 1.0
C      1  0.5352220000000  0.5152320000000  0.5144050000000 1.0
C      1  0.5068780000000  0.5243290000000  0.5199550000000 1.0
C      1  0.5141730000000  0.4630800000000  0.4908880000000 1.0
C      1  0.4959340000000  0.4420640000000  0.5866550000000 1.0
C      1  0.5536590000000  0.4767450000000  0.4329370000000 1.0
C      1  0.4365370000000  0.5559690000000  0.5377100000000 1.0
C      1  0.4870960000000  0.4570220000000  0.4845910000000 1.0
C      1  0.4408370000000  0.5496830000000  0.4903620000000 1.0
C      1  0.5145880000000  0.4352870000000  0.5688120000000 1.0
C      1  0.4442490000000  0.4914940000000  0.5725330000000 1.0
C      1  0.4419410000000  0.5390350000000  0.4400210000000 1.0
C      1  0.5342200000000  0.5331950000000  0.4378600000000 1.0
C      1  0.4352570000000  0.5182060000000  0.5697440000000 1.0
C      1  0.4436920000000  0.4644480000000  0.5081890000000 1.0
C      1  0.4513980000000  0.5531810000000  0.4634100000000 1.0
C      1  0.4717170000000  0.5896150000000  0.6051510000000 1.0
C      1  0.4152020000000  0.4992470000000  0.4529240000000 1.0
C      1  0.5121110000000  0.5861930000000  0.4811320000000 1.0
C      1  0.5723630000000  0.5395710000000  0.4678030000000 1.0
C      1  0.5085760000000  0.4872980000000  0.4535060000000 1.0
C      1  0.4953270000000  0.4104020000000  0.4819830000000 1.0
C      1  0.5931580000000  0.4688470000000  0.5540010000000 1.0
C      1  0.5129900000000  0.5535830000000  0.5239610000000 1.0
C      1  0.4935280000000  0.5631650000000  0.4371590000000 1.0
C      1  0.4677700000000  0.4741950000000  0.4965160000000 1.0
C      1  0.4406950000000  0.4418830000000  0.4685090000000 1.0
C      1  0.5720360000000  0.4701010000000  0.5362420000000 1.0
C      1  0.5459010000000  0.5496410000000  0.4608400000000 1.0
C      1  0.4939700000000  0.5673330000000  0.5395380000000 1.0
C      1  0.4937780000000  0.4160840000000  0.5108750000000 1.0
C      1  0.4982480000000  0.5612830000000  0.5676530000000 1.0
C      1  0.4932630000000  0.5098850000000  0.4528730000000 1.0
C      1  0.5836230000000  0.5171590000000  0.4785730000000 1.0
C      1  0.5066080000000  0.5402610000000  0.4239590000000 1.0
C      1  0.5376890000000  0.5595010000000  0.5098850000000 1.0
C      1  0.4918170000000  0.5309780000000  0.4717590000000 1.0
END
