TITL C-3866670-4165-47 92254.1537723914 125000 -1009.17709994779 0 0 163 (C1) n - 1
REM
REM in /home/nfs/bkarasulu/CARBON/AIRSS/Generating-Clusters/LCBOP/Only-C1/SD-CG/HFTN-CG/FIRE-CG
REM
REM
REM
REM
REM
REM ./C.cell (11c1c37f851c82e70ff6c80c92926a4b)
REM AIRSS Version 0.9.1 bugfix July 2018 build 013d7b7c2542+ Fri, 06 Jul 2018 19:26:36 +0100
REM compiler GCC version 9.2.1 20190827 (Red Hat 9.2.1-1)
REM options -cpp -mtune=generic -march=x86-64 -g -O0 -fpre-include=/usr/include/finclude/math-vector-fortran.h
REM seed -1502073587 -566984222 -980654101 -1752801286 171780639 595875520 1566255486 -1056596250 338762958 1320567861 -450075405 2015899475 123140055 -574938475 -1786647132 402939555 156932344 -935720515 -1043099320 -1612407108 310311543 463842396 -583761758 1145268990 1057103651 445141065 -1381897129 -115810158 1007139349 -686251633 433828389 1658904991 1914317564
REM
CELL 1.54180   50.00000   50.00000   50.00000   90.00000   90.00000   90.00000
LATT -1
SFAC C  
C      1  0.5329220000000  0.4258510000000  0.5954660000000 1.0
C      1  0.5182650000000  0.3942630000000  0.5273370000000 1.0
C      1  0.4482360000000  0.4589500000000  0.4001920000000 1.0
C      1  0.3899910000000  0.5396540000000  0.5173070000000 1.0
C      1  0.6240180000000  0.5221220000000  0.3547040000000 1.0
C      1  0.4829400000000  0.3849700000000  0.4935130000000 1.0
C      1  0.3938650000000  0.4583050000000  0.4582950000000 1.0
C      1  0.5041950000000  0.5492520000000  0.5556310000000 1.0
C      1  0.4320510000000  0.5251110000000  0.5045230000000 1.0
C      1  0.4436720000000  0.5108920000000  0.4616660000000 1.0
C      1  0.4245190000000  0.4818970000000  0.5345080000000 1.0
C      1  0.4195820000000  0.5777460000000  0.4442930000000 1.0
C      1  0.4953820000000  0.4419440000000  0.4176450000000 1.0
C      1  0.4561690000000  0.4192760000000  0.4681540000000 1.0
C      1  0.5432550000000  0.4652720000000  0.4502500000000 1.0
C      1  0.5220440000000  0.4796000000000  0.3967980000000 1.0
C      1  0.4103950000000  0.4958950000000  0.3997660000000 1.0
C      1  0.5804050000000  0.5090040000000  0.4817080000000 1.0
C      1  0.5731540000000  0.5723780000000  0.4821220000000 1.0
C      1  0.5834290000000  0.4371640000000  0.6180620000000 1.0
C      1  0.6083460000000  0.4692040000000  0.5269280000000 1.0
C      1  0.4601740000000  0.4072270000000  0.5747480000000 1.0
C      1  0.4711000000000  0.4577090000000  0.5171570000000 1.0
C      1  0.5053710000000  0.5331520000000  0.6155120000000 1.0
C      1  0.5495700000000  0.4704950000000  0.6051970000000 1.0
C      1  0.4241530000000  0.4609570000000  0.5141870000000 1.0
C      1  0.4456850000000  0.4891770000000  0.6078590000000 1.0
C      1  0.5500840000000  0.4711970000000  0.4766830000000 1.0
C      1  0.5065860000000  0.4282700000000  0.4402240000000 1.0
C      1  0.5111470000000  0.3905910000000  0.5001040000000 1.0
C      1  0.5029120000000  0.4653270000000  0.5872610000000 1.0
C      1  0.4508000000000  0.6109850000000  0.5030410000000 1.0
C      1  0.5725660000000  0.4240820000000  0.4706790000000 1.0
C      1  0.6203860000000  0.4756410000000  0.5780710000000 1.0
C      1  0.4015840000000  0.4962630000000  0.5415410000000 1.0
C      1  0.5373470000000  0.5341230000000  0.4832570000000 1.0
C      1  0.5578450000000  0.4582080000000  0.4999530000000 1.0
C      1  0.3536910000000  0.5196240000000  0.4900770000000 1.0
C      1  0.5195020000000  0.4516210000000  0.4028040000000 1.0
C      1  0.5172260000000  0.4503670000000  0.5243290000000 1.0
C      1  0.4858310000000  0.4876940000000  0.4423600000000 1.0
C      1  0.5340330000000  0.5699710000000  0.4219600000000 1.0
C      1  0.5394460000000  0.4668370000000  0.5194480000000 1.0
C      1  0.4772460000000  0.3972200000000  0.5549360000000 1.0
C      1  0.5279540000000  0.4534520000000  0.5963410000000 1.0
C      1  0.5312470000000  0.5883000000000  0.4430730000000 1.0
C      1  0.4959910000000  0.4888200000000  0.6013470000000 1.0
C      1  0.4756020000000  0.5816670000000  0.4495250000000 1.0
C      1  0.4689550000000  0.5221570000000  0.4628880000000 1.0
C      1  0.5505050000000  0.3884310000000  0.5648770000000 1.0
C      1  0.5296410000000  0.5616530000000  0.5605900000000 1.0
C      1  0.5087590000000  0.5217640000000  0.5485270000000 1.0
C      1  0.4485920000000  0.4562920000000  0.4995360000000 1.0
C      1  0.5447740000000  0.4040020000000  0.5858310000000 1.0
C      1  0.4692520000000  0.4670850000000  0.5450640000000 1.0
C      1  0.3432450000000  0.4951700000000  0.4866390000000 1.0
C      1  0.5966630000000  0.4781150000000  0.5961290000000 1.0
C      1  0.4537080000000  0.5630420000000  0.4116410000000 1.0
C      1  0.4394110000000  0.5895580000000  0.5476670000000 1.0
C      1  0.4327860000000  0.5812290000000  0.4689210000000 1.0
C      1  0.4666400000000  0.3763870000000  0.5390040000000 1.0
C      1  0.4904820000000  0.4564420000000  0.5627050000000 1.0
C      1  0.5446980000000  0.4365670000000  0.4048030000000 1.0
C      1  0.4095980000000  0.4800920000000  0.4505340000000 1.0
C      1  0.5774860000000  0.5988050000000  0.4776920000000 1.0
C      1  0.5182420000000  0.5566690000000  0.6074630000000 1.0
C      1  0.5462000000000  0.6366690000000  0.4858220000000 1.0
C      1  0.5191660000000  0.5820810000000  0.4679760000000 1.0
C      1  0.5040270000000  0.4920860000000  0.3803600000000 1.0
C      1  0.6350250000000  0.5001960000000  0.5841280000000 1.0
C      1  0.5670750000000  0.5173900000000  0.6051410000000 1.0
C      1  0.5621990000000  0.5440410000000  0.3934300000000 1.0
C      1  0.4609680000000  0.5149040000000  0.5427830000000 1.0
C      1  0.4759140000000  0.3995700000000  0.4697110000000 1.0
C      1  0.4767410000000  0.6152630000000  0.4879850000000 1.0
C      1  0.5797490000000  0.5134320000000  0.5114630000000 1.0
C      1  0.5526380000000  0.4973330000000  0.5613430000000 1.0
C      1  0.5564480000000  0.5700620000000  0.4039390000000 1.0
C      1  0.5219380000000  0.5431470000000  0.4183860000000 1.0
C      1  0.5697990000000  0.4860860000000  0.3899610000000 1.0
C      1  0.4788950000000  0.5321640000000  0.4866650000000 1.0
C      1  0.5221130000000  0.6359130000000  0.4984390000000 1.0
C      1  0.5576080000000  0.5331660000000  0.5307000000000 1.0
C      1  0.5766250000000  0.4606870000000  0.6059380000000 1.0
C      1  0.5933540000000  0.5067450000000  0.6040230000000 1.0
C      1  0.4706300000000  0.5009840000000  0.6080360000000 1.0
C      1  0.5777990000000  0.4918170000000  0.5539240000000 1.0
C      1  0.4340600000000  0.4123510000000  0.5774400000000 1.0
C      1  0.4377510000000  0.4854180000000  0.4500400000000 1.0
C      1  0.5361390000000  0.5730120000000  0.5121390000000 1.0
C      1  0.4876530000000  0.5133330000000  0.5311150000000 1.0
C      1  0.4719260000000  0.5586640000000  0.4922560000000 1.0
C      1  0.5468440000000  0.6120770000000  0.4442040000000 1.0
C      1  0.4310170000000  0.5619180000000  0.5429140000000 1.0
C      1  0.4499130000000  0.4887040000000  0.5461330000000 1.0
C      1  0.5222810000000  0.5137610000000  0.4979480000000 1.0
C      1  0.4964680000000  0.4551020000000  0.5057010000000 1.0
C      1  0.4549360000000  0.4473200000000  0.4719560000000 1.0
C      1  0.6007640000000  0.5180150000000  0.3681840000000 1.0
C      1  0.5438900000000  0.4194150000000  0.4684910000000 1.0
C      1  0.4776400000000  0.5632820000000  0.4271330000000 1.0
C      1  0.3496660000000  0.4701780000000  0.4795100000000 1.0
C      1  0.5176600000000  0.5071000000000  0.6097950000000 1.0
C      1  0.4535620000000  0.5431780000000  0.5475430000000 1.0
C      1  0.4114680000000  0.4161270000000  0.5637070000000 1.0
C      1  0.5507920000000  0.5579480000000  0.4918740000000 1.0
C      1  0.5009610000000  0.4097560000000  0.5449720000000 1.0
C      1  0.4590520000000  0.5708860000000  0.4704590000000 1.0
C      1  0.5615440000000  0.5432510000000  0.5947320000000 1.0
C      1  0.4011250000000  0.4241390000000  0.5404230000000 1.0
C      1  0.4793860000000  0.5585550000000  0.5442760000000 1.0
C      1  0.5232700000000  0.4011300000000  0.4760830000000 1.0
C      1  0.5176740000000  0.5889000000000  0.4962010000000 1.0
C      1  0.4287030000000  0.4767490000000  0.3943160000000 1.0
C      1  0.5809000000000  0.4257230000000  0.4425990000000 1.0
C      1  0.3794180000000  0.5313260000000  0.4909080000000 1.0
C      1  0.4498730000000  0.6091520000000  0.5317240000000 1.0
C      1  0.5840850000000  0.5387030000000  0.3772100000000 1.0
C      1  0.5418940000000  0.5256460000000  0.4047110000000 1.0
C      1  0.3695060000000  0.4554390000000  0.4691910000000 1.0
C      1  0.5037700000000  0.6141620000000  0.4998870000000 1.0
C      1  0.6192950000000  0.5180430000000  0.5983540000000 1.0
C      1  0.4245320000000  0.5219740000000  0.4788150000000 1.0
C      1  0.5660300000000  0.5074920000000  0.4550780000000 1.0
C      1  0.5412300000000  0.3841960000000  0.5400310000000 1.0
C      1  0.5066940000000  0.4376180000000  0.5474480000000 1.0
C      1  0.3948620000000  0.5055510000000  0.4464910000000 1.0
C      1  0.4079250000000  0.5616090000000  0.5239960000000 1.0
C      1  0.4863450000000  0.5162700000000  0.4414770000000 1.0
C      1  0.3956770000000  0.5096330000000  0.4181730000000 1.0
C      1  0.5909330000000  0.4924170000000  0.5286930000000 1.0
C      1  0.4618900000000  0.4664860000000  0.4468320000000 1.0
C      1  0.4782300000000  0.6091010000000  0.4589840000000 1.0
C      1  0.5455150000000  0.5601940000000  0.5364210000000 1.0
C      1  0.4288240000000  0.5696550000000  0.4201710000000 1.0
C      1  0.4227670000000  0.4767710000000  0.6079120000000 1.0
C      1  0.4062340000000  0.4398930000000  0.5193740000000 1.0
C      1  0.6213010000000  0.4642500000000  0.5521080000000 1.0
C      1  0.5546810000000  0.4875520000000  0.4359840000000 1.0
C      1  0.4952390000000  0.5395740000000  0.4271630000000 1.0
C      1  0.4793820000000  0.5686340000000  0.5175190000000 1.0
C      1  0.5604410000000  0.6195200000000  0.4681710000000 1.0
C      1  0.5454580000000  0.5271300000000  0.4575800000000 1.0
C      1  0.5011800000000  0.4629700000000  0.4803880000000 1.0
C      1  0.5671890000000  0.4292620000000  0.4188520000000 1.0
C      1  0.5006860000000  0.4058770000000  0.4566830000000 1.0
C      1  0.5795110000000  0.4403030000000  0.4942860000000 1.0
C      1  0.5315970000000  0.4392660000000  0.4498300000000 1.0
C      1  0.4671250000000  0.4511770000000  0.4202330000000 1.0
C      1  0.5466020000000  0.4950610000000  0.4071940000000 1.0
C      1  0.5448630000000  0.4988850000000  0.6092040000000 1.0
C      1  0.5911660000000  0.4926070000000  0.3753400000000 1.0
C      1  0.3884960000000  0.5190580000000  0.5367700000000 1.0
C      1  0.5335950000000  0.4950390000000  0.5172020000000 1.0
C      1  0.5364540000000  0.5117940000000  0.5422060000000 1.0
C      1  0.3975800000000  0.5226230000000  0.4699910000000 1.0
C      1  0.4945790000000  0.5172390000000  0.5036930000000 1.0
C      1  0.4271300000000  0.5971720000000  0.4914260000000 1.0
C      1  0.6030070000000  0.4484710000000  0.5079510000000 1.0
C      1  0.4071500000000  0.5855830000000  0.5081670000000 1.0
C      1  0.5387200000000  0.5584980000000  0.5877010000000 1.0
C      1  0.4669460000000  0.3723890000000  0.5124950000000 1.0
C      1  0.4770770000000  0.5278200000000  0.6166310000000 1.0
END
