TITL C-3866669-3764-672 -0.0359803865732693 125000 -544.578556494961 0 0 89 (C1) n - 1
REM
REM in /home/nfs/bkarasulu/CARBON/AIRSS/Generating-Clusters/LCBOP/Only-C1/SD-CG/FIRE-CG
REM
REM
REM
REM
REM
REM ./C.cell (11c1c37f851c82e70ff6c80c92926a4b)
REM AIRSS Version 0.9.1 bugfix July 2018 build 013d7b7c2542+ Fri, 06 Jul 2018 19:26:36 +0100
REM compiler GCC version 9.2.1 20190827 (Red Hat 9.2.1-1)
REM options -cpp -mtune=generic -march=x86-64 -g -O0 -fpre-include=/usr/include/finclude/math-vector-fortran.h
REM seed -82660609 821888196 1011917939 -582179071 1896203797 -720020371 -599361059 -501446613 -838029133 1989844228 -1643209403 767367848 489633111 2022374302 1328110224 587432790 -687069077 -1605006886 -1692189639 393781684 -59489633 -395748397 -412868752 -1479851418 -1243040809 548072196 1854688759 1588574097 1968637231 -769816894 -30484394 -1826674930 -1193700177
REM
CELL 1.54180   50.00000   50.00000   50.00000   90.00000   90.00000   90.00000
LATT -1
SFAC C  
C      1  0.5715910000000  0.4415360000000  0.5741020000000 1.0
C      1  0.4470890000000  0.5542020000000  0.4997260000000 1.0
C      1  0.5234920000000  0.4398520000000  0.5383330000000 1.0
C      1  0.5516790000000  0.4218310000000  0.5759610000000 1.0
C      1  0.4445730000000  0.6471670000000  0.5588110000000 1.0
C      1  0.5645100000000  0.5736420000000  0.5229230000000 1.0
C      1  0.5751140000000  0.5295830000000  0.5073850000000 1.0
C      1  0.4443950000000  0.5385840000000  0.4427070000000 1.0
C      1  0.4208270000000  0.4712580000000  0.4179660000000 1.0
C      1  0.5485230000000  0.5099150000000  0.4317370000000 1.0
C      1  0.5130080000000  0.5471560000000  0.5232560000000 1.0
C      1  0.5530810000000  0.4689360000000  0.4570830000000 1.0
C      1  0.4858100000000  0.4090730000000  0.4943110000000 1.0
C      1  0.5756820000000  0.4785230000000  0.5048550000000 1.0
C      1  0.4093080000000  0.5202150000000  0.4115320000000 1.0
C      1  0.5311070000000  0.4707380000000  0.5010220000000 1.0
C      1  0.4586130000000  0.6245900000000  0.5183090000000 1.0
C      1  0.4391620000000  0.4913310000000  0.4564870000000 1.0
C      1  0.4966130000000  0.4392470000000  0.5297900000000 1.0
C      1  0.4894560000000  0.5573790000000  0.4409010000000 1.0
C      1  0.4550280000000  0.5122500000000  0.4464080000000 1.0
C      1  0.5297510000000  0.3904350000000  0.5465870000000 1.0
C      1  0.4541460000000  0.6447420000000  0.5003220000000 1.0
C      1  0.3993520000000  0.5622690000000  0.4976220000000 1.0
C      1  0.4219810000000  0.5393740000000  0.4257390000000 1.0
C      1  0.4787020000000  0.5197200000000  0.5198080000000 1.0
C      1  0.4998480000000  0.5825040000000  0.5576610000000 1.0
C      1  0.5884990000000  0.4832380000000  0.4272520000000 1.0
C      1  0.5236580000000  0.5275400000000  0.5044340000000 1.0
C      1  0.4874820000000  0.5561250000000  0.5610810000000 1.0
C      1  0.4232990000000  0.5659100000000  0.5103640000000 1.0
C      1  0.5792900000000  0.4578120000000  0.5540050000000 1.0
C      1  0.4536760000000  0.5274700000000  0.5086810000000 1.0
C      1  0.4783800000000  0.5911430000000  0.4858830000000 1.0
C      1  0.5054160000000  0.5897680000000  0.4736170000000 1.0
C      1  0.4908930000000  0.5377650000000  0.5392860000000 1.0
C      1  0.4861650000000  0.4361740000000  0.5035870000000 1.0
C      1  0.5394080000000  0.4594620000000  0.5261020000000 1.0
C      1  0.5677060000000  0.4653090000000  0.5297230000000 1.0
C      1  0.4093590000000  0.4935320000000  0.4077900000000 1.0
C      1  0.5355140000000  0.4479990000000  0.4485010000000 1.0
C      1  0.5604250000000  0.4092730000000  0.4335530000000 1.0
C      1  0.5049860000000  0.4803970000000  0.4957140000000 1.0
C      1  0.5421660000000  0.4204320000000  0.4506300000000 1.0
C      1  0.4873250000000  0.3903610000000  0.4491780000000 1.0
C      1  0.5285370000000  0.5851840000000  0.5620800000000 1.0
C      1  0.4777010000000  0.3895070000000  0.5130160000000 1.0
C      1  0.5626330000000  0.3760260000000  0.5776970000000 1.0
C      1  0.5509210000000  0.5833680000000  0.5462700000000 1.0
C      1  0.4348620000000  0.5072830000000  0.5036120000000 1.0
C      1  0.4843940000000  0.4548180000000  0.4579870000000 1.0
C      1  0.5271170000000  0.5256300000000  0.4305260000000 1.0
C      1  0.5117230000000  0.5741560000000  0.5160380000000 1.0
C      1  0.5039060000000  0.3820680000000  0.5564650000000 1.0
C      1  0.4835620000000  0.3799230000000  0.5373940000000 1.0
C      1  0.4324760000000  0.6006080000000  0.5522930000000 1.0
C      1  0.5547900000000  0.4739480000000  0.4846970000000 1.0
C      1  0.5444550000000  0.3909190000000  0.4887240000000 1.0
C      1  0.4451350000000  0.6245180000000  0.5434210000000 1.0
C      1  0.5084990000000  0.4540200000000  0.4435310000000 1.0
C      1  0.4255090000000  0.5913080000000  0.6050000000000 1.0
C      1  0.4874920000000  0.4591730000000  0.4862350000000 1.0
C      1  0.4285140000000  0.4927760000000  0.4821520000000 1.0
C      1  0.5864660000000  0.5043220000000  0.5054540000000 1.0
C      1  0.5006190000000  0.4015080000000  0.4710760000000 1.0
C      1  0.4763330000000  0.6035790000000  0.5121500000000 1.0
C      1  0.5494190000000  0.5376630000000  0.4953830000000 1.0
C      1  0.5237780000000  0.3911190000000  0.6013320000000 1.0
C      1  0.5253190000000  0.5816900000000  0.4923450000000 1.0
C      1  0.5056170000000  0.5795460000000  0.4473560000000 1.0
C      1  0.4248660000000  0.5813220000000  0.5335860000000 1.0
C      1  0.4625560000000  0.5582280000000  0.4524100000000 1.0
C      1  0.4609210000000  0.5689070000000  0.4791190000000 1.0
C      1  0.4380240000000  0.4682010000000  0.4400850000000 1.0
C      1  0.5002820000000  0.5315030000000  0.4352130000000 1.0
C      1  0.5517980000000  0.3728010000000  0.5525140000000 1.0
C      1  0.5008810000000  0.5076780000000  0.5032750000000 1.0
C      1  0.5032110000000  0.3829760000000  0.5850240000000 1.0
C      1  0.4820290000000  0.5102330000000  0.4389320000000 1.0
C      1  0.5351990000000  0.4184200000000  0.5521970000000 1.0
C      1  0.4942670000000  0.5915960000000  0.5304790000000 1.0
C      1  0.5833160000000  0.5515130000000  0.5240680000000 1.0
C      1  0.4596190000000  0.4510230000000  0.4450200000000 1.0
C      1  0.5291060000000  0.4043940000000  0.4704180000000 1.0
C      1  0.5638810000000  0.4873790000000  0.4383570000000 1.0
C      1  0.5503790000000  0.5683690000000  0.4964550000000 1.0
C      1  0.4751230000000  0.3811860000000  0.4280600000000 1.0
C      1  0.4283310000000  0.5960430000000  0.5795290000000 1.0
C      1  0.5503450000000  0.3978040000000  0.5922970000000 1.0
END
