TITL C-3866673-4222-310 15.2459031249078 125000 -489.565732071725 0 0 83 (C1) n - 1
REM
REM in /home/nfs/bkarasulu/CARBON/AIRSS/Generating-Clusters/LCBOP/Only-C1/SD-CG/FIRE-CG
REM
REM
REM
REM
REM
REM ./C.cell (11c1c37f851c82e70ff6c80c92926a4b)
REM AIRSS Version 0.9.1 bugfix July 2018 build 013d7b7c2542+ Fri, 06 Jul 2018 19:26:36 +0100
REM compiler GCC version 9.2.1 20190827 (Red Hat 9.2.1-1)
REM options -cpp -mtune=generic -march=x86-64 -g -O0 -fpre-include=/usr/include/finclude/math-vector-fortran.h
REM seed -89919691 -887335732 -425031584 -1997464351 1106016426 1162755906 -1221718564 -306448458 527086025 -1988278600 -131847723 1127410567 -1103505121 -306217602 1808538157 1909643263 -504580655 1815757067 1364146539 1382645328 1868917639 -2003802108 801412563 -1534076389 341205251 -1017034836 572185622 232577487 -766693133 2132744899 -699424800 1373302530 429971229
REM
CELL 1.54180   50.00000   50.00000   50.00000   90.00000   90.00000   90.00000
LATT -1
SFAC C  
C      1  0.4902030000000  0.4229390000000  0.5452450000000 1.0
C      1  0.5212900000000  0.4505970000000  0.6065750000000 1.0
C      1  0.5332130000000  0.4653850000000  0.5474650000000 1.0
C      1  0.4871410000000  0.5731720000000  0.5698160000000 1.0
C      1  0.5553710000000  0.5727530000000  0.4601830000000 1.0
C      1  0.5004540000000  0.3836060000000  0.5194450000000 1.0
C      1  0.4215580000000  0.4566230000000  0.5472920000000 1.0
C      1  0.5705450000000  0.4530110000000  0.5165320000000 1.0
C      1  0.4477320000000  0.4560030000000  0.5549220000000 1.0
C      1  0.3824390000000  0.5000070000000  0.3679180000000 1.0
C      1  0.5849840000000  0.4756170000000  0.5084700000000 1.0
C      1  0.5024300000000  0.5865620000000  0.5235150000000 1.0
C      1  0.4253020000000  0.5103090000000  0.5285080000000 1.0
C      1  0.5108360000000  0.4762820000000  0.5383780000000 1.0
C      1  0.4661610000000  0.5331930000000  0.4512650000000 1.0
C      1  0.4339420000000  0.5272670000000  0.5748300000000 1.0
C      1  0.5148290000000  0.4778400000000  0.6138950000000 1.0
C      1  0.4705410000000  0.5519640000000  0.5152410000000 1.0
C      1  0.5195150000000  0.6047120000000  0.4190580000000 1.0
C      1  0.5990620000000  0.5330650000000  0.6148790000000 1.0
C      1  0.5408740000000  0.4314300000000  0.5978510000000 1.0
C      1  0.5215100000000  0.5501420000000  0.4142400000000 1.0
C      1  0.5415420000000  0.4998300000000  0.4472760000000 1.0
C      1  0.4978190000000  0.4141590000000  0.4052150000000 1.0
C      1  0.4699330000000  0.4939560000000  0.5156210000000 1.0
C      1  0.5310000000000  0.4153600000000  0.5774160000000 1.0
C      1  0.4200720000000  0.5187710000000  0.5534480000000 1.0
C      1  0.5008740000000  0.5620960000000  0.4305450000000 1.0
C      1  0.4730690000000  0.5057630000000  0.4470880000000 1.0
C      1  0.5214440000000  0.5284930000000  0.4804680000000 1.0
C      1  0.5602020000000  0.5278690000000  0.5446570000000 1.0
C      1  0.4743940000000  0.5526650000000  0.4320370000000 1.0
C      1  0.3610690000000  0.5081910000000  0.3554270000000 1.0
C      1  0.5455970000000  0.5660050000000  0.4109730000000 1.0
C      1  0.4769860000000  0.5469010000000  0.5659860000000 1.0
C      1  0.5746050000000  0.5265670000000  0.5199890000000 1.0
C      1  0.4966760000000  0.4417620000000  0.5912860000000 1.0
C      1  0.4560490000000  0.5618660000000  0.4137930000000 1.0
C      1  0.4578240000000  0.4716290000000  0.5760690000000 1.0
C      1  0.4981740000000  0.5889030000000  0.5503810000000 1.0
C      1  0.4489090000000  0.4756330000000  0.4070640000000 1.0
C      1  0.4791600000000  0.4317870000000  0.3985050000000 1.0
C      1  0.5854490000000  0.5021300000000  0.5114390000000 1.0
C      1  0.5393940000000  0.4045120000000  0.4663010000000 1.0
C      1  0.4931410000000  0.4678390000000  0.4717010000000 1.0
C      1  0.5695050000000  0.5646840000000  0.4827710000000 1.0
C      1  0.4478910000000  0.5409420000000  0.4718600000000 1.0
C      1  0.5570730000000  0.4554800000000  0.5410740000000 1.0
C      1  0.5038750000000  0.4228340000000  0.5701450000000 1.0
C      1  0.5104900000000  0.5877760000000  0.4407760000000 1.0
C      1  0.5609870000000  0.4330350000000  0.4994360000000 1.0
C      1  0.4774270000000  0.4621270000000  0.5928430000000 1.0
C      1  0.5381770000000  0.4201070000000  0.4894850000000 1.0
C      1  0.4812500000000  0.5385830000000  0.5393970000000 1.0
C      1  0.4041650000000  0.4916880000000  0.3806200000000 1.0
C      1  0.4537550000000  0.5359410000000  0.4990250000000 1.0
C      1  0.5123660000000  0.5413460000000  0.5032420000000 1.0
C      1  0.4615000000000  0.5284800000000  0.5813850000000 1.0
C      1  0.5387160000000  0.5929770000000  0.4029890000000 1.0
C      1  0.5758290000000  0.5489420000000  0.5032110000000 1.0
C      1  0.4656530000000  0.4369500000000  0.5440320000000 1.0
C      1  0.4626250000000  0.4524900000000  0.3994780000000 1.0
C      1  0.5199210000000  0.5073880000000  0.4621700000000 1.0
C      1  0.4258910000000  0.4834730000000  0.3933520000000 1.0
C      1  0.5122310000000  0.4262760000000  0.5001920000000 1.0
C      1  0.4240430000000  0.5527430000000  0.4652550000000 1.0
C      1  0.5011360000000  0.4109790000000  0.5216940000000 1.0
C      1  0.5629260000000  0.5649170000000  0.4337050000000 1.0
C      1  0.4891080000000  0.4867850000000  0.6044940000000 1.0
C      1  0.5321610000000  0.5260010000000  0.5445750000000 1.0
C      1  0.5162700000000  0.4022330000000  0.4201090000000 1.0
C      1  0.4584050000000  0.4909570000000  0.4284080000000 1.0
C      1  0.4951530000000  0.4934090000000  0.4601910000000 1.0
C      1  0.4474730000000  0.5106980000000  0.5111950000000 1.0
C      1  0.4727380000000  0.5055210000000  0.5924690000000 1.0
C      1  0.5312550000000  0.3985890000000  0.4417250000000 1.0
C      1  0.5068960000000  0.5242780000000  0.5291080000000 1.0
C      1  0.5297470000000  0.5854510000000  0.4618260000000 1.0
C      1  0.4951160000000  0.5651240000000  0.5062400000000 1.0
C      1  0.5867090000000  0.5320370000000  0.5919450000000 1.0
C      1  0.5740330000000  0.5307400000000  0.5687180000000 1.0
C      1  0.4963380000000  0.4963200000000  0.5256730000000 1.0
C      1  0.4978520000000  0.4465310000000  0.4869800000000 1.0
END
