TITL C-3866670-4165-316 3249.73614774584 125000 -692.713310585066 0 0 113 (C1) n - 1
REM
REM in /home/nfs/bkarasulu/CARBON/AIRSS/Generating-Clusters/LCBOP/Only-C1/SD-CG/FIRE-CG
REM
REM
REM
REM
REM
REM ./C.cell (11c1c37f851c82e70ff6c80c92926a4b)
REM AIRSS Version 0.9.1 bugfix July 2018 build 013d7b7c2542+ Fri, 06 Jul 2018 19:26:36 +0100
REM compiler GCC version 9.2.1 20190827 (Red Hat 9.2.1-1)
REM options -cpp -mtune=generic -march=x86-64 -g -O0 -fpre-include=/usr/include/finclude/math-vector-fortran.h
REM seed -2008442628 -244676733 -2009736105 -25931089 -2122379451 1202495862 229706913 -1948345151 -560939742 332520243 -279259283 -1460810738 509949356 -1971860652 -1232289790 -1332148539 -382318067 1305730774 1800834625 -400598140 502081003 243468790 925519804 -1436042403 863927121 -116165990 -1775157196 -782068610 487086380 -549013949 1803741621 1269140761 -937952992
REM
CELL 1.54180   50.00000   50.00000   50.00000   90.00000   90.00000   90.00000
LATT -1
SFAC C  
C      1  0.4220740000000  0.4956210000000  0.5710420000000 1.0
C      1  0.4677810000000  0.5307300000000  0.4713130000000 1.0
C      1  0.5230530000000  0.5026560000000  0.3974940000000 1.0
C      1  0.4466840000000  0.4191690000000  0.5782520000000 1.0
C      1  0.4787210000000  0.5185700000000  0.5857470000000 1.0
C      1  0.5219010000000  0.4617950000000  0.4336700000000 1.0
C      1  0.4169120000000  0.4718050000000  0.4839380000000 1.0
C      1  0.6204830000000  0.4922920000000  0.4734630000000 1.0
C      1  0.4336080000000  0.4346370000000  0.5974360000000 1.0
C      1  0.5204920000000  0.5560290000000  0.4351720000000 1.0
C      1  0.5755990000000  0.5303640000000  0.4619710000000 1.0
C      1  0.4151390000000  0.5188460000000  0.4526150000000 1.0
C      1  0.5331570000000  0.4859660000000  0.4938310000000 1.0
C      1  0.5126070000000  0.4367530000000  0.3928450000000 1.0
C      1  0.5646620000000  0.5042090000000  0.4623080000000 1.0
C      1  0.5669740000000  0.4830940000000  0.4204550000000 1.0
C      1  0.5790140000000  0.5569660000000  0.4666390000000 1.0
C      1  0.4712260000000  0.5703030000000  0.4417680000000 1.0
C      1  0.5411830000000  0.5047550000000  0.5119640000000 1.0
C      1  0.4938510000000  0.4694860000000  0.5915890000000 1.0
C      1  0.4430610000000  0.4613400000000  0.4452370000000 1.0
C      1  0.4006520000000  0.5248530000000  0.4752870000000 1.0
C      1  0.5583160000000  0.5747350000000  0.5247510000000 1.0
C      1  0.4860900000000  0.5397130000000  0.4055500000000 1.0
C      1  0.5430150000000  0.5510140000000  0.4191200000000 1.0
C      1  0.5654790000000  0.5085330000000  0.5262190000000 1.0
C      1  0.5448930000000  0.4393350000000  0.5846080000000 1.0
C      1  0.4749400000000  0.4215180000000  0.5761190000000 1.0
C      1  0.4345580000000  0.4889040000000  0.4980810000000 1.0
C      1  0.5636360000000  0.5044790000000  0.5541230000000 1.0
C      1  0.6198770000000  0.5119390000000  0.4917310000000 1.0
C      1  0.4378960000000  0.5077230000000  0.4388410000000 1.0
C      1  0.5044010000000  0.4673770000000  0.5433940000000 1.0
C      1  0.5602780000000  0.4757440000000  0.5562020000000 1.0
C      1  0.4831390000000  0.4360200000000  0.5148930000000 1.0
C      1  0.5593740000000  0.4524700000000  0.4689980000000 1.0
C      1  0.4797140000000  0.4880760000000  0.4646700000000 1.0
C      1  0.4351010000000  0.5206500000000  0.5059720000000 1.0
C      1  0.5452880000000  0.4669280000000  0.5789480000000 1.0
C      1  0.4739130000000  0.4135420000000  0.5287030000000 1.0
C      1  0.4464440000000  0.4066650000000  0.5309260000000 1.0
C      1  0.4593880000000  0.5798230000000  0.5205790000000 1.0
C      1  0.5662900000000  0.4609520000000  0.5302230000000 1.0
C      1  0.5373560000000  0.5782510000000  0.4722660000000 1.0
C      1  0.4269730000000  0.5592690000000  0.5492830000000 1.0
C      1  0.4489050000000  0.5179570000000  0.5335120000000 1.0
C      1  0.5148800000000  0.5332180000000  0.4792250000000 1.0
C      1  0.4561260000000  0.4516600000000  0.4222700000000 1.0
C      1  0.5513820000000  0.5746430000000  0.5519910000000 1.0
C      1  0.5075410000000  0.4502750000000  0.5220200000000 1.0
C      1  0.4037630000000  0.5038410000000  0.5525070000000 1.0
C      1  0.5700450000000  0.5902820000000  0.5038930000000 1.0
C      1  0.4648560000000  0.4935040000000  0.5324320000000 1.0
C      1  0.5551120000000  0.5489120000000  0.5125760000000 1.0
C      1  0.4588010000000  0.5696750000000  0.4933840000000 1.0
C      1  0.5169800000000  0.4104080000000  0.5553800000000 1.0
C      1  0.5508580000000  0.4197180000000  0.5138500000000 1.0
C      1  0.4732930000000  0.4946370000000  0.4051000000000 1.0
C      1  0.4805970000000  0.5770920000000  0.5402620000000 1.0
C      1  0.4487380000000  0.5611890000000  0.4255360000000 1.0
C      1  0.4423990000000  0.4839190000000  0.5880110000000 1.0
C      1  0.5324330000000  0.4464700000000  0.4565610000000 1.0
C      1  0.5129530000000  0.5512660000000  0.5736450000000 1.0
C      1  0.4561950000000  0.5398230000000  0.4078190000000 1.0
C      1  0.5563810000000  0.5281570000000  0.5689520000000 1.0
C      1  0.4049490000000  0.5249300000000  0.5041140000000 1.0
C      1  0.5765450000000  0.4785040000000  0.4503790000000 1.0
C      1  0.5230270000000  0.4885650000000  0.4440580000000 1.0
C      1  0.4447370000000  0.5376300000000  0.5540450000000 1.0
C      1  0.3945840000000  0.5153500000000  0.5293350000000 1.0
C      1  0.4511970000000  0.5418730000000  0.4904600000000 1.0
C      1  0.4963560000000  0.5126310000000  0.4002290000000 1.0
C      1  0.5358440000000  0.4091590000000  0.5340560000000 1.0
C      1  0.5215890000000  0.4795250000000  0.5899130000000 1.0
C      1  0.4881600000000  0.4087230000000  0.5529220000000 1.0
C      1  0.4908440000000  0.4914290000000  0.5422650000000 1.0
C      1  0.5582380000000  0.5308190000000  0.4097810000000 1.0
C      1  0.5229630000000  0.5559620000000  0.4630760000000 1.0
C      1  0.4943610000000  0.5586650000000  0.4261020000000 1.0
C      1  0.5626000000000  0.4448450000000  0.5041760000000 1.0
C      1  0.4684140000000  0.5825710000000  0.4683620000000 1.0
C      1  0.4337110000000  0.5800690000000  0.5331810000000 1.0
C      1  0.6052540000000  0.4778180000000  0.4565310000000 1.0
C      1  0.6045600000000  0.5283580000000  0.5064610000000 1.0
C      1  0.5204640000000  0.4264950000000  0.5797170000000 1.0
C      1  0.4942590000000  0.4398100000000  0.5878640000000 1.0
C      1  0.5292690000000  0.5323480000000  0.5063780000000 1.0
C      1  0.5111430000000  0.4496350000000  0.4755900000000 1.0
C      1  0.4777180000000  0.4664320000000  0.4104270000000 1.0
C      1  0.5052780000000  0.5228810000000  0.5751400000000 1.0
C      1  0.5095010000000  0.5336100000000  0.5279540000000 1.0
C      1  0.4653960000000  0.5419720000000  0.5733020000000 1.0
C      1  0.5205210000000  0.4193810000000  0.3751060000000 1.0
C      1  0.5506450000000  0.5035400000000  0.4065090000000 1.0
C      1  0.4710850000000  0.4904480000000  0.5900750000000 1.0
C      1  0.4849940000000  0.4618100000000  0.4751030000000 1.0
C      1  0.4557250000000  0.4760550000000  0.5116360000000 1.0
C      1  0.5412170000000  0.5534650000000  0.5682260000000 1.0
C      1  0.5050660000000  0.5144610000000  0.5478860000000 1.0
C      1  0.4914010000000  0.5151150000000  0.4715310000000 1.0
C      1  0.5213300000000  0.4609550000000  0.4998080000000 1.0
C      1  0.4864540000000  0.5627680000000  0.5648280000000 1.0
C      1  0.4216530000000  0.4554940000000  0.4625860000000 1.0
C      1  0.4338740000000  0.4609730000000  0.6020810000000 1.0
C      1  0.4535460000000  0.4876710000000  0.4516330000000 1.0
C      1  0.5042870000000  0.4549500000000  0.4123490000000 1.0
C      1  0.5784890000000  0.5313660000000  0.5158900000000 1.0
C      1  0.5651400000000  0.5795820000000  0.4776820000000 1.0
C      1  0.4753730000000  0.6092940000000  0.4702490000000 1.0
C      1  0.5376280000000  0.4956990000000  0.4671650000000 1.0
C      1  0.4339260000000  0.4087400000000  0.5550540000000 1.0
C      1  0.4693720000000  0.4548460000000  0.4985730000000 1.0
C      1  0.4498810000000  0.5122350000000  0.4130510000000 1.0
END
