TITL C-3866674-3872-163 2970.36303777709 125000 -1032.63303173938 0 0 170 (C1) n - 1
REM
REM in /home/nfs/bkarasulu/CARBON/AIRSS/Generating-Clusters/LCBOP/Only-C1/SD-CG/HFTN-CG/FIRE-CG
REM
REM
REM
REM
REM
REM ./C.cell (11c1c37f851c82e70ff6c80c92926a4b)
REM AIRSS Version 0.9.1 bugfix July 2018 build 013d7b7c2542+ Fri, 06 Jul 2018 19:26:36 +0100
REM compiler GCC version 9.2.1 20190827 (Red Hat 9.2.1-1)
REM options -cpp -mtune=generic -march=x86-64 -g -O0 -fpre-include=/usr/include/finclude/math-vector-fortran.h
REM seed -1749651270 1402933577 -1294657981 893215252 982715992 920568071 -259208483 186776719 181220120 242291978 1198416630 -1959369870 -1095672263 1703225287 561745783 -482595774 727250588 659792826 -214304640 -994692356 170551774 1550836613 424442209 1743266015 -1518013318 663114616 688616708 -2088397313 -236034544 -59853678 -997280369 -1945162572 295259064
REM
CELL 1.54180   50.00000   50.00000   50.00000   90.00000   90.00000   90.00000
LATT -1
SFAC C  
C      1  0.4919410000000  0.4066040000000  0.5343460000000 1.0
C      1  0.6147440000000  0.5013800000000  0.5277600000000 1.0
C      1  0.4630280000000  0.5487530000000  0.5591770000000 1.0
C      1  0.5053280000000  0.4654970000000  0.5966330000000 1.0
C      1  0.4069980000000  0.4354020000000  0.4446190000000 1.0
C      1  0.4467710000000  0.5883490000000  0.5336800000000 1.0
C      1  0.5403640000000  0.5521220000000  0.4849490000000 1.0
C      1  0.5527660000000  0.4265710000000  0.5833540000000 1.0
C      1  0.5772110000000  0.4758510000000  0.5655330000000 1.0
C      1  0.4569090000000  0.4372150000000  0.5328760000000 1.0
C      1  0.5910600000000  0.5249170000000  0.5609310000000 1.0
C      1  0.4563850000000  0.5386080000000  0.5886980000000 1.0
C      1  0.5131550000000  0.5225860000000  0.5456040000000 1.0
C      1  0.4116370000000  0.4236320000000  0.5130230000000 1.0
C      1  0.4910300000000  0.5918290000000  0.5586630000000 1.0
C      1  0.4259170000000  0.4244200000000  0.5650900000000 1.0
C      1  0.5642930000000  0.5177260000000  0.5980110000000 1.0
C      1  0.5740950000000  0.5600440000000  0.5157020000000 1.0
C      1  0.5331300000000  0.4676500000000  0.4774860000000 1.0
C      1  0.4993680000000  0.4338080000000  0.5214830000000 1.0
C      1  0.4366220000000  0.4923250000000  0.4073010000000 1.0
C      1  0.4926050000000  0.6095090000000  0.5133520000000 1.0
C      1  0.5966770000000  0.4411180000000  0.4702090000000 1.0
C      1  0.4142320000000  0.4787200000000  0.4182970000000 1.0
C      1  0.5369780000000  0.4448010000000  0.4951680000000 1.0
C      1  0.4732770000000  0.4536350000000  0.4845140000000 1.0
C      1  0.4490540000000  0.5180210000000  0.5454220000000 1.0
C      1  0.4239720000000  0.4198490000000  0.4618420000000 1.0
C      1  0.4188730000000  0.4882580000000  0.5943480000000 1.0
C      1  0.5327540000000  0.5609140000000  0.5878770000000 1.0
C      1  0.5127410000000  0.4861540000000  0.4727940000000 1.0
C      1  0.4141070000000  0.5553930000000  0.5650130000000 1.0
C      1  0.4658970000000  0.4120090000000  0.5464210000000 1.0
C      1  0.3995640000000  0.5456930000000  0.4985760000000 1.0
C      1  0.5761420000000  0.4514670000000  0.4260010000000 1.0
C      1  0.5283940000000  0.4612690000000  0.5549050000000 1.0
C      1  0.4049990000000  0.5107970000000  0.5892710000000 1.0
C      1  0.5212370000000  0.4847440000000  0.5194810000000 1.0
C      1  0.5747160000000  0.4840500000000  0.4762980000000 1.0
C      1  0.4698420000000  0.5057980000000  0.4778590000000 1.0
C      1  0.6853410000000  0.5965780000000  0.4717800000000 1.0
C      1  0.4110390000000  0.5722080000000  0.4986390000000 1.0
C      1  0.6124570000000  0.4872930000000  0.4290310000000 1.0
C      1  0.4801290000000  0.4575280000000  0.4567070000000 1.0
C      1  0.4093930000000  0.5464560000000  0.4344410000000 1.0
C      1  0.4027170000000  0.4979850000000  0.4881080000000 1.0
C      1  0.4120060000000  0.4834100000000  0.4655610000000 1.0
C      1  0.5077230000000  0.5238510000000  0.5718270000000 1.0
C      1  0.4343430000000  0.5286020000000  0.5241260000000 1.0
C      1  0.3904250000000  0.4584820000000  0.5416930000000 1.0
C      1  0.5553410000000  0.5313430000000  0.4717920000000 1.0
C      1  0.5672720000000  0.5101110000000  0.4877910000000 1.0
C      1  0.5202710000000  0.5567640000000  0.3223170000000 1.0
C      1  0.4490390000000  0.4141710000000  0.4446820000000 1.0
C      1  0.4494760000000  0.4362580000000  0.4219980000000 1.0
C      1  0.5051470000000  0.3840990000000  0.5216400000000 1.0
C      1  0.4740930000000  0.4493030000000  0.4098300000000 1.0
C      1  0.5440860000000  0.5455890000000  0.3261710000000 1.0
C      1  0.4034400000000  0.4947890000000  0.4403490000000 1.0
C      1  0.4588700000000  0.4099540000000  0.4903720000000 1.0
C      1  0.4536160000000  0.5822810000000  0.3922710000000 1.0
C      1  0.5148070000000  0.6031730000000  0.5694720000000 1.0
C      1  0.4806180000000  0.4555730000000  0.5315600000000 1.0
C      1  0.5889600000000  0.4342490000000  0.4450720000000 1.0
C      1  0.4736740000000  0.5490930000000  0.5224330000000 1.0
C      1  0.6316540000000  0.4998990000000  0.4766050000000 1.0
C      1  0.5999660000000  0.4779660000000  0.5370260000000 1.0
C      1  0.4976990000000  0.5202790000000  0.4264930000000 1.0
C      1  0.5292910000000  0.3765910000000  0.5341750000000 1.0
C      1  0.4999180000000  0.4663240000000  0.4125250000000 1.0
C      1  0.5272450000000  0.5397660000000  0.5285380000000 1.0
C      1  0.4990900000000  0.4364810000000  0.5975540000000 1.0
C      1  0.5128250000000  0.6069460000000  0.4922100000000 1.0
C      1  0.4445040000000  0.5852790000000  0.4190000000000 1.0
C      1  0.4924390000000  0.5602460000000  0.5042420000000 1.0
C      1  0.4525830000000  0.5383390000000  0.5056180000000 1.0
C      1  0.4954220000000  0.4835980000000  0.5138390000000 1.0
C      1  0.5569040000000  0.5392510000000  0.5307850000000 1.0
C      1  0.5068680000000  0.5500620000000  0.5819430000000 1.0
C      1  0.4456570000000  0.4801820000000  0.5980840000000 1.0
C      1  0.5029560000000  0.4404000000000  0.4497670000000 1.0
C      1  0.4601420000000  0.4984350000000  0.6140340000000 1.0
C      1  0.5691130000000  0.3791880000000  0.4778350000000 1.0
C      1  0.4788380000000  0.5766830000000  0.3808590000000 1.0
C      1  0.4120800000000  0.4360580000000  0.5420960000000 1.0
C      1  0.4980850000000  0.5672520000000  0.3325460000000 1.0
C      1  0.4592360000000  0.5308000000000  0.4789220000000 1.0
C      1  0.5463630000000  0.4918770000000  0.5276670000000 1.0
C      1  0.4239970000000  0.5681690000000  0.4283440000000 1.0
C      1  0.4752280000000  0.4721610000000  0.5564430000000 1.0
C      1  0.6234240000000  0.5650990000000  0.5095160000000 1.0
C      1  0.4398450000000  0.4798440000000  0.5169720000000 1.0
C      1  0.4902380000000  0.5945420000000  0.4421900000000 1.0
C      1  0.3967510000000  0.5255280000000  0.4780090000000 1.0
C      1  0.5938140000000  0.4719180000000  0.4169590000000 1.0
C      1  0.5616480000000  0.5122280000000  0.5160470000000 1.0
C      1  0.4911040000000  0.4929510000000  0.4885450000000 1.0
C      1  0.5205140000000  0.4523510000000  0.4292150000000 1.0
C      1  0.5511890000000  0.4772310000000  0.5511080000000 1.0
C      1  0.5739770000000  0.5312710000000  0.3932710000000 1.0
C      1  0.4556600000000  0.5875320000000  0.4863450000000 1.0
C      1  0.4353740000000  0.5860240000000  0.5064370000000 1.0
C      1  0.4996960000000  0.5726010000000  0.3996430000000 1.0
C      1  0.4940200000000  0.3904840000000  0.4685550000000 1.0
C      1  0.4626190000000  0.5998970000000  0.4358330000000 1.0
C      1  0.5585610000000  0.4042540000000  0.5666740000000 1.0
C      1  0.6019140000000  0.5511280000000  0.5205790000000 1.0
C      1  0.6649090000000  0.5864890000000  0.4844460000000 1.0
C      1  0.5254560000000  0.4460410000000  0.5217300000000 1.0
C      1  0.3934300000000  0.5161590000000  0.5433720000000 1.0
C      1  0.4210050000000  0.4499990000000  0.4232790000000 1.0
C      1  0.4853380000000  0.4290060000000  0.4941480000000 1.0
C      1  0.5681870000000  0.5327680000000  0.4191020000000 1.0
C      1  0.5540820000000  0.4725710000000  0.4596130000000 1.0
C      1  0.5908300000000  0.4625890000000  0.4879760000000 1.0
C      1  0.4120630000000  0.4877120000000  0.5130930000000 1.0
C      1  0.5492660000000  0.4593080000000  0.4341130000000 1.0
C      1  0.4386830000000  0.5676260000000  0.5540730000000 1.0
C      1  0.3831120000000  0.4277170000000  0.5064730000000 1.0
C      1  0.5181980000000  0.5493770000000  0.5035240000000 1.0
C      1  0.5064510000000  0.4184930000000  0.4713270000000 1.0
C      1  0.5041160000000  0.6060680000000  0.4644990000000 1.0
C      1  0.4834150000000  0.5743120000000  0.3535370000000 1.0
C      1  0.4700850000000  0.4346410000000  0.5888560000000 1.0
C      1  0.4064250000000  0.5319660000000  0.5227620000000 1.0
C      1  0.5009350000000  0.4956220000000  0.4147010000000 1.0
C      1  0.5717900000000  0.4494550000000  0.5817950000000 1.0
C      1  0.5629630000000  0.5367500000000  0.3426550000000 1.0
C      1  0.4995270000000  0.3768420000000  0.4940100000000 1.0
C      1  0.5562750000000  0.5743490000000  0.4969620000000 1.0
C      1  0.5945540000000  0.4603430000000  0.5158760000000 1.0
C      1  0.5730050000000  0.5319900000000  0.3667700000000 1.0
C      1  0.5531490000000  0.3997210000000  0.4795190000000 1.0
C      1  0.5337320000000  0.5890350000000  0.5833030000000 1.0
C      1  0.5601410000000  0.5327270000000  0.4443410000000 1.0
C      1  0.5120900000000  0.4809450000000  0.6178040000000 1.0
C      1  0.3953920000000  0.4870510000000  0.5369130000000 1.0
C      1  0.5489030000000  0.3857760000000  0.5499170000000 1.0
C      1  0.4660820000000  0.3978190000000  0.4628980000000 1.0
C      1  0.4539230000000  0.4164040000000  0.5723930000000 1.0
C      1  0.4602860000000  0.4619350000000  0.5817140000000 1.0
C      1  0.4736270000000  0.5492250000000  0.4624480000000 1.0
C      1  0.6441260000000  0.5761370000000  0.4972300000000 1.0
C      1  0.5053170000000  0.4711200000000  0.5684550000000 1.0
C      1  0.5601870000000  0.5110690000000  0.6240770000000 1.0
C      1  0.4499370000000  0.4674090000000  0.4931020000000 1.0
C      1  0.4622460000000  0.5264650000000  0.6133530000000 1.0
C      1  0.4869290000000  0.5652620000000  0.5677430000000 1.0
C      1  0.5257960000000  0.4248640000000  0.5950320000000 1.0
C      1  0.6065660000000  0.5269480000000  0.5373780000000 1.0
C      1  0.5341580000000  0.4196940000000  0.4820820000000 1.0
C      1  0.4574710000000  0.4923590000000  0.4245790000000 1.0
C      1  0.4300570000000  0.4172890000000  0.4911010000000 1.0
C      1  0.5401350000000  0.5982290000000  0.4977910000000 1.0
C      1  0.5669370000000  0.5407640000000  0.5589440000000 1.0
C      1  0.4904750000000  0.5453140000000  0.4393210000000 1.0
C      1  0.4990620000000  0.5705940000000  0.4278370000000 1.0
C      1  0.4755860000000  0.5998580000000  0.5353790000000 1.0
C      1  0.4539580000000  0.4910530000000  0.5422470000000 1.0
C      1  0.5540830000000  0.5422260000000  0.5846750000000 1.0
C      1  0.5825140000000  0.5030790000000  0.5793120000000 1.0
C      1  0.6291910000000  0.5003490000000  0.5033320000000 1.0
C      1  0.3997710000000  0.5237670000000  0.4483450000000 1.0
C      1  0.3710000000000  0.4462440000000  0.5232570000000 1.0
C      1  0.6255310000000  0.4961350000000  0.4507520000000 1.0
C      1  0.4781740000000  0.5706580000000  0.4812420000000 1.0
C      1  0.4595080000000  0.4754930000000  0.4471150000000 1.0
C      1  0.4693170000000  0.5409580000000  0.6353360000000 1.0
C      1  0.4383860000000  0.4748940000000  0.4674000000000 1.0
C      1  0.4006120000000  0.5291900000000  0.5683540000000 1.0
END
