TITL C-3866674-3872-153 -0.443170235345412 125000 -1149.44018693692 0 0 187 (C1) n - 1
REM
REM in /home/nfs/bkarasulu/CARBON/AIRSS/Generating-Clusters/LCBOP/Only-C1/SD-CG/HFTN-CG/FIRE-CG
REM
REM
REM
REM
REM
REM ./C.cell (11c1c37f851c82e70ff6c80c92926a4b)
REM AIRSS Version 0.9.1 bugfix July 2018 build 013d7b7c2542+ Fri, 06 Jul 2018 19:26:36 +0100
REM compiler GCC version 9.2.1 20190827 (Red Hat 9.2.1-1)
REM options -cpp -mtune=generic -march=x86-64 -g -O0 -fpre-include=/usr/include/finclude/math-vector-fortran.h
REM seed 1749874896 -1778900524 -729770453 -1859039560 -582442068 1227890841 -1491149035 685208494 -2122259952 -974637954 -1829940943 86624304 1008192936 -980628162 711621525 1834488369 -1909175851 550426198 -1926348307 -1953537462 2013500196 -910191044 -521140798 136553105 -394342132 1937897593 349852465 1034507527 -1102731143 1195716619 -2130809802 -821462457 1133560363
REM
CELL 1.54180   50.00000   50.00000   50.00000   90.00000   90.00000   90.00000
LATT -1
SFAC C  
C      1  0.5890740000000  0.5986120000000  0.4928170000000 1.0
C      1  0.4906860000000  0.5828940000000  0.5493870000000 1.0
C      1  0.4079580000000  0.4066840000000  0.5267630000000 1.0
C      1  0.5275690000000  0.5247870000000  0.3932290000000 1.0
C      1  0.4896940000000  0.4801680000000  0.5880360000000 1.0
C      1  0.4650610000000  0.4204210000000  0.5084150000000 1.0
C      1  0.6163770000000  0.5604210000000  0.5060190000000 1.0
C      1  0.5135190000000  0.5993070000000  0.4591590000000 1.0
C      1  0.4001630000000  0.5026090000000  0.5692510000000 1.0
C      1  0.5284690000000  0.4500890000000  0.3867550000000 1.0
C      1  0.4284460000000  0.4683290000000  0.4960290000000 1.0
C      1  0.5518430000000  0.4191230000000  0.5628240000000 1.0
C      1  0.5065600000000  0.5454390000000  0.4886000000000 1.0
C      1  0.5896720000000  0.5303260000000  0.5819180000000 1.0
C      1  0.6034500000000  0.5620770000000  0.4606610000000 1.0
C      1  0.5660950000000  0.4813680000000  0.3905630000000 1.0
C      1  0.4420450000000  0.5102410000000  0.5936210000000 1.0
C      1  0.4116730000000  0.5290820000000  0.5161630000000 1.0
C      1  0.5059750000000  0.4699440000000  0.4906970000000 1.0
C      1  0.5142400000000  0.4452120000000  0.5539390000000 1.0
C      1  0.4125350000000  0.5544870000000  0.5596820000000 1.0
C      1  0.5552180000000  0.4126520000000  0.5352840000000 1.0
C      1  0.5385840000000  0.4767050000000  0.3846340000000 1.0
C      1  0.5830570000000  0.5720680000000  0.4434870000000 1.0
C      1  0.4648140000000  0.3348760000000  0.4501780000000 1.0
C      1  0.4954520000000  0.5565700000000  0.4646320000000 1.0
C      1  0.5378700000000  0.3952940000000  0.5179280000000 1.0
C      1  0.4271860000000  0.4667390000000  0.5450640000000 1.0
C      1  0.4412550000000  0.4887200000000  0.6372370000000 1.0
C      1  0.4515910000000  0.5645150000000  0.5873650000000 1.0
C      1  0.6129820000000  0.4343510000000  0.4539140000000 1.0
C      1  0.5222550000000  0.4805480000000  0.4419540000000 1.0
C      1  0.5109160000000  0.5888000000000  0.5715220000000 1.0
C      1  0.4676060000000  0.5915310000000  0.4781490000000 1.0
C      1  0.5563810000000  0.4851290000000  0.5162810000000 1.0
C      1  0.4127020000000  0.5536070000000  0.5314630000000 1.0
C      1  0.5899800000000  0.4717080000000  0.5431350000000 1.0
C      1  0.4315100000000  0.5748060000000  0.5696120000000 1.0
C      1  0.5956430000000  0.4303630000000  0.4316760000000 1.0
C      1  0.4511970000000  0.5175590000000  0.5434530000000 1.0
C      1  0.4934700000000  0.4604290000000  0.5145780000000 1.0
C      1  0.4597040000000  0.5670780000000  0.5333130000000 1.0
C      1  0.5583910000000  0.5330630000000  0.5185700000000 1.0
C      1  0.4724530000000  0.4412630000000  0.5291480000000 1.0
C      1  0.5414500000000  0.5238800000000  0.5393510000000 1.0
C      1  0.4053720000000  0.4315000000000  0.6242730000000 1.0
C      1  0.5551390000000  0.4488100000000  0.4358440000000 1.0
C      1  0.5511290000000  0.5041840000000  0.5585480000000 1.0
C      1  0.3977230000000  0.5767050000000  0.6468890000000 1.0
C      1  0.4916880000000  0.4282410000000  0.5495070000000 1.0
C      1  0.4360030000000  0.5241150000000  0.4748550000000 1.0
C      1  0.5190400000000  0.4980470000000  0.3851950000000 1.0
C      1  0.4442850000000  0.4812250000000  0.4773090000000 1.0
C      1  0.4933490000000  0.3807630000000  0.5002750000000 1.0
C      1  0.4222120000000  0.5648660000000  0.4864490000000 1.0
C      1  0.4682220000000  0.5396720000000  0.5368160000000 1.0
C      1  0.4208370000000  0.3921970000000  0.5452720000000 1.0
C      1  0.5227270000000  0.5611300000000  0.3584930000000 1.0
C      1  0.4915580000000  0.4897470000000  0.3848510000000 1.0
C      1  0.5102500000000  0.5765280000000  0.5975090000000 1.0
C      1  0.5666820000000  0.6062310000000  0.5053750000000 1.0
C      1  0.5374830000000  0.5056380000000  0.5865710000000 1.0
C      1  0.6238300000000  0.5347250000000  0.4929480000000 1.0
C      1  0.4348210000000  0.5209750000000  0.4448960000000 1.0
C      1  0.5407590000000  0.6046850000000  0.5166910000000 1.0
C      1  0.5406230000000  0.5874490000000  0.5655800000000 1.0
C      1  0.5818050000000  0.4559220000000  0.4271070000000 1.0
C      1  0.5425480000000  0.5358120000000  0.5945920000000 1.0
C      1  0.4101220000000  0.5547590000000  0.6402450000000 1.0
C      1  0.5725670000000  0.5251920000000  0.4178660000000 1.0
C      1  0.5425490000000  0.4648230000000  0.4556570000000 1.0
C      1  0.5344840000000  0.4391750000000  0.5726030000000 1.0
C      1  0.4712580000000  0.3934370000000  0.5140640000000 1.0
C      1  0.5094540000000  0.4679450000000  0.5376250000000 1.0
C      1  0.5139970000000  0.5203680000000  0.5373720000000 1.0
C      1  0.6103310000000  0.4907820000000  0.5507990000000 1.0
C      1  0.4619090000000  0.5337930000000  0.4838680000000 1.0
C      1  0.4369980000000  0.5989170000000  0.5522110000000 1.0
C      1  0.5298640000000  0.4013470000000  0.4665160000000 1.0
C      1  0.5535030000000  0.5393740000000  0.4639260000000 1.0
C      1  0.5074060000000  0.5679260000000  0.5326500000000 1.0
C      1  0.5456030000000  0.4793790000000  0.5999330000000 1.0
C      1  0.6145180000000  0.4563780000000  0.4726320000000 1.0
C      1  0.5040940000000  0.5054750000000  0.5902010000000 1.0
C      1  0.4960420000000  0.4325020000000  0.4192610000000 1.0
C      1  0.4094330000000  0.4234720000000  0.5059080000000 1.0
C      1  0.3269410000000  0.4562250000000  0.4403820000000 1.0
C      1  0.5166740000000  0.5036970000000  0.4562060000000 1.0
C      1  0.4357500000000  0.5108360000000  0.6209910000000 1.0
C      1  0.4294520000000  0.5091070000000  0.5256180000000 1.0
C      1  0.4755380000000  0.5211170000000  0.4205430000000 1.0
C      1  0.6128050000000  0.5337100000000  0.4649360000000 1.0
C      1  0.6002090000000  0.5587940000000  0.5298520000000 1.0
C      1  0.5063830000000  0.4946370000000  0.5428110000000 1.0
C      1  0.5350330000000  0.5818900000000  0.4675050000000 1.0
C      1  0.6077340000000  0.5082860000000  0.4503420000000 1.0
C      1  0.4229580000000  0.5330760000000  0.6320590000000 1.0
C      1  0.5228540000000  0.4311750000000  0.4075580000000 1.0
C      1  0.5174560000000  0.5493390000000  0.6009810000000 1.0
C      1  0.4756830000000  0.4552870000000  0.4158130000000 1.0
C      1  0.6039440000000  0.5097400000000  0.5715170000000 1.0
C      1  0.5145350000000  0.3791880000000  0.5215810000000 1.0
C      1  0.5471170000000  0.4244600000000  0.4226570000000 1.0
C      1  0.5571680000000  0.5675580000000  0.4538610000000 1.0
C      1  0.6081570000000  0.4518720000000  0.5000690000000 1.0
C      1  0.4466600000000  0.5552620000000  0.4105100000000 1.0
C      1  0.4779130000000  0.3551940000000  0.4610140000000 1.0
C      1  0.5630610000000  0.4833910000000  0.4669890000000 1.0
C      1  0.3497750000000  0.4683980000000  0.4346360000000 1.0
C      1  0.4688070000000  0.5620070000000  0.4744940000000 1.0
C      1  0.4212450000000  0.5031660000000  0.4226390000000 1.0
C      1  0.4471710000000  0.6090910000000  0.5278490000000 1.0
C      1  0.4887810000000  0.4179260000000  0.4444430000000 1.0
C      1  0.4534200000000  0.5036350000000  0.5686800000000 1.0
C      1  0.4936740000000  0.5597900000000  0.3993410000000 1.0
C      1  0.3959860000000  0.4921570000000  0.4243360000000 1.0
C      1  0.4023500000000  0.5299200000000  0.5710840000000 1.0
C      1  0.4549350000000  0.4590830000000  0.5501320000000 1.0
C      1  0.5300740000000  0.4548630000000  0.4816200000000 1.0
C      1  0.5302770000000  0.5719680000000  0.3360290000000 1.0
C      1  0.4447630000000  0.3824880000000  0.5528130000000 1.0
C      1  0.5022880000000  0.4979770000000  0.4808960000000 1.0
C      1  0.4581190000000  0.6056070000000  0.5021620000000 1.0
C      1  0.5666480000000  0.5476130000000  0.5837200000000 1.0
C      1  0.4643390000000  0.4569600000000  0.4426440000000 1.0
C      1  0.6328780000000  0.5135540000000  0.5090610000000 1.0
C      1  0.5148500000000  0.5493940000000  0.3824100000000 1.0
C      1  0.4599180000000  0.4818530000000  0.4543280000000 1.0
C      1  0.4845780000000  0.6009410000000  0.4548330000000 1.0
C      1  0.5309290000000  0.4549710000000  0.5961710000000 1.0
C      1  0.4325750000000  0.5516550000000  0.4366370000000 1.0
C      1  0.4414120000000  0.5002040000000  0.4007930000000 1.0
C      1  0.4251200000000  0.4813940000000  0.5208420000000 1.0
C      1  0.4979750000000  0.3746420000000  0.5454890000000 1.0
C      1  0.4669910000000  0.4324970000000  0.4585670000000 1.0
C      1  0.5301550000000  0.5636020000000  0.4929500000000 1.0
C      1  0.4146530000000  0.5360040000000  0.4888480000000 1.0
C      1  0.4676070000000  0.4783540000000  0.5692540000000 1.0
C      1  0.5395050000000  0.4084950000000  0.4916840000000 1.0
C      1  0.5514530000000  0.5423510000000  0.4927050000000 1.0
C      1  0.5467570000000  0.4361510000000  0.4957730000000 1.0
C      1  0.5882320000000  0.5756600000000  0.5496750000000 1.0
C      1  0.5738650000000  0.4109890000000  0.4228560000000 1.0
C      1  0.6163650000000  0.4833220000000  0.4624500000000 1.0
C      1  0.4518960000000  0.3149000000000  0.4395140000000 1.0
C      1  0.4133020000000  0.5956400000000  0.4489630000000 1.0
C      1  0.4223110000000  0.4418350000000  0.6421500000000 1.0
C      1  0.4363670000000  0.4641470000000  0.6461680000000 1.0
C      1  0.5268890000000  0.5797010000000  0.5166490000000 1.0
C      1  0.4890400000000  0.5214130000000  0.4910460000000 1.0
C      1  0.5317040000000  0.5278990000000  0.4460760000000 1.0
C      1  0.5658440000000  0.4907560000000  0.4922000000000 1.0
C      1  0.4741270000000  0.5950840000000  0.4280750000000 1.0
C      1  0.4701050000000  0.3822240000000  0.5411640000000 1.0
C      1  0.3044840000000  0.4442510000000  0.4460350000000 1.0
C      1  0.5035610000000  0.3973270000000  0.4573140000000 1.0
C      1  0.4270570000000  0.4401780000000  0.4916360000000 1.0
C      1  0.5639560000000  0.4838340000000  0.5436270000000 1.0
C      1  0.6062900000000  0.5776570000000  0.4853650000000 1.0
C      1  0.4702910000000  0.5463990000000  0.5948650000000 1.0
C      1  0.4909910000000  0.3768100000000  0.4724670000000 1.0
C      1  0.4688480000000  0.4779360000000  0.3980040000000 1.0
C      1  0.4529100000000  0.4288380000000  0.4837340000000 1.0
C      1  0.5848230000000  0.5354360000000  0.5264140000000 1.0
C      1  0.4331850000000  0.5693200000000  0.5158490000000 1.0
C      1  0.5028560000000  0.4589660000000  0.6016110000000 1.0
C      1  0.4947590000000  0.5318780000000  0.5971140000000 1.0
C      1  0.5909520000000  0.5051830000000  0.4261160000000 1.0
C      1  0.4072120000000  0.4747030000000  0.5648010000000 1.0
C      1  0.5904310000000  0.4504380000000  0.5224370000000 1.0
C      1  0.4231690000000  0.5712970000000  0.4573930000000 1.0
C      1  0.5880430000000  0.5851280000000  0.4201500000000 1.0
C      1  0.6288950000000  0.4986250000000  0.5309680000000 1.0
C      1  0.5660390000000  0.4349350000000  0.5185470000000 1.0
C      1  0.4968170000000  0.5411790000000  0.5344260000000 1.0
C      1  0.5089690000000  0.5468750000000  0.4426930000000 1.0
C      1  0.4694440000000  0.5748780000000  0.4075480000000 1.0
C      1  0.3952400000000  0.4545360000000  0.5801020000000 1.0
C      1  0.5654470000000  0.5721160000000  0.5673900000000 1.0
C      1  0.3726850000000  0.4804790000000  0.4290380000000 1.0
C      1  0.4943870000000  0.5408730000000  0.4207010000000 1.0
C      1  0.4541940000000  0.5270460000000  0.4011800000000 1.0
C      1  0.4635210000000  0.5073150000000  0.4419710000000 1.0
C      1  0.5283830000000  0.6275900000000  0.5251960000000 1.0
C      1  0.5841940000000  0.4800190000000  0.4129910000000 1.0
C      1  0.3948090000000  0.4375090000000  0.6005300000000 1.0
C      1  0.5440930000000  0.5262350000000  0.4175090000000 1.0
END
