TITL C-3866673-4222-291 0.000774081642423723 125000 -999.229257691639 0 0 162 (C1) n - 1
REM
REM in /home/nfs/bkarasulu/CARBON/AIRSS/Generating-Clusters/LCBOP/Only-C1/SD-CG/FIRE-CG
REM
REM
REM
REM
REM
REM ./C.cell (11c1c37f851c82e70ff6c80c92926a4b)
REM AIRSS Version 0.9.1 bugfix July 2018 build 013d7b7c2542+ Fri, 06 Jul 2018 19:26:36 +0100
REM compiler GCC version 9.2.1 20190827 (Red Hat 9.2.1-1)
REM options -cpp -mtune=generic -march=x86-64 -g -O0 -fpre-include=/usr/include/finclude/math-vector-fortran.h
REM seed -339797056 -1862011712 -1058932383 -1010162031 90791029 -604285357 -1059273667 757504537 1218852215 1960750239 -264617712 -645938476 -587006205 1502318478 -1688918012 -1925592542 -1993859640 1067340249 349682773 2104728871 -623573355 -1818571799 1993866010 -1689025516 1116714103 -662224273 788550304 1791628192 1174229856 1292832608 563704434 -1540325910 1780391566
REM
CELL 1.54180   50.00000   50.00000   50.00000   90.00000   90.00000   90.00000
LATT -1
SFAC C  
C      1  0.5865120000000  0.5667460000000  0.4799980000000 1.0
C      1  0.4878500000000  0.5065880000000  0.5659520000000 1.0
C      1  0.5929600000000  0.4782280000000  0.5167600000000 1.0
C      1  0.4648440000000  0.4882280000000  0.5539580000000 1.0
C      1  0.6396590000000  0.5811390000000  0.4211640000000 1.0
C      1  0.5052480000000  0.5601830000000  0.4805280000000 1.0
C      1  0.4962770000000  0.4652540000000  0.4777500000000 1.0
C      1  0.4480300000000  0.4135620000000  0.5150530000000 1.0
C      1  0.4213960000000  0.5982830000000  0.4968810000000 1.0
C      1  0.4942040000000  0.4873230000000  0.4601620000000 1.0
C      1  0.4860840000000  0.4344880000000  0.5231920000000 1.0
C      1  0.5618670000000  0.4376980000000  0.4658580000000 1.0
C      1  0.5147290000000  0.4776660000000  0.5900060000000 1.0
C      1  0.5204430000000  0.6028870000000  0.5019940000000 1.0
C      1  0.5515320000000  0.5883670000000  0.4535860000000 1.0
C      1  0.3994430000000  0.4276620000000  0.4861510000000 1.0
C      1  0.5404330000000  0.4558290000000  0.4644230000000 1.0
C      1  0.5158730000000  0.5244380000000  0.4134420000000 1.0
C      1  0.4936160000000  0.4077480000000  0.5172900000000 1.0
C      1  0.3957240000000  0.4680080000000  0.5510220000000 1.0
C      1  0.4048650000000  0.5534200000000  0.5258800000000 1.0
C      1  0.5874320000000  0.4508470000000  0.4597850000000 1.0
C      1  0.4280950000000  0.4764370000000  0.4530220000000 1.0
C      1  0.4508550000000  0.4622610000000  0.4964500000000 1.0
C      1  0.4801860000000  0.5322470000000  0.4485130000000 1.0
C      1  0.4108040000000  0.5199420000000  0.4410040000000 1.0
C      1  0.4476250000000  0.5637790000000  0.5076200000000 1.0
C      1  0.4673740000000  0.3553630000000  0.4769660000000 1.0
C      1  0.5135650000000  0.5829220000000  0.4188400000000 1.0
C      1  0.5375950000000  0.5735460000000  0.5895640000000 1.0
C      1  0.5346380000000  0.5242320000000  0.3903580000000 1.0
C      1  0.4470870000000  0.4967070000000  0.5312780000000 1.0
C      1  0.5522860000000  0.4118140000000  0.4760990000000 1.0
C      1  0.4894620000000  0.5793690000000  0.5249910000000 1.0
C      1  0.4940750000000  0.5391780000000  0.4238890000000 1.0
C      1  0.4753930000000  0.5077440000000  0.4624800000000 1.0
C      1  0.5599950000000  0.4826800000000  0.5646570000000 1.0
C      1  0.4113170000000  0.5982450000000  0.5767190000000 1.0
C      1  0.4237530000000  0.5341170000000  0.3926780000000 1.0
C      1  0.5938840000000  0.5455610000000  0.4979250000000 1.0
C      1  0.4640660000000  0.4726020000000  0.3887560000000 1.0
C      1  0.4140870000000  0.5315340000000  0.4173160000000 1.0
C      1  0.5320060000000  0.3737270000000  0.4321190000000 1.0
C      1  0.4703160000000  0.3942720000000  0.5062780000000 1.0
C      1  0.4333030000000  0.5830200000000  0.5706110000000 1.0
C      1  0.5897290000000  0.4795850000000  0.4510320000000 1.0
C      1  0.5294390000000  0.4281950000000  0.5846080000000 1.0
C      1  0.4494450000000  0.5905690000000  0.3922550000000 1.0
C      1  0.5110730000000  0.4964210000000  0.5474380000000 1.0
C      1  0.5580110000000  0.4294960000000  0.5315280000000 1.0
C      1  0.4610100000000  0.5132160000000  0.3643250000000 1.0
C      1  0.4374430000000  0.5588340000000  0.5845640000000 1.0
C      1  0.5522660000000  0.5454060000000  0.5517510000000 1.0
C      1  0.3980520000000  0.5148520000000  0.5643640000000 1.0
C      1  0.5618210000000  0.5824170000000  0.4790590000000 1.0
C      1  0.5564940000000  0.4368700000000  0.5853790000000 1.0
C      1  0.5029140000000  0.5040780000000  0.5933690000000 1.0
C      1  0.4806350000000  0.3780350000000  0.4848530000000 1.0
C      1  0.5930130000000  0.5213410000000  0.5410550000000 1.0
C      1  0.4726190000000  0.4638750000000  0.6107940000000 1.0
C      1  0.5410280000000  0.4850320000000  0.4682630000000 1.0
C      1  0.5068470000000  0.3853840000000  0.4727250000000 1.0
C      1  0.4204670000000  0.5069680000000  0.5256290000000 1.0
C      1  0.4698860000000  0.5093100000000  0.4907990000000 1.0
C      1  0.5596790000000  0.4708590000000  0.4120690000000 1.0
C      1  0.4767920000000  0.4911240000000  0.3716470000000 1.0
C      1  0.4703810000000  0.5957170000000  0.4807490000000 1.0
C      1  0.5034100000000  0.4952380000000  0.5201480000000 1.0
C      1  0.5655120000000  0.4769340000000  0.5100050000000 1.0
C      1  0.5289190000000  0.4964510000000  0.3799630000000 1.0
C      1  0.5211370000000  0.4025890000000  0.5155540000000 1.0
C      1  0.4510490000000  0.5919730000000  0.5503290000000 1.0
C      1  0.5085710000000  0.3826610000000  0.4443010000000 1.0
C      1  0.4453080000000  0.6098910000000  0.4869980000000 1.0
C      1  0.5037580000000  0.5551160000000  0.5586670000000 1.0
C      1  0.6256110000000  0.4219210000000  0.4498640000000 1.0
C      1  0.6059310000000  0.5735770000000  0.4607520000000 1.0
C      1  0.4481860000000  0.4740260000000  0.6053770000000 1.0
C      1  0.5926490000000  0.5491930000000  0.5274940000000 1.0
C      1  0.5064940000000  0.5573440000000  0.5297870000000 1.0
C      1  0.5122190000000  0.4328410000000  0.6065820000000 1.0
C      1  0.5129130000000  0.5768710000000  0.5760820000000 1.0
C      1  0.5398820000000  0.5231740000000  0.5043530000000 1.0
C      1  0.5169450000000  0.4268970000000  0.5588120000000 1.0
C      1  0.5217200000000  0.5214670000000  0.6056200000000 1.0
C      1  0.4406950000000  0.4443100000000  0.5573900000000 1.0
C      1  0.5344150000000  0.4810890000000  0.4047280000000 1.0
C      1  0.5308130000000  0.4829220000000  0.5646610000000 1.0
C      1  0.4067830000000  0.5281540000000  0.5395810000000 1.0
C      1  0.5352100000000  0.5895580000000  0.4327120000000 1.0
C      1  0.4604040000000  0.5670630000000  0.4819020000000 1.0
C      1  0.4916020000000  0.5660720000000  0.4143140000000 1.0
C      1  0.4615240000000  0.4397850000000  0.5093110000000 1.0
C      1  0.4367150000000  0.4198980000000  0.5414370000000 1.0
C      1  0.4407060000000  0.5281650000000  0.3730290000000 1.0
C      1  0.4926400000000  0.5175020000000  0.5060060000000 1.0
C      1  0.5048400000000  0.4716050000000  0.5046890000000 1.0
C      1  0.5502000000000  0.5312710000000  0.5294280000000 1.0
C      1  0.6113510000000  0.4371530000000  0.4673910000000 1.0
C      1  0.5425920000000  0.5824030000000  0.6147750000000 1.0
C      1  0.6104340000000  0.4566400000000  0.5140230000000 1.0
C      1  0.4997910000000  0.4580730000000  0.6045240000000 1.0
C      1  0.3954650000000  0.4654690000000  0.5222400000000 1.0
C      1  0.4190920000000  0.5100360000000  0.5839380000000 1.0
C      1  0.4382490000000  0.4096120000000  0.4278980000000 1.0
C      1  0.3819500000000  0.4914710000000  0.5605210000000 1.0
C      1  0.4857570000000  0.3884030000000  0.4289970000000 1.0
C      1  0.4937680000000  0.6166090000000  0.5502030000000 1.0
C      1  0.5032810000000  0.6053460000000  0.5254320000000 1.0
C      1  0.4328630000000  0.5333710000000  0.5915960000000 1.0
C      1  0.6231270000000  0.5776600000000  0.4410180000000 1.0
C      1  0.4844530000000  0.5358730000000  0.5653240000000 1.0
C      1  0.4119170000000  0.4987470000000  0.4592600000000 1.0
C      1  0.5543470000000  0.3661400000000  0.4210520000000 1.0
C      1  0.4674140000000  0.4580380000000  0.5578260000000 1.0
C      1  0.5055310000000  0.6039440000000  0.5725200000000 1.0
C      1  0.5499630000000  0.4967870000000  0.4934310000000 1.0
C      1  0.4193860000000  0.4617740000000  0.5668350000000 1.0
C      1  0.5126440000000  0.5402920000000  0.5032090000000 1.0
C      1  0.3909350000000  0.4418820000000  0.5075290000000 1.0
C      1  0.4607410000000  0.3959180000000  0.4240150000000 1.0
C      1  0.4274200000000  0.4819850000000  0.5874140000000 1.0
C      1  0.4685450000000  0.5759090000000  0.4022540000000 1.0
C      1  0.5795790000000  0.5137120000000  0.4134460000000 1.0
C      1  0.5200890000000  0.4947920000000  0.4515420000000 1.0
C      1  0.5220710000000  0.4986110000000  0.4246130000000 1.0
C      1  0.4198360000000  0.4336520000000  0.4678360000000 1.0
C      1  0.4338100000000  0.4583830000000  0.4748730000000 1.0
C      1  0.5045990000000  0.4909700000000  0.3668030000000 1.0
C      1  0.6018400000000  0.5045560000000  0.5182570000000 1.0
C      1  0.5793120000000  0.4873210000000  0.4249710000000 1.0
C      1  0.4651140000000  0.6169680000000  0.5524210000000 1.0
C      1  0.6009300000000  0.5180320000000  0.4919780000000 1.0
C      1  0.5488890000000  0.5229220000000  0.6048670000000 1.0
C      1  0.5621950000000  0.5280780000000  0.3978460000000 1.0
C      1  0.4801340000000  0.5526010000000  0.4676560000000 1.0
C      1  0.5841190000000  0.5753950000000  0.5346970000000 1.0
C      1  0.4619200000000  0.5754960000000  0.5294160000000 1.0
C      1  0.4038450000000  0.4899600000000  0.5088310000000 1.0
C      1  0.5016980000000  0.5905190000000  0.4825720000000 1.0
C      1  0.3689720000000  0.5062040000000  0.4800580000000 1.0
C      1  0.4915940000000  0.4417110000000  0.5504990000000 1.0
C      1  0.5561560000000  0.5610710000000  0.5730250000000 1.0
C      1  0.4558790000000  0.4888910000000  0.5048270000000 1.0
C      1  0.3952000000000  0.4983080000000  0.4828030000000 1.0
C      1  0.5487460000000  0.5943920000000  0.5022420000000 1.0
C      1  0.6188360000000  0.4406920000000  0.4942500000000 1.0
C      1  0.5521120000000  0.4537110000000  0.5184670000000 1.0
C      1  0.5699490000000  0.4584100000000  0.5759110000000 1.0
C      1  0.4455730000000  0.4651050000000  0.4065130000000 1.0
C      1  0.5345670000000  0.4143600000000  0.5379900000000 1.0
C      1  0.4197300000000  0.5712110000000  0.5088760000000 1.0
C      1  0.5083520000000  0.4152490000000  0.6269330000000 1.0
C      1  0.4308480000000  0.4591090000000  0.4294660000000 1.0
C      1  0.5772710000000  0.5074310000000  0.5641260000000 1.0
C      1  0.4256610000000  0.4317090000000  0.4392980000000 1.0
C      1  0.5136030000000  0.4459090000000  0.4659040000000 1.0
C      1  0.5987140000000  0.5009870000000  0.4688080000000 1.0
C      1  0.5250470000000  0.4551750000000  0.5134180000000 1.0
C      1  0.5292030000000  0.3977000000000  0.4880880000000 1.0
C      1  0.5714610000000  0.5196920000000  0.5899340000000 1.0
C      1  0.5649430000000  0.5924370000000  0.5256270000000 1.0
END
