TITL C-3866672-3872-228 2.37775078014299e-07 125000 -190.01812546586 0 0 33 (C1) n - 1
REM
REM in /home/nfs/bkarasulu/CARBON/AIRSS/Generating-Clusters/LCBOP/Only-C1/SD-CG/HFTN-CG/FIRE-CG
REM
REM
REM
REM
REM
REM ./C.cell (11c1c37f851c82e70ff6c80c92926a4b)
REM AIRSS Version 0.9.1 bugfix July 2018 build 013d7b7c2542+ Fri, 06 Jul 2018 19:26:36 +0100
REM compiler GCC version 9.2.1 20190827 (Red Hat 9.2.1-1)
REM options -cpp -mtune=generic -march=x86-64 -g -O0 -fpre-include=/usr/include/finclude/math-vector-fortran.h
REM seed 1536857744 -240921355 1509533436 -303323908 1573743890 644636410 -448045293 -143168963 1853377920 889025034 -260214078 -475774716 1908406506 566475471 1250622055 -748480433 -912808826 1649456237 -1313455450 861951049 -1652865874 -969593126 879659852 375464678 572789477 1916871195 -947451849 1827329685 -54731881 1492888709 1518445113 103429557 -773551381
REM
CELL 1.54180   50.00000   50.00000   50.00000   90.00000   90.00000   90.00000
LATT -1
SFAC C  
C      1  0.5423670000000  0.4420070000000  0.4770500000000 1.0
C      1  0.4716740000000  0.4871640000000  0.4544370000000 1.0
C      1  0.5225130000000  0.4556340000000  0.5168210000000 1.0
C      1  0.5117800000000  0.5364080000000  0.5537990000000 1.0
C      1  0.4833190000000  0.5404590000000  0.4695460000000 1.0
C      1  0.5546120000000  0.5194840000000  0.4324460000000 1.0
C      1  0.5160250000000  0.5398990000000  0.5061390000000 1.0
C      1  0.5241780000000  0.4863500000000  0.4514860000000 1.0
C      1  0.5135220000000  0.4731230000000  0.4952850000000 1.0
C      1  0.5099050000000  0.4877500000000  0.5544070000000 1.0
C      1  0.4638370000000  0.4958580000000  0.5384020000000 1.0
C      1  0.5257880000000  0.5115760000000  0.5516830000000 1.0
C      1  0.5000560000000  0.5459260000000  0.5296800000000 1.0
C      1  0.4585850000000  0.5163280000000  0.5196260000000 1.0
C      1  0.5274920000000  0.4655250000000  0.4703270000000 1.0
C      1  0.4508660000000  0.5126360000000  0.4917150000000 1.0
C      1  0.5433500000000  0.5078990000000  0.4545760000000 1.0
C      1  0.4966370000000  0.4892240000000  0.4436670000000 1.0
C      1  0.4719570000000  0.5410950000000  0.5264500000000 1.0
C      1  0.5002470000000  0.4978140000000  0.4933650000000 1.0
C      1  0.4560880000000  0.5356410000000  0.4755220000000 1.0
C      1  0.5394020000000  0.4360780000000  0.5039620000000 1.0
C      1  0.5466190000000  0.5133440000000  0.5317550000000 1.0
C      1  0.5505690000000  0.5171470000000  0.4809440000000 1.0
C      1  0.4919190000000  0.5570560000000  0.4498070000000 1.0
C      1  0.5421320000000  0.5265550000000  0.5067130000000 1.0
C      1  0.4815880000000  0.4887940000000  0.5594280000000 1.0
C      1  0.4364070000000  0.4663660000000  0.4819420000000 1.0
C      1  0.4526280000000  0.4882560000000  0.4761070000000 1.0
C      1  0.5005460000000  0.5257650000000  0.4867810000000 1.0
C      1  0.4718940000000  0.4831080000000  0.5843880000000 1.0
C      1  0.5196600000000  0.4639050000000  0.5431050000000 1.0
C      1  0.4218370000000  0.4458250000000  0.4886400000000 1.0
END
