TITL C-3866671-3735-365 0.021454927836008 125000 -984.814430175073 0 0 160 (C1) n - 1
REM
REM in /home/nfs/bkarasulu/CARBON/AIRSS/Generating-Clusters/LCBOP/Only-C1/SD-CG/FIRE-CG
REM
REM
REM
REM
REM
REM ./C.cell (11c1c37f851c82e70ff6c80c92926a4b)
REM AIRSS Version 0.9.1 bugfix July 2018 build 013d7b7c2542+ Fri, 06 Jul 2018 19:26:36 +0100
REM compiler GCC version 9.2.1 20190827 (Red Hat 9.2.1-1)
REM options -cpp -mtune=generic -march=x86-64 -g -O0 -fpre-include=/usr/include/finclude/math-vector-fortran.h
REM seed -873446156 -98055306 -945555596 -1583243583 559315259 -547098625 1925419479 -1508996981 -1587456039 79816178 1148655302 1286523261 -1147665559 79510970 1893830430 -830587704 -1774836252 1534166752 1494145419 227311657 -99525553 1988309580 -2119613201 1695802917 88592194 -307993219 47919590 5492876 -1932280674 -84074123 -221861269 549813938 280224889
REM
CELL 1.54180   50.00000   50.00000   50.00000   90.00000   90.00000   90.00000
LATT -1
SFAC C  
C      1  0.4871770000000  0.5465780000000  0.3867680000000 1.0
C      1  0.4482480000000  0.4067030000000  0.5124570000000 1.0
C      1  0.4850750000000  0.4341950000000  0.5206290000000 1.0
C      1  0.4386530000000  0.4307640000000  0.4241340000000 1.0
C      1  0.5366430000000  0.3956110000000  0.4699530000000 1.0
C      1  0.5025280000000  0.5795570000000  0.4517490000000 1.0
C      1  0.5548750000000  0.5079980000000  0.4136940000000 1.0
C      1  0.5410700000000  0.4659100000000  0.5257080000000 1.0
C      1  0.5487810000000  0.4393830000000  0.5432750000000 1.0
C      1  0.5354050000000  0.4956240000000  0.4616700000000 1.0
C      1  0.4904160000000  0.5000120000000  0.5665250000000 1.0
C      1  0.3387410000000  0.6312850000000  0.4243890000000 1.0
C      1  0.4833900000000  0.4117650000000  0.4197160000000 1.0
C      1  0.5649610000000  0.3940360000000  0.4771160000000 1.0
C      1  0.5495800000000  0.5234350000000  0.5046400000000 1.0
C      1  0.5639130000000  0.5325140000000  0.4827730000000 1.0
C      1  0.5658350000000  0.5129470000000  0.5254300000000 1.0
C      1  0.5029360000000  0.4610630000000  0.4805120000000 1.0
C      1  0.5613380000000  0.4862710000000  0.5303410000000 1.0
C      1  0.5112950000000  0.5255080000000  0.4267530000000 1.0
C      1  0.4051520000000  0.5658040000000  0.4738220000000 1.0
C      1  0.5232680000000  0.5039770000000  0.5992310000000 1.0
C      1  0.4804710000000  0.3819200000000  0.5386550000000 1.0
C      1  0.5335110000000  0.3895630000000  0.5186980000000 1.0
C      1  0.5780580000000  0.4385830000000  0.5330670000000 1.0
C      1  0.5546430000000  0.5378260000000  0.4178350000000 1.0
C      1  0.4901090000000  0.3860050000000  0.4898280000000 1.0
C      1  0.4780250000000  0.5782460000000  0.5600500000000 1.0
C      1  0.5543600000000  0.4777120000000  0.4747970000000 1.0
C      1  0.5283630000000  0.5435200000000  0.5492320000000 1.0
C      1  0.4538440000000  0.4633380000000  0.5650200000000 1.0
C      1  0.6150720000000  0.5524410000000  0.5547130000000 1.0
C      1  0.4599520000000  0.5057840000000  0.3952520000000 1.0
C      1  0.4989930000000  0.4638670000000  0.4286360000000 1.0
C      1  0.4222540000000  0.5446530000000  0.5145890000000 1.0
C      1  0.5004060000000  0.4803900000000  0.5025100000000 1.0
C      1  0.4501780000000  0.5671930000000  0.5612020000000 1.0
C      1  0.5060760000000  0.5888460000000  0.3914140000000 1.0
C      1  0.5008590000000  0.5701080000000  0.5787780000000 1.0
C      1  0.4812130000000  0.5972150000000  0.3999220000000 1.0
C      1  0.3800740000000  0.4719000000000  0.4924010000000 1.0
C      1  0.4588120000000  0.4281400000000  0.5283690000000 1.0
C      1  0.4030290000000  0.4815750000000  0.4523070000000 1.0
C      1  0.5719230000000  0.5274810000000  0.5485980000000 1.0
C      1  0.3550700000000  0.6151350000000  0.4367260000000 1.0
C      1  0.4518930000000  0.5279260000000  0.4131970000000 1.0
C      1  0.4429290000000  0.4763810000000  0.4991140000000 1.0
C      1  0.4802230000000  0.3913650000000  0.4634230000000 1.0
C      1  0.4782930000000  0.5590230000000  0.4886820000000 1.0
C      1  0.4522550000000  0.3933100000000  0.4603850000000 1.0
C      1  0.3843600000000  0.4912000000000  0.4717500000000 1.0
C      1  0.4887200000000  0.5140610000000  0.4689860000000 1.0
C      1  0.4040260000000  0.4306850000000  0.5029540000000 1.0
C      1  0.5263690000000  0.5490330000000  0.4152890000000 1.0
C      1  0.5017780000000  0.5071730000000  0.4946480000000 1.0
C      1  0.4700850000000  0.5372150000000  0.4721570000000 1.0
C      1  0.4637900000000  0.5086010000000  0.3415180000000 1.0
C      1  0.4768220000000  0.5571490000000  0.5172750000000 1.0
C      1  0.4969520000000  0.4020730000000  0.4425280000000 1.0
C      1  0.4669890000000  0.5484400000000  0.6029050000000 1.0
C      1  0.5135750000000  0.5123550000000  0.4513160000000 1.0
C      1  0.5390150000000  0.5906960000000  0.5537570000000 1.0
C      1  0.5213380000000  0.5703210000000  0.4357840000000 1.0
C      1  0.4652190000000  0.4326760000000  0.4145160000000 1.0
C      1  0.4476300000000  0.5479990000000  0.5822420000000 1.0
C      1  0.4360440000000  0.5215810000000  0.4383520000000 1.0
C      1  0.5097900000000  0.5300760000000  0.5334410000000 1.0
C      1  0.4210150000000  0.4958770000000  0.4360190000000 1.0
C      1  0.4238970000000  0.4313600000000  0.4481830000000 1.0
C      1  0.5726670000000  0.4378250000000  0.5029070000000 1.0
C      1  0.5640740000000  0.5989890000000  0.4655450000000 1.0
C      1  0.6242780000000  0.5752510000000  0.5448990000000 1.0
C      1  0.5228870000000  0.6174620000000  0.4840440000000 1.0
C      1  0.5246310000000  0.4092950000000  0.4474210000000 1.0
C      1  0.5880020000000  0.5322760000000  0.5924520000000 1.0
C      1  0.6220440000000  0.4691260000000  0.4987070000000 1.0
C      1  0.3959940000000  0.4452560000000  0.5271700000000 1.0
C      1  0.6070770000000  0.4772800000000  0.4780850000000 1.0
C      1  0.5508060000000  0.6129340000000  0.4870500000000 1.0
C      1  0.6201990000000  0.4596880000000  0.5237470000000 1.0
C      1  0.5996280000000  0.4764840000000  0.5641760000000 1.0
C      1  0.4670390000000  0.4650850000000  0.5908240000000 1.0
C      1  0.5729500000000  0.5562380000000  0.5996010000000 1.0
C      1  0.5996490000000  0.4558940000000  0.5432250000000 1.0
C      1  0.4629390000000  0.5087930000000  0.3675720000000 1.0
C      1  0.3883090000000  0.5823040000000  0.4617630000000 1.0
C      1  0.4061350000000  0.4520420000000  0.4567020000000 1.0
C      1  0.4314030000000  0.4786530000000  0.4159350000000 1.0
C      1  0.5368520000000  0.5678440000000  0.5369880000000 1.0
C      1  0.5180310000000  0.4762850000000  0.6058760000000 1.0
C      1  0.4420570000000  0.5350100000000  0.4648900000000 1.0
C      1  0.5288780000000  0.5815030000000  0.5796940000000 1.0
C      1  0.5216770000000  0.4425070000000  0.4899440000000 1.0
C      1  0.5739130000000  0.5063600000000  0.5969270000000 1.0
C      1  0.5480980000000  0.4560100000000  0.4959010000000 1.0
C      1  0.4938360000000  0.5450970000000  0.5933250000000 1.0
C      1  0.4261310000000  0.4137500000000  0.4955940000000 1.0
C      1  0.4337880000000  0.5614400000000  0.5364630000000 1.0
C      1  0.5820890000000  0.4802280000000  0.4690540000000 1.0
C      1  0.3920120000000  0.4465850000000  0.4815740000000 1.0
C      1  0.5686720000000  0.5805590000000  0.4458360000000 1.0
C      1  0.4488120000000  0.4385390000000  0.5524250000000 1.0
C      1  0.4434890000000  0.5221650000000  0.5721610000000 1.0
C      1  0.5416610000000  0.5697000000000  0.5103020000000 1.0
C      1  0.6299100000000  0.5987250000000  0.5339540000000 1.0
C      1  0.4575020000000  0.4796020000000  0.4054110000000 1.0
C      1  0.5565870000000  0.3729630000000  0.5188910000000 1.0
C      1  0.5771810000000  0.5367240000000  0.4601710000000 1.0
C      1  0.5011630000000  0.4744480000000  0.5542690000000 1.0
C      1  0.5011540000000  0.5172820000000  0.5874690000000 1.0
C      1  0.5125340000000  0.4752220000000  0.5278780000000 1.0
C      1  0.4315960000000  0.4111950000000  0.4674120000000 1.0
C      1  0.5518570000000  0.6120950000000  0.5401270000000 1.0
C      1  0.4734790000000  0.4894000000000  0.4606690000000 1.0
C      1  0.5501570000000  0.5712390000000  0.5966900000000 1.0
C      1  0.4803360000000  0.5324740000000  0.5333400000000 1.0
C      1  0.5442530000000  0.4821540000000  0.4153580000000 1.0
C      1  0.5784240000000  0.4181590000000  0.4834690000000 1.0
C      1  0.4507040000000  0.4822460000000  0.4746810000000 1.0
C      1  0.3891100000000  0.4731940000000  0.5198300000000 1.0
C      1  0.4707250000000  0.3869190000000  0.5120520000000 1.0
C      1  0.5349300000000  0.4327830000000  0.4334520000000 1.0
C      1  0.5116150000000  0.5604830000000  0.3915870000000 1.0
C      1  0.4653300000000  0.5113620000000  0.5528270000000 1.0
C      1  0.4878380000000  0.3973750000000  0.5596900000000 1.0
C      1  0.5208880000000  0.5220470000000  0.5084780000000 1.0
C      1  0.4064090000000  0.5221160000000  0.5231000000000 1.0
C      1  0.4078870000000  0.4939870000000  0.5255920000000 1.0
C      1  0.5272580000000  0.4592300000000  0.4236690000000 1.0
C      1  0.5380520000000  0.4574570000000  0.5965190000000 1.0
C      1  0.5851970000000  0.4812650000000  0.5886590000000 1.0
C      1  0.4909940000000  0.5817490000000  0.4767660000000 1.0
C      1  0.4824360000000  0.5815070000000  0.5321270000000 1.0
C      1  0.4992790000000  0.6044080000000  0.4919700000000 1.0
C      1  0.4637200000000  0.5519520000000  0.4033050000000 1.0
C      1  0.4518090000000  0.4852150000000  0.5460250000000 1.0
C      1  0.4346200000000  0.4843950000000  0.5241500000000 1.0
C      1  0.5473630000000  0.5127110000000  0.5880720000000 1.0
C      1  0.4897880000000  0.6045860000000  0.5183160000000 1.0
C      1  0.4610540000000  0.5799950000000  0.4072650000000 1.0
C      1  0.4238720000000  0.5477040000000  0.4848250000000 1.0
C      1  0.4916820000000  0.4681170000000  0.4558150000000 1.0
C      1  0.5700620000000  0.5526100000000  0.4380740000000 1.0
C      1  0.5477060000000  0.5295000000000  0.5643620000000 1.0
C      1  0.3920040000000  0.4342910000000  0.5517700000000 1.0
C      1  0.5594600000000  0.6167750000000  0.5142290000000 1.0
C      1  0.4897950000000  0.4684300000000  0.6059410000000 1.0
C      1  0.4220190000000  0.5076190000000  0.5808050000000 1.0
C      1  0.5113170000000  0.4289270000000  0.5127930000000 1.0
C      1  0.3716720000000  0.5987140000000  0.4492690000000 1.0
C      1  0.5318560000000  0.4165370000000  0.5291630000000 1.0
C      1  0.5068560000000  0.4474470000000  0.5655330000000 1.0
C      1  0.5359700000000  0.4454620000000  0.5706060000000 1.0
C      1  0.5189360000000  0.3873870000000  0.4927680000000 1.0
C      1  0.6116110000000  0.5024910000000  0.5581120000000 1.0
C      1  0.6340730000000  0.6219080000000  0.5227800000000 1.0
C      1  0.4761650000000  0.4591660000000  0.4117600000000 1.0
C      1  0.4938590000000  0.4222560000000  0.5683350000000 1.0
C      1  0.5986170000000  0.5297390000000  0.5631450000000 1.0
C      1  0.5710390000000  0.3728420000000  0.4955950000000 1.0
END
