TITL C-3866670-4165-45 -4.52363910380984e-07 125000 -493.445134072181 0 0 82 (C1) n - 1
REM
REM in /home/nfs/bkarasulu/CARBON/AIRSS/Generating-Clusters/LCBOP/Only-C1/SD-CG/HFTN-CG/FIRE-CG
REM
REM
REM
REM
REM
REM ./C.cell (11c1c37f851c82e70ff6c80c92926a4b)
REM AIRSS Version 0.9.1 bugfix July 2018 build 013d7b7c2542+ Fri, 06 Jul 2018 19:26:36 +0100
REM compiler GCC version 9.2.1 20190827 (Red Hat 9.2.1-1)
REM options -cpp -mtune=generic -march=x86-64 -g -O0 -fpre-include=/usr/include/finclude/math-vector-fortran.h
REM seed 1983360704 876332634 734996443 28922066 1706713449 58375730 -2120449777 -607817027 -1956010226 1886061641 218939185 1701969358 346787581 -1622951941 1357151487 94582535 -39541337 -1729054273 -698626357 -324316140 -951904102 -1924429659 -1696280274 -1859969701 1102291095 269703756 289295688 338357958 -2141177372 -466079393 507849930 184920183 176355595
REM
CELL 1.54180   50.00000   50.00000   50.00000   90.00000   90.00000   90.00000
LATT -1
SFAC C  
C      1  0.5744790000000  0.4731030000000  0.5649280000000 1.0
C      1  0.4832040000000  0.5361810000000  0.5018760000000 1.0
C      1  0.4227070000000  0.5481640000000  0.4850840000000 1.0
C      1  0.4087470000000  0.5101550000000  0.5184650000000 1.0
C      1  0.5129200000000  0.5416080000000  0.4450160000000 1.0
C      1  0.4265370000000  0.5073300000000  0.5413380000000 1.0
C      1  0.4664800000000  0.4903650000000  0.5218340000000 1.0
C      1  0.5252370000000  0.5840470000000  0.5180100000000 1.0
C      1  0.4896490000000  0.4248850000000  0.5249210000000 1.0
C      1  0.5395230000000  0.4389980000000  0.5119650000000 1.0
C      1  0.5819320000000  0.5500290000000  0.4675680000000 1.0
C      1  0.5224850000000  0.5352250000000  0.5726070000000 1.0
C      1  0.4557820000000  0.4969920000000  0.4968300000000 1.0
C      1  0.5548980000000  0.5546090000000  0.5416500000000 1.0
C      1  0.4827590000000  0.5518950000000  0.5475420000000 1.0
C      1  0.4448270000000  0.4949210000000  0.4367230000000 1.0
C      1  0.4527020000000  0.5752690000000  0.5130900000000 1.0
C      1  0.4089820000000  0.4871760000000  0.5015510000000 1.0
C      1  0.4983360000000  0.4863360000000  0.4736900000000 1.0
C      1  0.4788010000000  0.5620130000000  0.5180850000000 1.0
C      1  0.4423730000000  0.5330300000000  0.4699960000000 1.0
C      1  0.4547700000000  0.4616820000000  0.5529310000000 1.0
C      1  0.5273540000000  0.4646970000000  0.4472800000000 1.0
C      1  0.4323820000000  0.5725720000000  0.4956370000000 1.0
C      1  0.5097780000000  0.5668800000000  0.4562200000000 1.0
C      1  0.5744100000000  0.4758970000000  0.4544080000000 1.0
C      1  0.4465600000000  0.4355590000000  0.5061700000000 1.0
C      1  0.5178360000000  0.4189590000000  0.4654790000000 1.0
C      1  0.4692820000000  0.4737640000000  0.5756930000000 1.0
C      1  0.5129450000000  0.4666070000000  0.5730790000000 1.0
C      1  0.4796620000000  0.5080110000000  0.5744900000000 1.0
C      1  0.5805860000000  0.5428610000000  0.4950510000000 1.0
C      1  0.4059030000000  0.5339850000000  0.5033440000000 1.0
C      1  0.5290470000000  0.5704310000000  0.5426940000000 1.0
C      1  0.5510270000000  0.4774650000000  0.4098050000000 1.0
C      1  0.4833490000000  0.4063600000000  0.5023770000000 1.0
C      1  0.5491660000000  0.4494800000000  0.4872060000000 1.0
C      1  0.4461300000000  0.5230810000000  0.4431240000000 1.0
C      1  0.4895350000000  0.4567500000000  0.5863550000000 1.0
C      1  0.5687250000000  0.4888950000000  0.4294750000000 1.0
C      1  0.5867340000000  0.5155080000000  0.4990750000000 1.0
C      1  0.4622120000000  0.5226890000000  0.4878400000000 1.0
C      1  0.5091370000000  0.5564030000000  0.5579170000000 1.0
C      1  0.5674940000000  0.4714050000000  0.4818550000000 1.0
C      1  0.5016790000000  0.4743990000000  0.4971820000000 1.0
C      1  0.4873400000000  0.4365790000000  0.6041830000000 1.0
C      1  0.5764710000000  0.5161670000000  0.4287100000000 1.0
C      1  0.5809290000000  0.5382290000000  0.4433950000000 1.0
C      1  0.5282000000000  0.5190970000000  0.4560860000000 1.0
C      1  0.4631250000000  0.4405510000000  0.5322290000000 1.0
C      1  0.5517430000000  0.4949190000000  0.5219490000000 1.0
C      1  0.5271820000000  0.4673560000000  0.4011130000000 1.0
C      1  0.5081470000000  0.4712650000000  0.5452260000000 1.0
C      1  0.4337330000000  0.4797480000000  0.4903750000000 1.0
C      1  0.5013940000000  0.4043830000000  0.4808980000000 1.0
C      1  0.5328020000000  0.4427300000000  0.4643150000000 1.0
C      1  0.4665710000000  0.5308210000000  0.5606480000000 1.0
C      1  0.5176660000000  0.4307820000000  0.5259410000000 1.0
C      1  0.4492920000000  0.4507350000000  0.4568860000000 1.0
C      1  0.5010200000000  0.5814080000000  0.4768790000000 1.0
C      1  0.4983700000000  0.5019030000000  0.4263290000000 1.0
C      1  0.5505030000000  0.5810950000000  0.5041960000000 1.0
C      1  0.4410710000000  0.4533780000000  0.4840650000000 1.0
C      1  0.4553360000000  0.4090590000000  0.4979730000000 1.0
C      1  0.4924550000000  0.4790250000000  0.5230440000000 1.0
C      1  0.5090260000000  0.5248820000000  0.5062650000000 1.0
C      1  0.5008710000000  0.4606040000000  0.4041370000000 1.0
C      1  0.5005030000000  0.5803170000000  0.5051720000000 1.0
C      1  0.4385450000000  0.5287590000000  0.5555280000000 1.0
C      1  0.5079110000000  0.5129070000000  0.5817850000000 1.0
C      1  0.5706540000000  0.4925140000000  0.5008130000000 1.0
C      1  0.5667160000000  0.5588140000000  0.5145350000000 1.0
C      1  0.5298150000000  0.5118870000000  0.5169680000000 1.0
C      1  0.4764370000000  0.4610350000000  0.4162670000000 1.0
C      1  0.5597850000000  0.4841080000000  0.5463810000000 1.0
C      1  0.4448820000000  0.4852030000000  0.5399100000000 1.0
C      1  0.4927410000000  0.5302370000000  0.4273920000000 1.0
C      1  0.5504710000000  0.5361350000000  0.5635980000000 1.0
C      1  0.5229400000000  0.4893380000000  0.5865120000000 1.0
C      1  0.5146830000000  0.4918250000000  0.4498240000000 1.0
C      1  0.4655180000000  0.5372240000000  0.4277270000000 1.0
C      1  0.4560880000000  0.4683110000000  0.4352880000000 1.0
END
