TITL C-3866669-3764-680 -211.171606327654 125000 -1070.57488810915 0 0 176 (C1) n - 1
REM
REM in /home/nfs/bkarasulu/CARBON/AIRSS/Generating-Clusters/LCBOP/Only-C1/SD-CG/FIRE-CG
REM
REM
REM
REM
REM
REM ./C.cell (11c1c37f851c82e70ff6c80c92926a4b)
REM AIRSS Version 0.9.1 bugfix July 2018 build 013d7b7c2542+ Fri, 06 Jul 2018 19:26:36 +0100
REM compiler GCC version 9.2.1 20190827 (Red Hat 9.2.1-1)
REM options -cpp -mtune=generic -march=x86-64 -g -O0 -fpre-include=/usr/include/finclude/math-vector-fortran.h
REM seed 308307424 -1061555161 -884436307 480177308 -2085308999 -1010594339 1059769900 1590503821 1137242675 -1330010747 778409434 -829341533 -1219488207 -1225763657 -1350426200 -2031259371 761877482 -1070533986 -1362233548 319229190 11879224 -887499116 -3390044 1988607713 -444639670 -1008936739 296425722 -642093251 287187165 -1337141620 1800456214 -1413644108 1212543451
REM
CELL 1.54180   50.00000   50.00000   50.00000   90.00000   90.00000   90.00000
LATT -1
SFAC C  
C      1  0.5635830000000  0.5406110000000  0.5417200000000 1.0
C      1  0.4864680000000  0.4393950000000  0.5035500000000 1.0
C      1  0.4186650000000  0.4448250000000  0.5578180000000 1.0
C      1  0.4218680000000  0.5256070000000  0.4812380000000 1.0
C      1  0.4333130000000  0.5001520000000  0.5832690000000 1.0
C      1  0.4283440000000  0.5775780000000  0.5587240000000 1.0
C      1  0.5239210000000  0.4486520000000  0.5328010000000 1.0
C      1  0.4964830000000  0.4823410000000  0.5757950000000 1.0
C      1  0.4763740000000  0.4028740000000  0.4625290000000 1.0
C      1  0.5561600000000  0.4703690000000  0.6103160000000 1.0
C      1  0.4772610000000  0.3961120000000  0.5387500000000 1.0
C      1  0.4592930000000  0.4180070000000  0.5467390000000 1.0
C      1  0.4296360000000  0.4969710000000  0.4221860000000 1.0
C      1  0.3857510000000  0.4596910000000  0.4711290000000 1.0
C      1  0.4551690000000  0.4434130000000  0.6179640000000 1.0
C      1  0.4320960000000  0.5885590000000  0.5304060000000 1.0
C      1  0.4672490000000  0.4072330000000  0.4344930000000 1.0
C      1  0.5020180000000  0.3869430000000  0.5290000000000 1.0
C      1  0.4657860000000  0.5117830000000  0.4736220000000 1.0
C      1  0.4391820000000  0.4664600000000  0.6197520000000 1.0
C      1  0.5369640000000  0.4722900000000  0.3883550000000 1.0
C      1  0.5934930000000  0.5261660000000  0.5950400000000 1.0
C      1  0.4815470000000  0.5725150000000  0.4224340000000 1.0
C      1  0.4444300000000  0.5449170000000  0.4267100000000 1.0
C      1  0.4783870000000  0.4823370000000  0.5333720000000 1.0
C      1  0.5301690000000  0.4643320000000  0.4778970000000 1.0
C      1  0.5974610000000  0.5896800000000  0.6013060000000 1.0
C      1  0.3841970000000  0.5304700000000  0.5246450000000 1.0
C      1  0.5266570000000  0.5743300000000  0.5268950000000 1.0
C      1  0.5069460000000  0.5180680000000  0.3754130000000 1.0
C      1  0.5747290000000  0.4495120000000  0.4108390000000 1.0
C      1  0.4487390000000  0.5111500000000  0.5615450000000 1.0
C      1  0.5196910000000  0.5281580000000  0.6495600000000 1.0
C      1  0.6024040000000  0.4957910000000  0.4495650000000 1.0
C      1  0.3989800000000  0.5539890000000  0.5296740000000 1.0
C      1  0.4131990000000  0.5732450000000  0.5120940000000 1.0
C      1  0.4643400000000  0.5338430000000  0.5658410000000 1.0
C      1  0.4956260000000  0.4968360000000  0.6199860000000 1.0
C      1  0.3806540000000  0.4500030000000  0.5313040000000 1.0
C      1  0.4403660000000  0.5042970000000  0.5359310000000 1.0
C      1  0.4791630000000  0.4676500000000  0.5584670000000 1.0
C      1  0.5072410000000  0.5962370000000  0.5251600000000 1.0
C      1  0.3895280000000  0.4342970000000  0.4830300000000 1.0
C      1  0.6000020000000  0.5109060000000  0.4964940000000 1.0
C      1  0.6106160000000  0.5221860000000  0.5201430000000 1.0
C      1  0.5808420000000  0.4784970000000  0.4581340000000 1.0
C      1  0.5079690000000  0.5068510000000  0.5631550000000 1.0
C      1  0.5290710000000  0.5246270000000  0.5092490000000 1.0
C      1  0.5239080000000  0.4963700000000  0.3780240000000 1.0
C      1  0.5912270000000  0.5848670000000  0.3612430000000 1.0
C      1  0.5490010000000  0.4120210000000  0.5032790000000 1.0
C      1  0.5708300000000  0.5779630000000  0.3435650000000 1.0
C      1  0.4484500000000  0.5338840000000  0.4752980000000 1.0
C      1  0.5163470000000  0.5156270000000  0.6256920000000 1.0
C      1  0.4882150000000  0.5143140000000  0.4892620000000 1.0
C      1  0.4179410000000  0.5433760000000  0.4369560000000 1.0
C      1  0.4087940000000  0.4155400000000  0.4715620000000 1.0
C      1  0.5227400000000  0.4036860000000  0.5166280000000 1.0
C      1  0.5307970000000  0.5002590000000  0.4481930000000 1.0
C      1  0.5584390000000  0.4942230000000  0.5271890000000 1.0
C      1  0.5779680000000  0.5480830000000  0.5855180000000 1.0
C      1  0.5852890000000  0.4946300000000  0.3975080000000 1.0
C      1  0.4786070000000  0.4755200000000  0.3916580000000 1.0
C      1  0.4894420000000  0.4748410000000  0.4569980000000 1.0
C      1  0.4915600000000  0.5160690000000  0.4252140000000 1.0
C      1  0.4865680000000  0.4495960000000  0.4437320000000 1.0
C      1  0.5842110000000  0.5760510000000  0.3868530000000 1.0
C      1  0.5801020000000  0.4803100000000  0.6034670000000 1.0
C      1  0.5424750000000  0.4451380000000  0.5541090000000 1.0
C      1  0.5814560000000  0.5920600000000  0.5014840000000 1.0
C      1  0.4992940000000  0.5258850000000  0.5133520000000 1.0
C      1  0.4336810000000  0.4868940000000  0.5173190000000 1.0
C      1  0.5580320000000  0.5626740000000  0.3862320000000 1.0
C      1  0.5311460000000  0.4619800000000  0.6005130000000 1.0
C      1  0.5369860000000  0.5159520000000  0.5733350000000 1.0
C      1  0.4632140000000  0.5355120000000  0.6134180000000 1.0
C      1  0.4884120000000  0.4921340000000  0.4101920000000 1.0
C      1  0.4151100000000  0.4156880000000  0.5194310000000 1.0
C      1  0.4517500000000  0.5757640000000  0.5761100000000 1.0
C      1  0.5314620000000  0.4405200000000  0.4249500000000 1.0
C      1  0.5524800000000  0.5226220000000  0.4891120000000 1.0
C      1  0.4573290000000  0.5216740000000  0.3822620000000 1.0
C      1  0.5573350000000  0.4914710000000  0.4476100000000 1.0
C      1  0.5892200000000  0.5103530000000  0.3753980000000 1.0
C      1  0.5532110000000  0.4955250000000  0.5561240000000 1.0
C      1  0.3911090000000  0.4321210000000  0.5121500000000 1.0
C      1  0.6079400000000  0.5437200000000  0.4628340000000 1.0
C      1  0.4217230000000  0.4029920000000  0.4943430000000 1.0
C      1  0.5301950000000  0.5481540000000  0.4314320000000 1.0
C      1  0.5003980000000  0.4278040000000  0.3947550000000 1.0
C      1  0.5891070000000  0.5847480000000  0.5538940000000 1.0
C      1  0.4778140000000  0.5515720000000  0.5478860000000 1.0
C      1  0.4016210000000  0.5354440000000  0.5754080000000 1.0
C      1  0.4683410000000  0.5071530000000  0.6167630000000 1.0
C      1  0.4059150000000  0.5067090000000  0.5773000000000 1.0
C      1  0.4092780000000  0.5625190000000  0.4575050000000 1.0
C      1  0.6036810000000  0.4627090000000  0.5174880000000 1.0
C      1  0.5176080000000  0.5225040000000  0.4358820000000 1.0
C      1  0.4758310000000  0.5784030000000  0.5588030000000 1.0
C      1  0.5025750000000  0.3920270000000  0.4643430000000 1.0
C      1  0.3808340000000  0.5063150000000  0.5363580000000 1.0
C      1  0.4859410000000  0.6271740000000  0.4936600000000 1.0
C      1  0.4729500000000  0.4242030000000  0.6130060000000 1.0
C      1  0.4465260000000  0.4784280000000  0.4374380000000 1.0
C      1  0.5319740000000  0.5704860000000  0.4492930000000 1.0
C      1  0.4674060000000  0.4640150000000  0.3710350000000 1.0
C      1  0.5959800000000  0.4941200000000  0.5581140000000 1.0
C      1  0.5936600000000  0.4986180000000  0.5868730000000 1.0
C      1  0.5154850000000  0.4818490000000  0.4630750000000 1.0
C      1  0.5736260000000  0.5825110000000  0.4760550000000 1.0
C      1  0.4732920000000  0.5718940000000  0.4489740000000 1.0
C      1  0.5471940000000  0.4155350000000  0.4738970000000 1.0
C      1  0.4573540000000  0.5497340000000  0.5896420000000 1.0
C      1  0.5118080000000  0.4337100000000  0.4439970000000 1.0
C      1  0.4854690000000  0.5596600000000  0.3980780000000 1.0
C      1  0.5481340000000  0.5871300000000  0.4636360000000 1.0
C      1  0.5874770000000  0.4472960000000  0.4991510000000 1.0
C      1  0.6090010000000  0.5157550000000  0.4694540000000 1.0
C      1  0.4845600000000  0.4109010000000  0.4105010000000 1.0
C      1  0.6016820000000  0.4986890000000  0.4209770000000 1.0
C      1  0.4208050000000  0.4187050000000  0.4465940000000 1.0
C      1  0.5331930000000  0.5189250000000  0.6033330000000 1.0
C      1  0.4114830000000  0.5144230000000  0.4379140000000 1.0
C      1  0.5693110000000  0.4304250000000  0.5160080000000 1.0
C      1  0.5722370000000  0.5051550000000  0.5028600000000 1.0
C      1  0.4835790000000  0.5347930000000  0.3821830000000 1.0
C      1  0.5315440000000  0.4950210000000  0.5176690000000 1.0
C      1  0.5439870000000  0.5514910000000  0.4071270000000 1.0
C      1  0.4948260000000  0.4135940000000  0.6019460000000 1.0
C      1  0.5059090000000  0.4765850000000  0.6016820000000 1.0
C      1  0.4936910000000  0.5076150000000  0.5375390000000 1.0
C      1  0.4751420000000  0.5650710000000  0.4984180000000 1.0
C      1  0.5217600000000  0.4121890000000  0.4611580000000 1.0
C      1  0.4559370000000  0.6044880000000  0.5245430000000 1.0
C      1  0.5934510000000  0.5200420000000  0.5424690000000 1.0
C      1  0.4631600000000  0.5592740000000  0.4734420000000 1.0
C      1  0.4160010000000  0.4657260000000  0.6343460000000 1.0
C      1  0.5807750000000  0.4529180000000  0.4718190000000 1.0
C      1  0.4028110000000  0.4814700000000  0.4761540000000 1.0
C      1  0.3924700000000  0.4903370000000  0.5572040000000 1.0
C      1  0.3963480000000  0.4621000000000  0.5519810000000 1.0
C      1  0.5172720000000  0.4180720000000  0.5879660000000 1.0
C      1  0.4650400000000  0.4895750000000  0.4571810000000 1.0
C      1  0.5693910000000  0.4448150000000  0.5434240000000 1.0
C      1  0.4886460000000  0.4676980000000  0.5113590000000 1.0
C      1  0.5083020000000  0.6153430000000  0.5038900000000 1.0
C      1  0.4607590000000  0.6222770000000  0.5029480000000 1.0
C      1  0.5834920000000  0.5571090000000  0.4674410000000 1.0
C      1  0.4842260000000  0.5499840000000  0.5204970000000 1.0
C      1  0.5407520000000  0.5485910000000  0.5255210000000 1.0
C      1  0.5916390000000  0.4668340000000  0.5442860000000 1.0
C      1  0.5174940000000  0.4718130000000  0.5173900000000 1.0
C      1  0.5507380000000  0.5647240000000  0.3578370000000 1.0
C      1  0.4064740000000  0.5070000000000  0.4650590000000 1.0
C      1  0.4309090000000  0.4232720000000  0.5420620000000 1.0
C      1  0.4388010000000  0.5071030000000  0.3964490000000 1.0
C      1  0.4574220000000  0.4511090000000  0.4344610000000 1.0
C      1  0.5620240000000  0.5386400000000  0.4690150000000 1.0
C      1  0.5094180000000  0.4287760000000  0.5184290000000 1.0
C      1  0.4076900000000  0.5569960000000  0.5576400000000 1.0
C      1  0.4808450000000  0.5972770000000  0.5388410000000 1.0
C      1  0.4726780000000  0.4227230000000  0.4843520000000 1.0
C      1  0.4679330000000  0.5313310000000  0.4287620000000 1.0
C      1  0.5561580000000  0.5398940000000  0.5688110000000 1.0
C      1  0.4466850000000  0.4906000000000  0.6067410000000 1.0
C      1  0.5589880000000  0.4375330000000  0.4308550000000 1.0
C      1  0.5660890000000  0.4729350000000  0.3964450000000 1.0
C      1  0.5867860000000  0.5910620000000  0.5278430000000 1.0
C      1  0.4448320000000  0.4255400000000  0.4342640000000 1.0
C      1  0.5656560000000  0.4322230000000  0.4583940000000 1.0
C      1  0.5883890000000  0.5743930000000  0.5804670000000 1.0
C      1  0.4212400000000  0.4762980000000  0.4967390000000 1.0
C      1  0.4097740000000  0.5725120000000  0.4833130000000 1.0
C      1  0.5324290000000  0.4407280000000  0.5807000000000 1.0
C      1  0.5222410000000  0.4477400000000  0.3985620000000 1.0
C      1  0.4718150000000  0.4407020000000  0.5588370000000 1.0
END
