TITL C-3866672-3872-348 -6.83883258437801e-07 125000 -571.462056736485 0 0 93 (C1) n - 1
REM
REM in /home/nfs/bkarasulu/CARBON/AIRSS/Generating-Clusters/LCBOP/Only-C1/SD-CG/FIRE-CG
REM
REM
REM
REM
REM
REM ./C.cell (11c1c37f851c82e70ff6c80c92926a4b)
REM AIRSS Version 0.9.1 bugfix July 2018 build 013d7b7c2542+ Fri, 06 Jul 2018 19:26:36 +0100
REM compiler GCC version 9.2.1 20190827 (Red Hat 9.2.1-1)
REM options -cpp -mtune=generic -march=x86-64 -g -O0 -fpre-include=/usr/include/finclude/math-vector-fortran.h
REM seed -1332747612 379412527 315286755 675840038 -1725991212 410086170 -523153765 117164568 -905859140 -2117355697 -532295244 -1460225795 1384880331 956487911 345350385 -34353245 -603238228 -1133543817 -981820813 534009252 -1290799901 -691050079 -552795359 -600034702 -1574791238 985057804 299968221 131156177 109560166 2025904408 -1459427517 289533556 1911301910
REM
CELL 1.54180   50.00000   50.00000   50.00000   90.00000   90.00000   90.00000
LATT -1
SFAC C  
C      1  0.4483010000000  0.5370110000000  0.5358310000000 1.0
C      1  0.6164200000000  0.4867040000000  0.4907650000000 1.0
C      1  0.5245100000000  0.5475500000000  0.4219180000000 1.0
C      1  0.4596420000000  0.5854680000000  0.5010650000000 1.0
C      1  0.4128970000000  0.4808520000000  0.5443170000000 1.0
C      1  0.4167060000000  0.5324800000000  0.4623900000000 1.0
C      1  0.4745110000000  0.3956020000000  0.5361970000000 1.0
C      1  0.4253820000000  0.4768600000000  0.4738410000000 1.0
C      1  0.5239570000000  0.5904400000000  0.5249040000000 1.0
C      1  0.4965980000000  0.5367510000000  0.5220320000000 1.0
C      1  0.4346530000000  0.4397940000000  0.4446540000000 1.0
C      1  0.4266480000000  0.5401210000000  0.4378150000000 1.0
C      1  0.5945560000000  0.5772930000000  0.5282730000000 1.0
C      1  0.5377460000000  0.5434080000000  0.4712610000000 1.0
C      1  0.4345860000000  0.4369100000000  0.5391330000000 1.0
C      1  0.5432410000000  0.4667020000000  0.5006480000000 1.0
C      1  0.5229450000000  0.4809540000000  0.4572730000000 1.0
C      1  0.4594060000000  0.5018900000000  0.4443300000000 1.0
C      1  0.6145810000000  0.4711250000000  0.4691990000000 1.0
C      1  0.5539100000000  0.4444080000000  0.4570900000000 1.0
C      1  0.5067550000000  0.4484620000000  0.5688590000000 1.0
C      1  0.5356950000000  0.4893160000000  0.4827220000000 1.0
C      1  0.4932560000000  0.4010680000000  0.5545020000000 1.0
C      1  0.4397890000000  0.5185740000000  0.5566510000000 1.0
C      1  0.4350490000000  0.5402060000000  0.5092450000000 1.0
C      1  0.5000410000000  0.5633290000000  0.4588280000000 1.0
C      1  0.5726660000000  0.5488340000000  0.4391250000000 1.0
C      1  0.4718990000000  0.5498970000000  0.4100000000000 1.0
C      1  0.5303310000000  0.4919250000000  0.5558830000000 1.0
C      1  0.4598560000000  0.4025450000000  0.5130210000000 1.0
C      1  0.5067040000000  0.5005210000000  0.4449810000000 1.0
C      1  0.5663640000000  0.5395330000000  0.5743110000000 1.0
C      1  0.5410390000000  0.5175630000000  0.4833960000000 1.0
C      1  0.4388310000000  0.4223070000000  0.5150350000000 1.0
C      1  0.4463080000000  0.5465420000000  0.4196020000000 1.0
C      1  0.4985160000000  0.4368640000000  0.4917200000000 1.0
C      1  0.4835180000000  0.4566310000000  0.5307800000000 1.0
C      1  0.5393030000000  0.5113410000000  0.5369080000000 1.0
C      1  0.4835300000000  0.5166610000000  0.4462230000000 1.0
C      1  0.4834010000000  0.4430210000000  0.4262760000000 1.0
C      1  0.4506200000000  0.4863820000000  0.4655700000000 1.0
C      1  0.4573080000000  0.5513290000000  0.4693100000000 1.0
C      1  0.4847420000000  0.5714440000000  0.5522190000000 1.0
C      1  0.4882590000000  0.3953640000000  0.4678420000000 1.0
C      1  0.5238320000000  0.5322910000000  0.5288110000000 1.0
C      1  0.6114470000000  0.5078670000000  0.5062670000000 1.0
C      1  0.6017400000000  0.4573120000000  0.4502760000000 1.0
C      1  0.5270480000000  0.4640700000000  0.5522670000000 1.0
C      1  0.4566700000000  0.4408240000000  0.4291630000000 1.0
C      1  0.4796810000000  0.4575260000000  0.5771680000000 1.0
C      1  0.4046160000000  0.4820980000000  0.5174090000000 1.0
C      1  0.5957520000000  0.5492010000000  0.5305310000000 1.0
C      1  0.4711870000000  0.4782620000000  0.4829350000000 1.0
C      1  0.4851670000000  0.5936720000000  0.4979400000000 1.0
C      1  0.5179760000000  0.5256000000000  0.5862780000000 1.0
C      1  0.5067300000000  0.5865110000000  0.5472260000000 1.0
C      1  0.4251450000000  0.4311090000000  0.4918250000000 1.0
C      1  0.5199040000000  0.5651790000000  0.4792360000000 1.0
C      1  0.4589800000000  0.5003480000000  0.5676790000000 1.0
C      1  0.4820790000000  0.4847730000000  0.5303260000000 1.0
C      1  0.4806650000000  0.5434210000000  0.4565110000000 1.0
C      1  0.4475880000000  0.5611850000000  0.4936090000000 1.0
C      1  0.5782570000000  0.4463080000000  0.4432560000000 1.0
C      1  0.5078980000000  0.4199570000000  0.5668230000000 1.0
C      1  0.5448410000000  0.5456880000000  0.4426020000000 1.0
C      1  0.4190440000000  0.5225820000000  0.4904130000000 1.0
C      1  0.5047760000000  0.4093890000000  0.4516910000000 1.0
C      1  0.5842660000000  0.5389050000000  0.5542580000000 1.0
C      1  0.5930640000000  0.5501870000000  0.4565690000000 1.0
C      1  0.4142480000000  0.5066200000000  0.5564160000000 1.0
C      1  0.4542700000000  0.4712360000000  0.5709950000000 1.0
C      1  0.4843110000000  0.5003700000000  0.5550220000000 1.0
C      1  0.5424500000000  0.5372750000000  0.5864580000000 1.0
C      1  0.6016330000000  0.5473310000000  0.4817180000000 1.0
C      1  0.5281600000000  0.4537750000000  0.4478210000000 1.0
C      1  0.5084230000000  0.5050930000000  0.5693390000000 1.0
C      1  0.4324300000000  0.4611290000000  0.5538500000000 1.0
C      1  0.4873540000000  0.5209930000000  0.5009490000000 1.0
C      1  0.4790590000000  0.4948770000000  0.5041390000000 1.0
C      1  0.4756780000000  0.5485990000000  0.5382200000000 1.0
C      1  0.4820610000000  0.4530920000000  0.4783320000000 1.0
C      1  0.4994400000000  0.5497950000000  0.4107600000000 1.0
C      1  0.4132990000000  0.4940380000000  0.4934640000000 1.0
C      1  0.5295440000000  0.4562750000000  0.5241100000000 1.0
C      1  0.5497980000000  0.6003910000000  0.5270210000000 1.0
C      1  0.5048340000000  0.4434750000000  0.5177210000000 1.0
C      1  0.5073770000000  0.4351790000000  0.4394640000000 1.0
C      1  0.5760730000000  0.5964670000000  0.5274260000000 1.0
C      1  0.4236220000000  0.4484060000000  0.4695200000000 1.0
C      1  0.4704800000000  0.3941030000000  0.4880280000000 1.0
C      1  0.5565450000000  0.4463960000000  0.4854830000000 1.0
C      1  0.6033640000000  0.5347370000000  0.5070600000000 1.0
C      1  0.5122170000000  0.5840970000000  0.4996720000000 1.0
END
