TITL C-3866676-3738-173 0.262570991045886 125000 -875.631011912348 0 0 142 (C1) n - 1
REM
REM in /home/nfs/bkarasulu/CARBON/AIRSS/Generating-Clusters/LCBOP/Only-C1/SD-CG/HFTN-CG/FIRE-CG
REM
REM
REM
REM
REM
REM ./C.cell (11c1c37f851c82e70ff6c80c92926a4b)
REM AIRSS Version 0.9.1 bugfix July 2018 build 013d7b7c2542+ Fri, 06 Jul 2018 19:26:36 +0100
REM compiler GCC version 9.2.1 20190827 (Red Hat 9.2.1-1)
REM options -cpp -mtune=generic -march=x86-64 -g -O0 -fpre-include=/usr/include/finclude/math-vector-fortran.h
REM seed -1182656303 -148280018 -692320785 -700094215 1147835139 456274390 -434051770 1187221153 -2105442110 251346265 -1579542783 -412427576 -642243694 2140966884 -1428126609 -1862666091 2039937754 1236546388 -1116832291 -1861527117 1234371972 1212870932 533275096 -1380409177 839656230 -637251493 -1986618598 -1595298478 1150096118 -949293392 -1874947713 494689691 -1187967037
REM
CELL 1.54180   50.00000   50.00000   50.00000   90.00000   90.00000   90.00000
LATT -1
SFAC C  
C      1  0.6068730000000  0.5081560000000  0.5070580000000 1.0
C      1  0.4138730000000  0.5173790000000  0.5605570000000 1.0
C      1  0.4246870000000  0.4572220000000  0.4197090000000 1.0
C      1  0.5979470000000  0.5617270000000  0.5034070000000 1.0
C      1  0.4744430000000  0.4773730000000  0.6100530000000 1.0
C      1  0.5582570000000  0.4848020000000  0.5691490000000 1.0
C      1  0.5457480000000  0.4731380000000  0.5063940000000 1.0
C      1  0.4988020000000  0.5836140000000  0.4812300000000 1.0
C      1  0.5664130000000  0.4275520000000  0.5240030000000 1.0
C      1  0.4596980000000  0.5610940000000  0.5660720000000 1.0
C      1  0.5044160000000  0.5533280000000  0.4083450000000 1.0
C      1  0.5239930000000  0.5278910000000  0.5556380000000 1.0
C      1  0.5258280000000  0.5582850000000  0.5947170000000 1.0
C      1  0.4291850000000  0.4814750000000  0.4857970000000 1.0
C      1  0.5675510000000  0.5737230000000  0.6174830000000 1.0
C      1  0.4817940000000  0.4997790000000  0.4954180000000 1.0
C      1  0.5467740000000  0.5327090000000  0.4862930000000 1.0
C      1  0.5602240000000  0.5034440000000  0.3912150000000 1.0
C      1  0.6038350000000  0.4820320000000  0.5339440000000 1.0
C      1  0.4710830000000  0.4087230000000  0.5114290000000 1.0
C      1  0.4525520000000  0.4673970000000  0.4969310000000 1.0
C      1  0.4824710000000  0.4894790000000  0.5410500000000 1.0
C      1  0.6096930000000  0.5367710000000  0.5065100000000 1.0
C      1  0.5701100000000  0.5071880000000  0.5828590000000 1.0
C      1  0.4816780000000  0.5981670000000  0.5330960000000 1.0
C      1  0.4354340000000  0.5587590000000  0.5807300000000 1.0
C      1  0.4119140000000  0.5167250000000  0.4557420000000 1.0
C      1  0.5051530000000  0.4722110000000  0.5518750000000 1.0
C      1  0.5231830000000  0.5539930000000  0.5671160000000 1.0
C      1  0.5110390000000  0.5771580000000  0.4250240000000 1.0
C      1  0.5097990000000  0.4484340000000  0.5362230000000 1.0
C      1  0.4892570000000  0.4616270000000  0.4332900000000 1.0
C      1  0.5499540000000  0.4809600000000  0.4597280000000 1.0
C      1  0.5210390000000  0.5925850000000  0.5008820000000 1.0
C      1  0.5504560000000  0.4441170000000  0.4271070000000 1.0
C      1  0.4786530000000  0.5413010000000  0.4050110000000 1.0
C      1  0.5590190000000  0.5556000000000  0.5267940000000 1.0
C      1  0.5305350000000  0.5413100000000  0.4028290000000 1.0
C      1  0.4404860000000  0.4380870000000  0.4616170000000 1.0
C      1  0.4623110000000  0.4485130000000  0.4770010000000 1.0
C      1  0.5895500000000  0.5670500000000  0.6036060000000 1.0
C      1  0.4739690000000  0.5363000000000  0.5656000000000 1.0
C      1  0.5610840000000  0.5103610000000  0.5304460000000 1.0
C      1  0.5239240000000  0.4889100000000  0.5164250000000 1.0
C      1  0.5718940000000  0.5746840000000  0.5086070000000 1.0
C      1  0.5371630000000  0.5460290000000  0.5105680000000 1.0
C      1  0.4953350000000  0.5994280000000  0.4262630000000 1.0
C      1  0.3914750000000  0.4727320000000  0.4561790000000 1.0
C      1  0.4349970000000  0.5008740000000  0.4641100000000 1.0
C      1  0.4814400000000  0.5194680000000  0.5443480000000 1.0
C      1  0.5325860000000  0.5085360000000  0.5364770000000 1.0
C      1  0.4702630000000  0.4810570000000  0.5143370000000 1.0
C      1  0.4825860000000  0.4886820000000  0.4418740000000 1.0
C      1  0.5800560000000  0.5306810000000  0.5687420000000 1.0
C      1  0.4318490000000  0.4782360000000  0.5869250000000 1.0
C      1  0.5246940000000  0.5167250000000  0.4794550000000 1.0
C      1  0.4720870000000  0.6114280000000  0.5093370000000 1.0
C      1  0.5288990000000  0.4792690000000  0.5684170000000 1.0
C      1  0.4259400000000  0.4171540000000  0.5006660000000 1.0
C      1  0.4262340000000  0.5722670000000  0.4045080000000 1.0
C      1  0.5017140000000  0.5547000000000  0.4777890000000 1.0
C      1  0.4886680000000  0.4373750000000  0.4757330000000 1.0
C      1  0.4493690000000  0.3998710000000  0.4934580000000 1.0
C      1  0.4382230000000  0.4354310000000  0.4336160000000 1.0
C      1  0.5760190000000  0.4687060000000  0.5524110000000 1.0
C      1  0.4063030000000  0.4696050000000  0.5484890000000 1.0
C      1  0.4155290000000  0.4894960000000  0.5665500000000 1.0
C      1  0.4549900000000  0.3913970000000  0.4418130000000 1.0
C      1  0.5288740000000  0.4359210000000  0.4414320000000 1.0
C      1  0.5415310000000  0.5683370000000  0.6138660000000 1.0
C      1  0.5656940000000  0.4412770000000  0.5492060000000 1.0
C      1  0.4541020000000  0.4134430000000  0.4239960000000 1.0
C      1  0.4310750000000  0.5481410000000  0.4174300000000 1.0
C      1  0.4230710000000  0.5952380000000  0.3926140000000 1.0
C      1  0.5032520000000  0.4435830000000  0.4514220000000 1.0
C      1  0.4407000000000  0.4771990000000  0.4047140000000 1.0
C      1  0.5670200000000  0.4911580000000  0.5101210000000 1.0
C      1  0.5668450000000  0.5358480000000  0.4393640000000 1.0
C      1  0.4424240000000  0.5709650000000  0.5215840000000 1.0
C      1  0.5216340000000  0.5770160000000  0.5506710000000 1.0
C      1  0.4615410000000  0.5786480000000  0.5428680000000 1.0
C      1  0.5443040000000  0.4628650000000  0.4805580000000 1.0
C      1  0.4813010000000  0.4503230000000  0.4077360000000 1.0
C      1  0.4755760000000  0.4223250000000  0.4078700000000 1.0
C      1  0.4068330000000  0.4625380000000  0.4788140000000 1.0
C      1  0.4526410000000  0.3873280000000  0.4684300000000 1.0
C      1  0.4716580000000  0.5923680000000  0.4879280000000 1.0
C      1  0.4625690000000  0.4383340000000  0.5830560000000 1.0
C      1  0.5604640000000  0.5468830000000  0.4658000000000 1.0
C      1  0.6152320000000  0.4377620000000  0.5153540000000 1.0
C      1  0.5760150000000  0.4949310000000  0.4626160000000 1.0
C      1  0.4179220000000  0.5380650000000  0.5795570000000 1.0
C      1  0.4524550000000  0.5712580000000  0.4941520000000 1.0
C      1  0.5497990000000  0.5514900000000  0.4218840000000 1.0
C      1  0.5085090000000  0.5475350000000  0.5072220000000 1.0
C      1  0.3988900000000  0.4626540000000  0.4304670000000 1.0
C      1  0.3880760000000  0.5011780000000  0.4566340000000 1.0
C      1  0.4942330000000  0.4219060000000  0.4995580000000 1.0
C      1  0.4142060000000  0.5260500000000  0.5330970000000 1.0
C      1  0.5503940000000  0.5749910000000  0.4636320000000 1.0
C      1  0.5714990000000  0.5343270000000  0.5419260000000 1.0
C      1  0.5729750000000  0.5040140000000  0.6367250000000 1.0
C      1  0.5775040000000  0.5092510000000  0.4373300000000 1.0
C      1  0.4174350000000  0.4353080000000  0.4796740000000 1.0
C      1  0.4522290000000  0.5303420000000  0.4093930000000 1.0
C      1  0.5420120000000  0.4167410000000  0.5132550000000 1.0
C      1  0.5096760000000  0.4989430000000  0.4949590000000 1.0
C      1  0.5497460000000  0.5869280000000  0.4906700000000 1.0
C      1  0.4635520000000  0.4658590000000  0.3919340000000 1.0
C      1  0.5103730000000  0.5921400000000  0.5296700000000 1.0
C      1  0.4513120000000  0.4904480000000  0.6036350000000 1.0
C      1  0.4803430000000  0.4523300000000  0.6007610000000 1.0
C      1  0.5721010000000  0.4917270000000  0.4140860000000 1.0
C      1  0.4116570000000  0.5078360000000  0.5127480000000 1.0
C      1  0.5918930000000  0.4246960000000  0.5123630000000 1.0
C      1  0.5484610000000  0.4284670000000  0.5681970000000 1.0
C      1  0.5939450000000  0.5503680000000  0.5830870000000 1.0
C      1  0.5862370000000  0.4977130000000  0.4898530000000 1.0
C      1  0.5721610000000  0.5058670000000  0.6107440000000 1.0
C      1  0.5161150000000  0.4290290000000  0.5165060000000 1.0
C      1  0.4135860000000  0.4456090000000  0.5389650000000 1.0
C      1  0.4156050000000  0.5392590000000  0.4394100000000 1.0
C      1  0.6210110000000  0.4615200000000  0.5266770000000 1.0
C      1  0.4721870000000  0.4211840000000  0.5622300000000 1.0
C      1  0.4367150000000  0.4498930000000  0.5840100000000 1.0
C      1  0.5248170000000  0.4159070000000  0.5720630000000 1.0
C      1  0.4554250000000  0.5448860000000  0.4842180000000 1.0
C      1  0.4862110000000  0.5351530000000  0.5203480000000 1.0
C      1  0.4986700000000  0.4112940000000  0.5669540000000 1.0
C      1  0.5043330000000  0.5071530000000  0.4422630000000 1.0
C      1  0.4468270000000  0.5028090000000  0.4168620000000 1.0
C      1  0.4585330000000  0.4186610000000  0.5367990000000 1.0
C      1  0.4307850000000  0.4262250000000  0.5282290000000 1.0
C      1  0.5297560000000  0.4923520000000  0.4424490000000 1.0
C      1  0.5377850000000  0.5747200000000  0.4369740000000 1.0
C      1  0.5434420000000  0.3929170000000  0.4995540000000 1.0
C      1  0.5400830000000  0.5207050000000  0.3865700000000 1.0
C      1  0.4214940000000  0.5527950000000  0.5273150000000 1.0
C      1  0.5669090000000  0.4636270000000  0.4178470000000 1.0
C      1  0.4556350000000  0.4977120000000  0.4442520000000 1.0
C      1  0.5069710000000  0.5300950000000  0.4608410000000 1.0
C      1  0.4701500000000  0.5253530000000  0.4979250000000 1.0
END
