TITL C-3866674-3872-527 0.0560634585072592 125000 -781.593631432788 0 0 127 (C1) n - 1
REM
REM in /home/nfs/bkarasulu/CARBON/AIRSS/Generating-Clusters/LCBOP/Only-C1/SD-CG/FIRE-CG
REM
REM
REM
REM
REM
REM ./C.cell (11c1c37f851c82e70ff6c80c92926a4b)
REM AIRSS Version 0.9.1 bugfix July 2018 build 013d7b7c2542+ Fri, 06 Jul 2018 19:26:36 +0100
REM compiler GCC version 9.2.1 20190827 (Red Hat 9.2.1-1)
REM options -cpp -mtune=generic -march=x86-64 -g -O0 -fpre-include=/usr/include/finclude/math-vector-fortran.h
REM seed 1528832584 -1284475457 -1577875578 -746123914 -142282738 -1822599117 -411743640 1308130951 321188182 731728781 305318419 206105887 -2090695313 -1859357128 1636235692 1597605826 -703167583 -963179869 -459726651 1285832998 -1777553359 -1699585576 -735849850 -2136806016 -840351515 1347866414 439164510 -1796117944 1215287881 -1049165072 1570651713 1490428102 -587182656
REM
CELL 1.54180   50.00000   50.00000   50.00000   90.00000   90.00000   90.00000
LATT -1
SFAC C  
C      1  0.5334470000000  0.4551530000000  0.5286120000000 1.0
C      1  0.4555860000000  0.4533400000000  0.4071240000000 1.0
C      1  0.4234510000000  0.4615700000000  0.5400490000000 1.0
C      1  0.5143680000000  0.4432910000000  0.5849230000000 1.0
C      1  0.5106270000000  0.3970350000000  0.4517620000000 1.0
C      1  0.4499330000000  0.5182400000000  0.5213020000000 1.0
C      1  0.4583760000000  0.4346880000000  0.5184460000000 1.0
C      1  0.5711230000000  0.5570050000000  0.5177790000000 1.0
C      1  0.5289050000000  0.3993400000000  0.5046700000000 1.0
C      1  0.5004550000000  0.6050650000000  0.5035470000000 1.0
C      1  0.5764250000000  0.4074030000000  0.4830230000000 1.0
C      1  0.5218110000000  0.6113380000000  0.5208650000000 1.0
C      1  0.5007580000000  0.4674540000000  0.3997040000000 1.0
C      1  0.5328130000000  0.4305890000000  0.5667050000000 1.0
C      1  0.5475030000000  0.4500470000000  0.5047100000000 1.0
C      1  0.4481280000000  0.5327240000000  0.5455100000000 1.0
C      1  0.5069730000000  0.4572660000000  0.4828210000000 1.0
C      1  0.4333000000000  0.4809060000000  0.4493600000000 1.0
C      1  0.5931510000000  0.4833040000000  0.4867610000000 1.0
C      1  0.4733110000000  0.5456330000000  0.5497020000000 1.0
C      1  0.4989960000000  0.5305830000000  0.6102880000000 1.0
C      1  0.4127210000000  0.5187180000000  0.4637720000000 1.0
C      1  0.5280220000000  0.5385200000000  0.5281740000000 1.0
C      1  0.5059790000000  0.3744940000000  0.4373580000000 1.0
C      1  0.4510310000000  0.4438640000000  0.4336390000000 1.0
C      1  0.5064720000000  0.5811360000000  0.5568670000000 1.0
C      1  0.5561550000000  0.5371750000000  0.5330620000000 1.0
C      1  0.4633570000000  0.5763630000000  0.4512990000000 1.0
C      1  0.5352070000000  0.5301850000000  0.5785090000000 1.0
C      1  0.4244710000000  0.5453480000000  0.4696180000000 1.0
C      1  0.5885730000000  0.4717970000000  0.5147520000000 1.0
C      1  0.4026620000000  0.4985610000000  0.4852620000000 1.0
C      1  0.5756860000000  0.5031460000000  0.4737200000000 1.0
C      1  0.4489400000000  0.4479370000000  0.5426910000000 1.0
C      1  0.4816690000000  0.4459110000000  0.3967010000000 1.0
C      1  0.4606730000000  0.4839350000000  0.5726630000000 1.0
C      1  0.4859780000000  0.5198380000000  0.4056350000000 1.0
C      1  0.5524250000000  0.5633020000000  0.4967380000000 1.0
C      1  0.5484650000000  0.3994980000000  0.4826560000000 1.0
C      1  0.5248040000000  0.5507830000000  0.4615820000000 1.0
C      1  0.4683250000000  0.5308990000000  0.4616040000000 1.0
C      1  0.5339880000000  0.4484790000000  0.4799130000000 1.0
C      1  0.5496910000000  0.4941260000000  0.4660810000000 1.0
C      1  0.4689780000000  0.3873090000000  0.5160890000000 1.0
C      1  0.4492780000000  0.5512750000000  0.4538110000000 1.0
C      1  0.5285520000000  0.4813260000000  0.5383890000000 1.0
C      1  0.5224930000000  0.4315550000000  0.5400690000000 1.0
C      1  0.5091810000000  0.5529770000000  0.4375310000000 1.0
C      1  0.5708890000000  0.4751870000000  0.5872680000000 1.0
C      1  0.4580610000000  0.5290160000000  0.4069370000000 1.0
C      1  0.4795850000000  0.4135300000000  0.5187290000000 1.0
C      1  0.4852880000000  0.5710820000000  0.5390320000000 1.0
C      1  0.4362140000000  0.4899460000000  0.5837340000000 1.0
C      1  0.5094620000000  0.4138010000000  0.5217000000000 1.0
C      1  0.4077980000000  0.4818090000000  0.5311310000000 1.0
C      1  0.4796410000000  0.5893710000000  0.5175170000000 1.0
C      1  0.4918280000000  0.6068620000000  0.4758510000000 1.0
C      1  0.5123900000000  0.4952340000000  0.5191250000000 1.0
C      1  0.3853530000000  0.5246860000000  0.5234260000000 1.0
C      1  0.5616730000000  0.4342610000000  0.5670960000000 1.0
C      1  0.4637080000000  0.5953840000000  0.4740150000000 1.0
C      1  0.4277080000000  0.4518730000000  0.4484060000000 1.0
C      1  0.5128320000000  0.5461700000000  0.5909810000000 1.0
C      1  0.4555560000000  0.4928730000000  0.5124520000000 1.0
C      1  0.5031480000000  0.4817540000000  0.6131510000000 1.0
C      1  0.5959660000000  0.5686530000000  0.5582580000000 1.0
C      1  0.5434020000000  0.4489700000000  0.4293850000000 1.0
C      1  0.5391250000000  0.4359890000000  0.4542500000000 1.0
C      1  0.4794810000000  0.5404000000000  0.4866970000000 1.0
C      1  0.5745440000000  0.5315310000000  0.4678160000000 1.0
C      1  0.4214420000000  0.4476030000000  0.4769520000000 1.0
C      1  0.4768080000000  0.5050950000000  0.4555630000000 1.0
C      1  0.5227770000000  0.4665300000000  0.5996200000000 1.0
C      1  0.5451520000000  0.6269110000000  0.4279200000000 1.0
C      1  0.4913850000000  0.5049170000000  0.6022150000000 1.0
C      1  0.5908560000000  0.4704350000000  0.5431880000000 1.0
C      1  0.5610150000000  0.5416430000000  0.5833420000000 1.0
C      1  0.5713740000000  0.4513430000000  0.4204800000000 1.0
C      1  0.4814280000000  0.5033340000000  0.5750630000000 1.0
C      1  0.4564920000000  0.4747130000000  0.4914810000000 1.0
C      1  0.4985850000000  0.5703290000000  0.5823780000000 1.0
C      1  0.5534950000000  0.5511230000000  0.4701650000000 1.0
C      1  0.4868490000000  0.4430270000000  0.5767530000000 1.0
C      1  0.4906110000000  0.4134610000000  0.4627510000000 1.0
C      1  0.5748590000000  0.4472550000000  0.5070000000000 1.0
C      1  0.5067920000000  0.5497790000000  0.4855550000000 1.0
C      1  0.5825870000000  0.5565330000000  0.5781510000000 1.0
C      1  0.4891330000000  0.4411890000000  0.4675970000000 1.0
C      1  0.5362930000000  0.4074000000000  0.4576400000000 1.0
C      1  0.5918310000000  0.5695630000000  0.5316030000000 1.0
C      1  0.5220290000000  0.4978730000000  0.4682470000000 1.0
C      1  0.5249270000000  0.5564820000000  0.5064120000000 1.0
C      1  0.5095170000000  0.4854130000000  0.4918410000000 1.0
C      1  0.4659170000000  0.4570910000000  0.5638640000000 1.0
C      1  0.4556810000000  0.5914890000000  0.5017580000000 1.0
C      1  0.5482410000000  0.4745040000000  0.3895610000000 1.0
C      1  0.3987530000000  0.5029110000000  0.5137780000000 1.0
C      1  0.5238820000000  0.6002810000000  0.5457490000000 1.0
C      1  0.4455310000000  0.4477190000000  0.4952230000000 1.0
C      1  0.5734340000000  0.4666050000000  0.3975730000000 1.0
C      1  0.5081510000000  0.5195530000000  0.5325790000000 1.0
C      1  0.5353730000000  0.5008860000000  0.5678990000000 1.0
C      1  0.5878060000000  0.4335450000000  0.4853110000000 1.0
C      1  0.4836330000000  0.4913330000000  0.3994290000000 1.0
C      1  0.4900950000000  0.5223130000000  0.5541830000000 1.0
C      1  0.5275820000000  0.4637820000000  0.4074760000000 1.0
C      1  0.4389700000000  0.5077760000000  0.4136500000000 1.0
C      1  0.4557470000000  0.5388240000000  0.5029620000000 1.0
C      1  0.5042180000000  0.6004990000000  0.4506020000000 1.0
C      1  0.4332580000000  0.5807710000000  0.5432170000000 1.0
C      1  0.5786250000000  0.4578190000000  0.5661760000000 1.0
C      1  0.4020900000000  0.4692830000000  0.4817400000000 1.0
C      1  0.4334290000000  0.5780640000000  0.5137870000000 1.0
C      1  0.5248120000000  0.6146430000000  0.4386350000000 1.0
C      1  0.5043290000000  0.5268150000000  0.4263960000000 1.0
C      1  0.5044160000000  0.5060180000000  0.4475870000000 1.0
C      1  0.4691560000000  0.5768210000000  0.5841960000000 1.0
C      1  0.5996830000000  0.4571840000000  0.4717540000000 1.0
C      1  0.4914130000000  0.5763310000000  0.4391970000000 1.0
C      1  0.5437560000000  0.4823780000000  0.5883610000000 1.0
C      1  0.4312360000000  0.5541990000000  0.4969280000000 1.0
C      1  0.4541130000000  0.4831030000000  0.4036910000000 1.0
C      1  0.4717420000000  0.4549520000000  0.4512260000000 1.0
C      1  0.4470550000000  0.5814330000000  0.5674910000000 1.0
C      1  0.4238220000000  0.5055560000000  0.4389990000000 1.0
C      1  0.4612470000000  0.4814290000000  0.4624100000000 1.0
C      1  0.4596950000000  0.3633250000000  0.5118920000000 1.0
END
