TITL C-3866670-4165-483 -0.180830962298191 125000 -895.46394327283 0 0 146 (C1) n - 1
REM
REM in /home/nfs/bkarasulu/CARBON/AIRSS/Generating-Clusters/LCBOP/Only-C1/SD-CG/FIRE-CG
REM
REM
REM
REM
REM
REM ./C.cell (11c1c37f851c82e70ff6c80c92926a4b)
REM AIRSS Version 0.9.1 bugfix July 2018 build 013d7b7c2542+ Fri, 06 Jul 2018 19:26:36 +0100
REM compiler GCC version 9.2.1 20190827 (Red Hat 9.2.1-1)
REM options -cpp -mtune=generic -march=x86-64 -g -O0 -fpre-include=/usr/include/finclude/math-vector-fortran.h
REM seed 2006140213 884341919 1515143733 481933200 -105897071 -1099779648 529644150 -559864630 -2104179979 -1576558650 -836524825 -2059675811 1801760489 -1495440624 -1043566459 2084962187 33453981 -458947191 -1106399038 423905626 288548788 1271851734 -354150160 -2055890937 1479570987 -1744142108 1555157578 -948008849 961214780 485089200 318191132 737824498 -1925898836
REM
CELL 1.54180   50.00000   50.00000   50.00000   90.00000   90.00000   90.00000
LATT -1
SFAC C  
C      1  0.5091410000000  0.4051450000000  0.5811080000000 1.0
C      1  0.4208930000000  0.4932680000000  0.4868460000000 1.0
C      1  0.5514350000000  0.4830520000000  0.4641840000000 1.0
C      1  0.5342630000000  0.5660160000000  0.4305090000000 1.0
C      1  0.5796800000000  0.5792210000000  0.5382740000000 1.0
C      1  0.5661000000000  0.4022490000000  0.5274630000000 1.0
C      1  0.5964540000000  0.4956980000000  0.5604710000000 1.0
C      1  0.4596370000000  0.4239200000000  0.5626100000000 1.0
C      1  0.4823110000000  0.4156920000000  0.5821250000000 1.0
C      1  0.5109920000000  0.4919460000000  0.5788260000000 1.0
C      1  0.5777290000000  0.5398580000000  0.5114470000000 1.0
C      1  0.5328740000000  0.4855230000000  0.4178640000000 1.0
C      1  0.5381520000000  0.3950340000000  0.5332270000000 1.0
C      1  0.4309690000000  0.5001120000000  0.5759080000000 1.0
C      1  0.5597020000000  0.5175600000000  0.5093490000000 1.0
C      1  0.4704130000000  0.5073880000000  0.4053040000000 1.0
C      1  0.4863670000000  0.5319480000000  0.5696060000000 1.0
C      1  0.5106300000000  0.4510950000000  0.5507820000000 1.0
C      1  0.4747450000000  0.4593330000000  0.4035620000000 1.0
C      1  0.5108470000000  0.5539670000000  0.5110920000000 1.0
C      1  0.5997280000000  0.4961560000000  0.4715760000000 1.0
C      1  0.4678920000000  0.4728240000000  0.5570330000000 1.0
C      1  0.4959410000000  0.4720370000000  0.5648850000000 1.0
C      1  0.5422020000000  0.4810860000000  0.6437450000000 1.0
C      1  0.5463200000000  0.4827060000000  0.5405190000000 1.0
C      1  0.5286940000000  0.4895750000000  0.6006490000000 1.0
C      1  0.3979980000000  0.5104570000000  0.4961810000000 1.0
C      1  0.4623760000000  0.5376890000000  0.4481040000000 1.0
C      1  0.4830360000000  0.5557770000000  0.5107470000000 1.0
C      1  0.5931250000000  0.5162060000000  0.4513710000000 1.0
C      1  0.5452250000000  0.5982530000000  0.5995810000000 1.0
C      1  0.5326300000000  0.6020300000000  0.5101920000000 1.0
C      1  0.4552410000000  0.5331830000000  0.4765420000000 1.0
C      1  0.5515420000000  0.5835110000000  0.4975300000000 1.0
C      1  0.5863680000000  0.4549260000000  0.5844690000000 1.0
C      1  0.5467850000000  0.5096080000000  0.5338760000000 1.0
C      1  0.5059980000000  0.6051800000000  0.4959220000000 1.0
C      1  0.4378100000000  0.5050850000000  0.5293810000000 1.0
C      1  0.4147910000000  0.4781720000000  0.4639870000000 1.0
C      1  0.4767150000000  0.5842310000000  0.4558350000000 1.0
C      1  0.5669320000000  0.5192980000000  0.4380330000000 1.0
C      1  0.5643650000000  0.4378520000000  0.5899600000000 1.0
C      1  0.3964150000000  0.4698830000000  0.5247810000000 1.0
C      1  0.4801250000000  0.6024220000000  0.5115200000000 1.0
C      1  0.5459440000000  0.4443220000000  0.6099460000000 1.0
C      1  0.5236750000000  0.5479750000000  0.4870440000000 1.0
C      1  0.5609090000000  0.4500920000000  0.4964870000000 1.0
C      1  0.4407470000000  0.5876360000000  0.5386630000000 1.0
C      1  0.4117780000000  0.5557390000000  0.4764460000000 1.0
C      1  0.6015510000000  0.5617000000000  0.5449600000000 1.0
C      1  0.6131400000000  0.5337640000000  0.4441110000000 1.0
C      1  0.5451740000000  0.5128950000000  0.6099260000000 1.0
C      1  0.4237360000000  0.4234470000000  0.5131350000000 1.0
C      1  0.3956460000000  0.5161560000000  0.5477310000000 1.0
C      1  0.5581960000000  0.4205730000000  0.5684850000000 1.0
C      1  0.4378740000000  0.4820590000000  0.3786610000000 1.0
C      1  0.3785430000000  0.5259290000000  0.4531410000000 1.0
C      1  0.5396420000000  0.5688410000000  0.4771620000000 1.0
C      1  0.5490520000000  0.5073240000000  0.6381370000000 1.0
C      1  0.4128540000000  0.4898790000000  0.3740300000000 1.0
C      1  0.5379000000000  0.4448190000000  0.5116560000000 1.0
C      1  0.4818200000000  0.4299250000000  0.4700220000000 1.0
C      1  0.4700750000000  0.5680330000000  0.3891140000000 1.0
C      1  0.4610070000000  0.4908310000000  0.4482610000000 1.0
C      1  0.5140730000000  0.5662840000000  0.4108890000000 1.0
C      1  0.5292940000000  0.5267300000000  0.5481040000000 1.0
C      1  0.4908760000000  0.4372730000000  0.4966250000000 1.0
C      1  0.4620010000000  0.4478560000000  0.5447890000000 1.0
C      1  0.4606570000000  0.4823040000000  0.3946940000000 1.0
C      1  0.5381090000000  0.4097930000000  0.4468000000000 1.0
C      1  0.4527330000000  0.5655430000000  0.3692430000000 1.0
C      1  0.4860700000000  0.3994020000000  0.5382620000000 1.0
C      1  0.5220490000000  0.4586720000000  0.4154800000000 1.0
C      1  0.4946590000000  0.4522390000000  0.4227990000000 1.0
C      1  0.3918180000000  0.5335800000000  0.4771030000000 1.0
C      1  0.4378510000000  0.5438390000000  0.5609880000000 1.0
C      1  0.5831770000000  0.5106770000000  0.5807580000000 1.0
C      1  0.3904620000000  0.5002980000000  0.3840710000000 1.0
C      1  0.5705800000000  0.5687110000000  0.5124220000000 1.0
C      1  0.5048260000000  0.4898810000000  0.5059640000000 1.0
C      1  0.5502900000000  0.4328380000000  0.4530920000000 1.0
C      1  0.4715990000000  0.5321430000000  0.5220870000000 1.0
C      1  0.5509470000000  0.4949000000000  0.4382490000000 1.0
C      1  0.5554970000000  0.4553310000000  0.4691220000000 1.0
C      1  0.5603990000000  0.5542330000000  0.5871560000000 1.0
C      1  0.5084920000000  0.5179110000000  0.4473660000000 1.0
C      1  0.4798680000000  0.4752570000000  0.4611530000000 1.0
C      1  0.4921440000000  0.3872980000000  0.4528340000000 1.0
C      1  0.4326240000000  0.5436790000000  0.4912280000000 1.0
C      1  0.4962230000000  0.5142280000000  0.3961710000000 1.0
C      1  0.5362740000000  0.4404630000000  0.4004980000000 1.0
C      1  0.4719090000000  0.4457960000000  0.5170010000000 1.0
C      1  0.3784800000000  0.5070370000000  0.4069640000000 1.0
C      1  0.5331330000000  0.4589440000000  0.5356740000000 1.0
C      1  0.4578480000000  0.4025530000000  0.5425920000000 1.0
C      1  0.5033080000000  0.5946370000000  0.4656320000000 1.0
C      1  0.3919770000000  0.4994220000000  0.5235630000000 1.0
C      1  0.4084660000000  0.4456730000000  0.5190890000000 1.0
C      1  0.4858880000000  0.5652290000000  0.4118440000000 1.0
C      1  0.4454140000000  0.4039740000000  0.5154200000000 1.0
C      1  0.5236430000000  0.5509610000000  0.5355600000000 1.0
C      1  0.6004260000000  0.5367310000000  0.5302590000000 1.0
C      1  0.5588750000000  0.5910870000000  0.5536730000000 1.0
C      1  0.4651400000000  0.5349090000000  0.5516230000000 1.0
C      1  0.4619080000000  0.5137890000000  0.4320470000000 1.0
C      1  0.4742910000000  0.5621570000000  0.4376770000000 1.0
C      1  0.5883340000000  0.4496520000000  0.5366100000000 1.0
C      1  0.6079330000000  0.5117540000000  0.5403960000000 1.0
C      1  0.4611590000000  0.6056800000000  0.5331030000000 1.0
C      1  0.3974690000000  0.4829210000000  0.4440330000000 1.0
C      1  0.5177030000000  0.4272660000000  0.5025340000000 1.0
C      1  0.5544030000000  0.5447790000000  0.4314560000000 1.0
C      1  0.4548770000000  0.5839400000000  0.4749790000000 1.0
C      1  0.4855100000000  0.4497740000000  0.4500690000000 1.0
C      1  0.5855210000000  0.4588220000000  0.5087450000000 1.0
C      1  0.5004500000000  0.4251150000000  0.5438230000000 1.0
C      1  0.4953690000000  0.4834440000000  0.4826470000000 1.0
C      1  0.5176010000000  0.3925420000000  0.4454520000000 1.0
C      1  0.5997340000000  0.4780920000000  0.4923170000000 1.0
C      1  0.5538630000000  0.5016420000000  0.4863870000000 1.0
C      1  0.4469100000000  0.4915770000000  0.5539740000000 1.0
C      1  0.4652240000000  0.5153300000000  0.4972600000000 1.0
C      1  0.4929250000000  0.3881510000000  0.5129480000000 1.0
C      1  0.5934850000000  0.4671740000000  0.5595760000000 1.0
C      1  0.5393250000000  0.6056240000000  0.5379650000000 1.0
C      1  0.4692320000000  0.5779800000000  0.4995940000000 1.0
C      1  0.4167880000000  0.5236000000000  0.5673680000000 1.0
C      1  0.5103060000000  0.5177920000000  0.5672020000000 1.0
C      1  0.4305960000000  0.5606550000000  0.5387290000000 1.0
C      1  0.5632640000000  0.5266830000000  0.5930200000000 1.0
C      1  0.5208700000000  0.5044670000000  0.4005310000000 1.0
C      1  0.3826000000000  0.5050560000000  0.4345170000000 1.0
C      1  0.4259800000000  0.5802820000000  0.4686360000000 1.0
C      1  0.4680240000000  0.3930650000000  0.4965870000000 1.0
C      1  0.4750020000000  0.4021850000000  0.4697800000000 1.0
C      1  0.4443200000000  0.4958650000000  0.5035750000000 1.0
C      1  0.5755980000000  0.4237580000000  0.5441490000000 1.0
C      1  0.5150770000000  0.5283870000000  0.4699920000000 1.0
C      1  0.5277570000000  0.5809870000000  0.4545080000000 1.0
C      1  0.5547270000000  0.5812550000000  0.5802870000000 1.0
C      1  0.4344730000000  0.5595840000000  0.3509780000000 1.0
C      1  0.5338830000000  0.4675460000000  0.6194980000000 1.0
C      1  0.5338330000000  0.4036060000000  0.5632710000000 1.0
C      1  0.5196490000000  0.3991320000000  0.5104790000000 1.0
C      1  0.4288470000000  0.5398720000000  0.5186530000000 1.0
C      1  0.4162350000000  0.5525830000000  0.3337150000000 1.0
END
