TITL C-3866674-3872-341 0.0257632126373896 125000 -408.00366079308 0 0 68 (C1) n - 1
REM
REM in /home/nfs/bkarasulu/CARBON/AIRSS/Generating-Clusters/LCBOP/Only-C1/SD-CG/FIRE-CG
REM
REM
REM
REM
REM
REM ./C.cell (11c1c37f851c82e70ff6c80c92926a4b)
REM AIRSS Version 0.9.1 bugfix July 2018 build 013d7b7c2542+ Fri, 06 Jul 2018 19:26:36 +0100
REM compiler GCC version 9.2.1 20190827 (Red Hat 9.2.1-1)
REM options -cpp -mtune=generic -march=x86-64 -g -O0 -fpre-include=/usr/include/finclude/math-vector-fortran.h
REM seed -414816800 23720211 -556084924 1388878905 610397890 1526952473 1053789644 1454727855 -1852428806 -913512723 -1164429561 -1925697615 435856529 -122950457 -1540145712 2066527974 -78879791 1491460140 -858095417 536445048 -1351573730 2145972878 1794228966 -116165257 87362601 -830475447 1714426193 760921717 1760287972 -1524031901 -555341950 -1476878423 1909945198
REM
CELL 1.54180   50.00000   50.00000   50.00000   90.00000   90.00000   90.00000
LATT -1
SFAC C  
C      1  0.5545460000000  0.3777390000000  0.5088680000000 1.0
C      1  0.5661420000000  0.4526960000000  0.4371640000000 1.0
C      1  0.5041500000000  0.5146850000000  0.5843570000000 1.0
C      1  0.4747340000000  0.4171140000000  0.5475860000000 1.0
C      1  0.4675490000000  0.5746860000000  0.4765220000000 1.0
C      1  0.4992690000000  0.5354170000000  0.5661990000000 1.0
C      1  0.5275990000000  0.5830080000000  0.4428350000000 1.0
C      1  0.5145280000000  0.5203850000000  0.6096460000000 1.0
C      1  0.4687280000000  0.5008110000000  0.4524530000000 1.0
C      1  0.4879340000000  0.5800260000000  0.5373790000000 1.0
C      1  0.4559730000000  0.4377900000000  0.5424230000000 1.0
C      1  0.4774440000000  0.6174200000000  0.5985810000000 1.0
C      1  0.5588150000000  0.6078240000000  0.4699430000000 1.0
C      1  0.5362920000000  0.6004860000000  0.4860930000000 1.0
C      1  0.5652100000000  0.3923910000000  0.4632950000000 1.0
C      1  0.4466500000000  0.6049660000000  0.5335920000000 1.0
C      1  0.4466980000000  0.4858700000000  0.5486190000000 1.0
C      1  0.4359950000000  0.5068090000000  0.5332440000000 1.0
C      1  0.5630860000000  0.3439180000000  0.5499080000000 1.0
C      1  0.4625540000000  0.5529040000000  0.4598670000000 1.0
C      1  0.5687560000000  0.3760070000000  0.4844840000000 1.0
C      1  0.4846890000000  0.4227100000000  0.4716890000000 1.0
C      1  0.5591120000000  0.3601720000000  0.5299290000000 1.0
C      1  0.4807500000000  0.4215560000000  0.4451280000000 1.0
C      1  0.4903220000000  0.4668830000000  0.5613470000000 1.0
C      1  0.4935900000000  0.5804840000000  0.4857480000000 1.0
C      1  0.5271870000000  0.4708190000000  0.4190380000000 1.0
C      1  0.5088000000000  0.4500370000000  0.5473580000000 1.0
C      1  0.4976420000000  0.4299070000000  0.4259860000000 1.0
C      1  0.5080100000000  0.4573530000000  0.4978840000000 1.0
C      1  0.4937850000000  0.5559050000000  0.5502900000000 1.0
C      1  0.5351620000000  0.3987860000000  0.5101840000000 1.0
C      1  0.5194950000000  0.4603800000000  0.5233990000000 1.0
C      1  0.5027200000000  0.4218030000000  0.5464450000000 1.0
C      1  0.5528220000000  0.5972570000000  0.4437070000000 1.0
C      1  0.5200600000000  0.5656840000000  0.4226590000000 1.0
C      1  0.4674270000000  0.4865330000000  0.4769270000000 1.0
C      1  0.5456350000000  0.4329180000000  0.4425980000000 1.0
C      1  0.5222040000000  0.4431060000000  0.4275130000000 1.0
C      1  0.4461790000000  0.5900190000000  0.4862830000000 1.0
C      1  0.4436500000000  0.4815530000000  0.4917180000000 1.0
C      1  0.5393240000000  0.6114590000000  0.5344040000000 1.0
C      1  0.5241660000000  0.5259190000000  0.6332200000000 1.0
C      1  0.5010800000000  0.5868740000000  0.5133660000000 1.0
C      1  0.4366540000000  0.4551720000000  0.4987930000000 1.0
C      1  0.5180120000000  0.5428140000000  0.4093290000000 1.0
C      1  0.4400840000000  0.4381490000000  0.5192430000000 1.0
C      1  0.5466710000000  0.4137030000000  0.4630840000000 1.0
C      1  0.5083710000000  0.4916010000000  0.4172040000000 1.0
C      1  0.4985780000000  0.4882640000000  0.5771070000000 1.0
C      1  0.5070530000000  0.4314130000000  0.4864140000000 1.0
C      1  0.4609990000000  0.5276480000000  0.4519930000000 1.0
C      1  0.5267690000000  0.6005200000000  0.5129650000000 1.0
C      1  0.4376350000000  0.6018090000000  0.5086530000000 1.0
C      1  0.4303350000000  0.5026800000000  0.5055070000000 1.0
C      1  0.4729100000000  0.6083890000000  0.5745600000000 1.0
C      1  0.4690040000000  0.5979880000000  0.5490140000000 1.0
C      1  0.5556130000000  0.4743220000000  0.4235340000000 1.0
C      1  0.5161310000000  0.5863880000000  0.4689820000000 1.0
C      1  0.5809020000000  0.6216010000000  0.4773710000000 1.0
C      1  0.4313240000000  0.5312010000000  0.5447920000000 1.0
C      1  0.4916870000000  0.4772860000000  0.4874140000000 1.0
C      1  0.5300620000000  0.4148820000000  0.4866780000000 1.0
C      1  0.5206990000000  0.4044610000000  0.5336990000000 1.0
C      1  0.5153570000000  0.5165270000000  0.4064140000000 1.0
C      1  0.4628910000000  0.4635670000000  0.5535220000000 1.0
C      1  0.4840630000000  0.4905190000000  0.4313110000000 1.0
C      1  0.4117340000000  0.5180240000000  0.4925350000000 1.0
END
