TITL C-3866672-3872-389 0.0163990825364279 125000 -843.656475182873 0 0 138 (C1) n - 1
REM
REM in /home/nfs/bkarasulu/CARBON/AIRSS/Generating-Clusters/LCBOP/Only-C1/SD-CG/FIRE-CG
REM
REM
REM
REM
REM
REM ./C.cell (11c1c37f851c82e70ff6c80c92926a4b)
REM AIRSS Version 0.9.1 bugfix July 2018 build 013d7b7c2542+ Fri, 06 Jul 2018 19:26:36 +0100
REM compiler GCC version 9.2.1 20190827 (Red Hat 9.2.1-1)
REM options -cpp -mtune=generic -march=x86-64 -g -O0 -fpre-include=/usr/include/finclude/math-vector-fortran.h
REM seed -1160632684 763680185 -1262460416 951186359 1530174986 -1698745705 502927074 -1298216697 1278834906 -2123923131 -1646593564 -1192926107 1893056085 891232991 -618824602 1248867354 -1269620440 1625562881 -155500310 -1473086868 -1444106611 1334312778 1580466158 -1840876780 -159609497 334366558 398159005 1334668958 1741499639 -140676576 49499775 1661849145 -1740425146
REM
CELL 1.54180   50.00000   50.00000   50.00000   90.00000   90.00000   90.00000
LATT -1
SFAC C  
C      1  0.5071050000000  0.3851550000000  0.4899920000000 1.0
C      1  0.4220460000000  0.4680580000000  0.6333190000000 1.0
C      1  0.5043780000000  0.3643420000000  0.5300950000000 1.0
C      1  0.5212080000000  0.5438470000000  0.4213530000000 1.0
C      1  0.5228170000000  0.6020770000000  0.4406570000000 1.0
C      1  0.5198060000000  0.4507130000000  0.5373250000000 1.0
C      1  0.5620670000000  0.6045190000000  0.5827370000000 1.0
C      1  0.5558290000000  0.5766220000000  0.4715940000000 1.0
C      1  0.5294320000000  0.4906310000000  0.3936950000000 1.0
C      1  0.4455590000000  0.4668300000000  0.5388670000000 1.0
C      1  0.5879590000000  0.4535230000000  0.5093740000000 1.0
C      1  0.4824620000000  0.5755780000000  0.4300930000000 1.0
C      1  0.4597620000000  0.4133560000000  0.5608720000000 1.0
C      1  0.4229180000000  0.4718900000000  0.5220840000000 1.0
C      1  0.6091310000000  0.5015580000000  0.4651880000000 1.0
C      1  0.4692850000000  0.4430080000000  0.4749560000000 1.0
C      1  0.5354710000000  0.6126940000000  0.5857010000000 1.0
C      1  0.4904140000000  0.5340080000000  0.4727600000000 1.0
C      1  0.4309560000000  0.5603990000000  0.4876040000000 1.0
C      1  0.4502320000000  0.4959570000000  0.4967220000000 1.0
C      1  0.5450550000000  0.4367090000000  0.3883630000000 1.0
C      1  0.4589000000000  0.4415420000000  0.5016260000000 1.0
C      1  0.5846120000000  0.5211800000000  0.4252150000000 1.0
C      1  0.5307410000000  0.5870210000000  0.4634220000000 1.0
C      1  0.4951780000000  0.5736360000000  0.5337610000000 1.0
C      1  0.5663600000000  0.4381640000000  0.5495400000000 1.0
C      1  0.4423000000000  0.5672140000000  0.4634380000000 1.0
C      1  0.5862250000000  0.5420500000000  0.4846550000000 1.0
C      1  0.4642450000000  0.3899280000000  0.5458210000000 1.0
C      1  0.5953050000000  0.5018130000000  0.5106700000000 1.0
C      1  0.5554420000000  0.4817580000000  0.4007840000000 1.0
C      1  0.4411180000000  0.5552790000000  0.4140120000000 1.0
C      1  0.4430750000000  0.4874610000000  0.4029460000000 1.0
C      1  0.5704000000000  0.5282370000000  0.5471930000000 1.0
C      1  0.4838550000000  0.4856100000000  0.4500890000000 1.0
C      1  0.4590160000000  0.4243800000000  0.4567750000000 1.0
C      1  0.4324450000000  0.5255560000000  0.5977360000000 1.0
C      1  0.5191150000000  0.6140240000000  0.5624460000000 1.0
C      1  0.4767680000000  0.5127470000000  0.4588390000000 1.0
C      1  0.4914100000000  0.4475460000000  0.5404380000000 1.0
C      1  0.4278850000000  0.4704430000000  0.5843500000000 1.0
C      1  0.5654440000000  0.5817180000000  0.4986440000000 1.0
C      1  0.4704100000000  0.4605480000000  0.5227530000000 1.0
C      1  0.5814430000000  0.5903510000000  0.5713960000000 1.0
C      1  0.5244100000000  0.3764510000000  0.5118280000000 1.0
C      1  0.4812020000000  0.4324640000000  0.5633780000000 1.0
C      1  0.5225170000000  0.4987960000000  0.5959590000000 1.0
C      1  0.5810990000000  0.4457750000000  0.5711290000000 1.0
C      1  0.5201670000000  0.5172810000000  0.4314630000000 1.0
C      1  0.4050920000000  0.5197430000000  0.5532590000000 1.0
C      1  0.4913260000000  0.6042470000000  0.4862540000000 1.0
C      1  0.4994090000000  0.5564440000000  0.4881340000000 1.0
C      1  0.5553060000000  0.5048360000000  0.5527210000000 1.0
C      1  0.4501720000000  0.5360580000000  0.5537410000000 1.0
C      1  0.5739190000000  0.5017290000000  0.4077160000000 1.0
C      1  0.4516750000000  0.4302490000000  0.3903000000000 1.0
C      1  0.3983420000000  0.4819290000000  0.5261380000000 1.0
C      1  0.4420520000000  0.4149760000000  0.4100060000000 1.0
C      1  0.4680500000000  0.4960210000000  0.5712580000000 1.0
C      1  0.6071950000000  0.5130420000000  0.4398470000000 1.0
C      1  0.4986020000000  0.4872230000000  0.6056880000000 1.0
C      1  0.4890770000000  0.4622390000000  0.4665010000000 1.0
C      1  0.4332740000000  0.5045740000000  0.4762380000000 1.0
C      1  0.5382400000000  0.4324880000000  0.5502030000000 1.0
C      1  0.5211260000000  0.4347470000000  0.3764520000000 1.0
C      1  0.4463200000000  0.4133130000000  0.4362690000000 1.0
C      1  0.5106330000000  0.4976690000000  0.4130900000000 1.0
C      1  0.4737920000000  0.4995360000000  0.5991860000000 1.0
C      1  0.5555400000000  0.4540370000000  0.4080860000000 1.0
C      1  0.4976900000000  0.4588800000000  0.6061400000000 1.0
C      1  0.4877140000000  0.4836340000000  0.4215440000000 1.0
C      1  0.4260490000000  0.5517590000000  0.5149860000000 1.0
C      1  0.4671720000000  0.5755810000000  0.5334250000000 1.0
C      1  0.5274660000000  0.4759030000000  0.4933300000000 1.0
C      1  0.5405840000000  0.5025670000000  0.5765900000000 1.0
C      1  0.5719980000000  0.5538200000000  0.4615370000000 1.0
C      1  0.4054760000000  0.4616990000000  0.5693880000000 1.0
C      1  0.5062260000000  0.6626110000000  0.5427080000000 1.0
C      1  0.4562010000000  0.5561030000000  0.3896120000000 1.0
C      1  0.5068940000000  0.5820330000000  0.4788280000000 1.0
C      1  0.6034870000000  0.4542490000000  0.4858540000000 1.0
C      1  0.5812710000000  0.5518270000000  0.5359200000000 1.0
C      1  0.4487940000000  0.5166580000000  0.4564420000000 1.0
C      1  0.4958160000000  0.4431380000000  0.3762550000000 1.0
C      1  0.5987700000000  0.5167500000000  0.4871160000000 1.0
C      1  0.4971690000000  0.5565350000000  0.4134170000000 1.0
C      1  0.5061020000000  0.5545470000000  0.5159430000000 1.0
C      1  0.4907820000000  0.4394350000000  0.5890120000000 1.0
C      1  0.4340530000000  0.4286090000000  0.5093220000000 1.0
C      1  0.4137120000000  0.4287270000000  0.5278720000000 1.0
C      1  0.4491110000000  0.4758090000000  0.5655010000000 1.0
C      1  0.5701540000000  0.5443280000000  0.4346020000000 1.0
C      1  0.5341820000000  0.4043810000000  0.5493180000000 1.0
C      1  0.6122180000000  0.4737220000000  0.4693480000000 1.0
C      1  0.4830570000000  0.5517930000000  0.3893230000000 1.0
C      1  0.4969390000000  0.5999260000000  0.4320500000000 1.0
C      1  0.4715270000000  0.4500780000000  0.3883490000000 1.0
C      1  0.4766920000000  0.6252910000000  0.4909880000000 1.0
C      1  0.4332340000000  0.4202510000000  0.5689780000000 1.0
C      1  0.5624400000000  0.6054020000000  0.5116920000000 1.0
C      1  0.4804100000000  0.3850610000000  0.4980430000000 1.0
C      1  0.5891630000000  0.5717190000000  0.5540860000000 1.0
C      1  0.5166590000000  0.4582660000000  0.4738360000000 1.0
C      1  0.4118180000000  0.4354460000000  0.5562150000000 1.0
C      1  0.5103950000000  0.5906920000000  0.5496910000000 1.0
C      1  0.5512450000000  0.4469270000000  0.4350400000000 1.0
C      1  0.4470870000000  0.5042210000000  0.6104400000000 1.0
C      1  0.4270990000000  0.5288840000000  0.5699760000000 1.0
C      1  0.5800500000000  0.5584630000000  0.5082120000000 1.0
C      1  0.5253130000000  0.6190300000000  0.6102790000000 1.0
C      1  0.4545790000000  0.5679090000000  0.4369650000000 1.0
C      1  0.5273320000000  0.5373700000000  0.5204660000000 1.0
C      1  0.5805610000000  0.4795740000000  0.5193860000000 1.0
C      1  0.5342820000000  0.5018670000000  0.4831420000000 1.0
C      1  0.5348110000000  0.4459780000000  0.4561300000000 1.0
C      1  0.5434130000000  0.3931510000000  0.5242000000000 1.0
C      1  0.4050270000000  0.5355770000000  0.5276780000000 1.0
C      1  0.5324300000000  0.4709230000000  0.5212730000000 1.0
C      1  0.5555740000000  0.4843420000000  0.5325890000000 1.0
C      1  0.4235360000000  0.5333230000000  0.4152300000000 1.0
C      1  0.4709260000000  0.5165790000000  0.5523280000000 1.0
C      1  0.5120270000000  0.6390010000000  0.5520920000000 1.0
C      1  0.5316280000000  0.5091750000000  0.4560500000000 1.0
C      1  0.4677930000000  0.4739110000000  0.4037090000000 1.0
C      1  0.4779070000000  0.3762030000000  0.5257760000000 1.0
C      1  0.4059790000000  0.5008040000000  0.4736450000000 1.0
C      1  0.5773010000000  0.4314170000000  0.5235390000000 1.0
C      1  0.4262240000000  0.5074660000000  0.4083750000000 1.0
C      1  0.3807280000000  0.4989560000000  0.4674500000000 1.0
C      1  0.5388240000000  0.5212520000000  0.5025960000000 1.0
C      1  0.5663910000000  0.4067450000000  0.5136890000000 1.0
C      1  0.5476520000000  0.5535070000000  0.4198350000000 1.0
C      1  0.4736260000000  0.4884340000000  0.5111830000000 1.0
C      1  0.5272900000000  0.3897640000000  0.5712720000000 1.0
C      1  0.3955520000000  0.4918360000000  0.5521700000000 1.0
C      1  0.4835090000000  0.5084330000000  0.5285170000000 1.0
C      1  0.4314920000000  0.4799720000000  0.6108120000000 1.0
C      1  0.4472660000000  0.5562250000000  0.5339500000000 1.0
END
