TITL C-3866674-3872-222 -4.95437820677684e-07 125000 -637.165830308761 0 0 103 (C1) n - 1
REM
REM in /home/nfs/bkarasulu/CARBON/AIRSS/Generating-Clusters/LCBOP/Only-C1/SD-CG/HFTN-CG/FIRE-CG
REM
REM
REM
REM
REM
REM ./C.cell (11c1c37f851c82e70ff6c80c92926a4b)
REM AIRSS Version 0.9.1 bugfix July 2018 build 013d7b7c2542+ Fri, 06 Jul 2018 19:26:36 +0100
REM compiler GCC version 9.2.1 20190827 (Red Hat 9.2.1-1)
REM options -cpp -mtune=generic -march=x86-64 -g -O0 -fpre-include=/usr/include/finclude/math-vector-fortran.h
REM seed -681518191 1615127054 1407333610 47162373 -321911192 1757809296 1965897507 -2123559329 1189231200 -1387654799 -2028669564 -7870687 -962237457 1257539145 1053721031 1323289202 432527224 613387241 236062202 -180637869 46476965 870178266 1812781734 -25827353 -965039360 926261337 -429951183 2018905039 982880033 -1214201874 -541251138 378865415 -256571416
REM
CELL 1.54180   50.00000   50.00000   50.00000   90.00000   90.00000   90.00000
LATT -1
SFAC C  
C      1  0.4445970000000  0.4864800000000  0.4218290000000 1.0
C      1  0.5289270000000  0.5433380000000  0.5399580000000 1.0
C      1  0.4278410000000  0.4972580000000  0.5137960000000 1.0
C      1  0.5420920000000  0.4413950000000  0.5851380000000 1.0
C      1  0.4791470000000  0.5094100000000  0.5896360000000 1.0
C      1  0.4674460000000  0.4450170000000  0.5024500000000 1.0
C      1  0.4802940000000  0.5671800000000  0.4453370000000 1.0
C      1  0.4879750000000  0.4383480000000  0.4587010000000 1.0
C      1  0.5463040000000  0.5032400000000  0.3989180000000 1.0
C      1  0.4347770000000  0.5612640000000  0.5262210000000 1.0
C      1  0.4869450000000  0.5483180000000  0.5165410000000 1.0
C      1  0.4625730000000  0.5828980000000  0.4608320000000 1.0
C      1  0.4804680000000  0.5735250000000  0.5041610000000 1.0
C      1  0.4602310000000  0.4640630000000  0.4239030000000 1.0
C      1  0.5059260000000  0.5065970000000  0.6006680000000 1.0
C      1  0.5222630000000  0.4367000000000  0.5233660000000 1.0
C      1  0.4161170000000  0.4533820000000  0.4967330000000 1.0
C      1  0.5150620000000  0.4788130000000  0.6013780000000 1.0
C      1  0.4590740000000  0.4238640000000  0.5211460000000 1.0
C      1  0.5246710000000  0.4419180000000  0.4946920000000 1.0
C      1  0.4699900000000  0.4815430000000  0.5847380000000 1.0
C      1  0.4689160000000  0.5261930000000  0.5147780000000 1.0
C      1  0.5415470000000  0.4202400000000  0.5367840000000 1.0
C      1  0.5146550000000  0.4000290000000  0.4724390000000 1.0
C      1  0.5252750000000  0.5734390000000  0.4738450000000 1.0
C      1  0.4929840000000  0.5968770000000  0.5146640000000 1.0
C      1  0.5226980000000  0.4583460000000  0.4038070000000 1.0
C      1  0.4345280000000  0.4753800000000  0.4968250000000 1.0
C      1  0.5327680000000  0.5296640000000  0.3999210000000 1.0
C      1  0.5724760000000  0.3847830000000  0.5105820000000 1.0
C      1  0.4682480000000  0.5453230000000  0.4308380000000 1.0
C      1  0.4605850000000  0.4764170000000  0.5583840000000 1.0
C      1  0.5914870000000  0.5018010000000  0.4574950000000 1.0
C      1  0.5270590000000  0.5968980000000  0.5473610000000 1.0
C      1  0.5042170000000  0.5301860000000  0.3999640000000 1.0
C      1  0.4724980000000  0.3992830000000  0.5219550000000 1.0
C      1  0.5801790000000  0.4911560000000  0.5682760000000 1.0
C      1  0.6109180000000  0.4529590000000  0.4833790000000 1.0
C      1  0.5300100000000  0.4838190000000  0.4122650000000 1.0
C      1  0.4347620000000  0.5097150000000  0.4357740000000 1.0
C      1  0.4787780000000  0.4948740000000  0.4634850000000 1.0
C      1  0.5111720000000  0.4281270000000  0.4729060000000 1.0
C      1  0.4465330000000  0.5359630000000  0.5311070000000 1.0
C      1  0.5442410000000  0.4597240000000  0.4871440000000 1.0
C      1  0.4398600000000  0.5815070000000  0.5456240000000 1.0
C      1  0.5946440000000  0.5428990000000  0.5345100000000 1.0
C      1  0.5778050000000  0.5123110000000  0.4355790000000 1.0
C      1  0.5449350000000  0.5233150000000  0.4988680000000 1.0
C      1  0.4639290000000  0.5944740000000  0.5537080000000 1.0
C      1  0.5444080000000  0.5390110000000  0.5618920000000 1.0
C      1  0.4906200000000  0.5019110000000  0.4377800000000 1.0
C      1  0.5038950000000  0.4497030000000  0.5411370000000 1.0
C      1  0.5998580000000  0.4735390000000  0.4974780000000 1.0
C      1  0.5399980000000  0.4682840000000  0.5934300000000 1.0
C      1  0.4233780000000  0.5530830000000  0.4522440000000 1.0
C      1  0.4880590000000  0.3815740000000  0.5094070000000 1.0
C      1  0.4805460000000  0.4654810000000  0.5412030000000 1.0
C      1  0.4207970000000  0.5202560000000  0.4871640000000 1.0
C      1  0.4840660000000  0.5802670000000  0.5693980000000 1.0
C      1  0.5448390000000  0.5442890000000  0.4216790000000 1.0
C      1  0.5846080000000  0.5185160000000  0.5274750000000 1.0
C      1  0.4162810000000  0.4376470000000  0.4733080000000 1.0
C      1  0.4899090000000  0.4645520000000  0.5971660000000 1.0
C      1  0.5447690000000  0.4248100000000  0.5643890000000 1.0
C      1  0.4762950000000  0.6105910000000  0.5332910000000 1.0
C      1  0.5340040000000  0.5102650000000  0.4544210000000 1.0
C      1  0.4306430000000  0.5047920000000  0.4636220000000 1.0
C      1  0.4750860000000  0.4717630000000  0.5139170000000 1.0
C      1  0.5025330000000  0.4428110000000  0.4121670000000 1.0
C      1  0.4402410000000  0.4289520000000  0.4643570000000 1.0
C      1  0.4976410000000  0.5023130000000  0.4851430000000 1.0
C      1  0.4826300000000  0.4471540000000  0.4315740000000 1.0
C      1  0.5873440000000  0.4961720000000  0.4847550000000 1.0
C      1  0.4575420000000  0.5776570000000  0.4878520000000 1.0
C      1  0.5718420000000  0.5134840000000  0.5020730000000 1.0
C      1  0.5048480000000  0.3808460000000  0.4885190000000 1.0
C      1  0.5210660000000  0.5929560000000  0.5195850000000 1.0
C      1  0.5540420000000  0.5272380000000  0.4428060000000 1.0
C      1  0.5738120000000  0.5032380000000  0.4085090000000 1.0
C      1  0.4334040000000  0.4266730000000  0.5327400000000 1.0
C      1  0.4462870000000  0.5221260000000  0.5556740000000 1.0
C      1  0.5997820000000  0.4740130000000  0.5258660000000 1.0
C      1  0.4680610000000  0.5299090000000  0.5735580000000 1.0
C      1  0.5618210000000  0.4845690000000  0.5864490000000 1.0
C      1  0.4204530000000  0.5481850000000  0.4807680000000 1.0
C      1  0.4127610000000  0.4399740000000  0.5214040000000 1.0
C      1  0.5327210000000  0.5729170000000  0.5015000000000 1.0
C      1  0.4505420000000  0.4862420000000  0.4735300000000 1.0
C      1  0.4332740000000  0.5667210000000  0.4981670000000 1.0
C      1  0.4850370000000  0.5517930000000  0.5648980000000 1.0
C      1  0.4806710000000  0.5001800000000  0.5079140000000 1.0
C      1  0.5183390000000  0.4945150000000  0.4362870000000 1.0
C      1  0.4403620000000  0.5382360000000  0.4341800000000 1.0
C      1  0.4650300000000  0.4374640000000  0.4749570000000 1.0
C      1  0.4409810000000  0.4950470000000  0.5465370000000 1.0
C      1  0.5898060000000  0.4946980000000  0.5423560000000 1.0
C      1  0.4852820000000  0.5248930000000  0.4207930000000 1.0
C      1  0.5074370000000  0.5692650000000  0.4539230000000 1.0
C      1  0.5568200000000  0.4012280000000  0.5233740000000 1.0
C      1  0.5251150000000  0.5115100000000  0.4813760000000 1.0
C      1  0.5386510000000  0.5471530000000  0.5133370000000 1.0
C      1  0.5102350000000  0.5927850000000  0.5687180000000 1.0
C      1  0.5011010000000  0.5464980000000  0.5415410000000 1.0
END
