TITL C-3866676-3738-769 0.000135829522318046 125000 -380.785635013678 0 0 64 (C1) n - 1
REM
REM in /home/nfs/bkarasulu/CARBON/AIRSS/Generating-Clusters/LCBOP/Only-C1/SD-CG/FIRE-CG
REM
REM
REM
REM
REM
REM ./C.cell (11c1c37f851c82e70ff6c80c92926a4b)
REM AIRSS Version 0.9.1 bugfix July 2018 build 013d7b7c2542+ Fri, 06 Jul 2018 19:26:36 +0100
REM compiler GCC version 9.2.1 20190827 (Red Hat 9.2.1-1)
REM options -cpp -mtune=generic -march=x86-64 -g -O0 -fpre-include=/usr/include/finclude/math-vector-fortran.h
REM seed -797768994 -1506443027 1192494177 1613215974 603469476 59706802 -28725409 -872630871 -1897416490 1152317497 1700493009 2137548222 1366007120 1783208185 1335930380 101288533 -422050955 1756462770 1924020809 2076263504 -1812219878 -414173969 1414022808 -1050688634 1664225774 -972921086 -522226199 964979244 -1223878469 -968893829 1501738182 1031825928 -2070825937
REM
CELL 1.54180   50.00000   50.00000   50.00000   90.00000   90.00000   90.00000
LATT -1
SFAC C  
C      1  0.4899930000000  0.5587860000000  0.4444640000000 1.0
C      1  0.4560730000000  0.5525830000000  0.5163190000000 1.0
C      1  0.4033980000000  0.4796180000000  0.4625190000000 1.0
C      1  0.5559390000000  0.4513690000000  0.4838150000000 1.0
C      1  0.4302800000000  0.4908120000000  0.5407130000000 1.0
C      1  0.5404770000000  0.4957410000000  0.4835310000000 1.0
C      1  0.4714860000000  0.5371810000000  0.4446050000000 1.0
C      1  0.4994930000000  0.4800420000000  0.4890870000000 1.0
C      1  0.5130500000000  0.5093570000000  0.5783920000000 1.0
C      1  0.4416710000000  0.5413670000000  0.5381640000000 1.0
C      1  0.3920940000000  0.4714000000000  0.4853120000000 1.0
C      1  0.5390070000000  0.4360050000000  0.5535650000000 1.0
C      1  0.5346120000000  0.5126250000000  0.5038860000000 1.0
C      1  0.4892430000000  0.5041160000000  0.5007480000000 1.0
C      1  0.5234070000000  0.5505040000000  0.5436310000000 1.0
C      1  0.4964370000000  0.5865940000000  0.5628300000000 1.0
C      1  0.5496340000000  0.5468620000000  0.5290200000000 1.0
C      1  0.4058450000000  0.5337470000000  0.4400210000000 1.0
C      1  0.4459740000000  0.4543090000000  0.5104750000000 1.0
C      1  0.5000240000000  0.5682060000000  0.5427240000000 1.0
C      1  0.5454890000000  0.4532390000000  0.4563910000000 1.0
C      1  0.4271400000000  0.4914430000000  0.4528240000000 1.0
C      1  0.5142010000000  0.5527030000000  0.4585950000000 1.0
C      1  0.4917420000000  0.4457390000000  0.4511330000000 1.0
C      1  0.5815290000000  0.4635800000000  0.4879550000000 1.0
C      1  0.4490930000000  0.5354930000000  0.4625930000000 1.0
C      1  0.4851890000000  0.5127680000000  0.4376640000000 1.0
C      1  0.5105840000000  0.4580080000000  0.5031860000000 1.0
C      1  0.5241780000000  0.4341510000000  0.5772810000000 1.0
C      1  0.4255660000000  0.4694210000000  0.5229890000000 1.0
C      1  0.5189170000000  0.4440860000000  0.4499700000000 1.0
C      1  0.4949350000000  0.5722090000000  0.4972680000000 1.0
C      1  0.5588610000000  0.5497980000000  0.5008750000000 1.0
C      1  0.5196560000000  0.5305380000000  0.5638530000000 1.0
C      1  0.5091220000000  0.5506880000000  0.4865100000000 1.0
C      1  0.4581420000000  0.4471170000000  0.4876130000000 1.0
C      1  0.4336810000000  0.5168820000000  0.5460140000000 1.0
C      1  0.5584010000000  0.4738330000000  0.4405830000000 1.0
C      1  0.5173190000000  0.4889850000000  0.4676760000000 1.0
C      1  0.5484970000000  0.4529480000000  0.5333870000000 1.0
C      1  0.5105320000000  0.4844250000000  0.5871480000000 1.0
C      1  0.5380570000000  0.4506720000000  0.5067900000000 1.0
C      1  0.5651710000000  0.5003420000000  0.4407150000000 1.0
C      1  0.4624620000000  0.5104260000000  0.4999360000000 1.0
C      1  0.5636370000000  0.4755410000000  0.5410540000000 1.0
C      1  0.4663080000000  0.4543990000000  0.4612960000000 1.0
C      1  0.5662550000000  0.5275580000000  0.5427600000000 1.0
C      1  0.5697870000000  0.5011200000000  0.5458010000000 1.0
C      1  0.4002570000000  0.4677020000000  0.5105750000000 1.0
C      1  0.5158200000000  0.3868470000000  0.6017330000000 1.0
C      1  0.4495710000000  0.4742150000000  0.4493180000000 1.0
C      1  0.5093150000000  0.5253920000000  0.5012150000000 1.0
C      1  0.5139060000000  0.4580810000000  0.5876390000000 1.0
C      1  0.5903540000000  0.5144290000000  0.4865100000000 1.0
C      1  0.4809090000000  0.5671280000000  0.5210170000000 1.0
C      1  0.5701170000000  0.5334000000000  0.4787360000000 1.0
C      1  0.5116620000000  0.5071510000000  0.4466250000000 1.0
C      1  0.5568860000000  0.5253710000000  0.4531760000000 1.0
C      1  0.3857600000000  0.5462520000000  0.4290970000000 1.0
C      1  0.4272310000000  0.5202280000000  0.4519150000000 1.0
C      1  0.5291550000000  0.5308870000000  0.4482060000000 1.0
C      1  0.4530600000000  0.5361320000000  0.4914890000000 1.0
C      1  0.5198600000000  0.4097220000000  0.5899170000000 1.0
C      1  0.5935480000000  0.4877290000000  0.4891550000000 1.0
END
