TITL C-3866672-3872-218 0.0153605658830877 125000 -938.922133472504 0 0 152 (C1) n - 1
REM
REM in /home/nfs/bkarasulu/CARBON/AIRSS/Generating-Clusters/LCBOP/Only-C1/SD-CG/HFTN-CG/FIRE-CG
REM
REM
REM
REM
REM
REM ./C.cell (11c1c37f851c82e70ff6c80c92926a4b)
REM AIRSS Version 0.9.1 bugfix July 2018 build 013d7b7c2542+ Fri, 06 Jul 2018 19:26:36 +0100
REM compiler GCC version 9.2.1 20190827 (Red Hat 9.2.1-1)
REM options -cpp -mtune=generic -march=x86-64 -g -O0 -fpre-include=/usr/include/finclude/math-vector-fortran.h
REM seed 1083603849 1158249329 -994721878 2036304643 -657726382 519669766 63349835 -654354209 1524571993 2088890848 -1921660883 1823492097 -831779385 -1886298327 -282976086 -948414488 958907420 -1413788801 -467162272 797564577 -513753995 1664775159 916258090 -1287275938 1561386456 -637875295 1717290188 1630849605 992757232 976351363 49434875 -1106674530 152122366
REM
CELL 1.54180   50.00000   50.00000   50.00000   90.00000   90.00000   90.00000
LATT -1
SFAC C  
C      1  0.5536730000000  0.5430130000000  0.4583600000000 1.0
C      1  0.6111570000000  0.5123450000000  0.4404700000000 1.0
C      1  0.3723200000000  0.4964270000000  0.5240010000000 1.0
C      1  0.4744150000000  0.5774860000000  0.5229580000000 1.0
C      1  0.4335540000000  0.4335050000000  0.5965490000000 1.0
C      1  0.4100300000000  0.4636490000000  0.5030600000000 1.0
C      1  0.5685790000000  0.4825130000000  0.5740050000000 1.0
C      1  0.4305460000000  0.4519930000000  0.4262150000000 1.0
C      1  0.5325270000000  0.4559260000000  0.4432510000000 1.0
C      1  0.4136900000000  0.5766200000000  0.5446760000000 1.0
C      1  0.5905370000000  0.4287520000000  0.4569150000000 1.0
C      1  0.4483380000000  0.4363650000000  0.4439230000000 1.0
C      1  0.4164360000000  0.5420020000000  0.4917290000000 1.0
C      1  0.4884840000000  0.4774270000000  0.4260650000000 1.0
C      1  0.5374390000000  0.4987260000000  0.4642650000000 1.0
C      1  0.5442420000000  0.5469720000000  0.5054430000000 1.0
C      1  0.4213460000000  0.5974660000000  0.4735530000000 1.0
C      1  0.4504210000000  0.4472910000000  0.3571740000000 1.0
C      1  0.5443690000000  0.4710680000000  0.5863570000000 1.0
C      1  0.4905210000000  0.4498030000000  0.4641810000000 1.0
C      1  0.4059160000000  0.5616610000000  0.4205320000000 1.0
C      1  0.4798400000000  0.4569840000000  0.5632610000000 1.0
C      1  0.4498630000000  0.4339020000000  0.5179050000000 1.0
C      1  0.3995270000000  0.4766390000000  0.4569440000000 1.0
C      1  0.3933080000000  0.4870150000000  0.5410850000000 1.0
C      1  0.5721200000000  0.4848580000000  0.4357280000000 1.0
C      1  0.4084990000000  0.4415810000000  0.5506820000000 1.0
C      1  0.4384190000000  0.5536760000000  0.4773020000000 1.0
C      1  0.4027160000000  0.4611710000000  0.5313080000000 1.0
C      1  0.5109210000000  0.5867990000000  0.4691930000000 1.0
C      1  0.4144050000000  0.5025220000000  0.5539040000000 1.0
C      1  0.4308620000000  0.5682910000000  0.4318990000000 1.0
C      1  0.5614160000000  0.5342040000000  0.5692790000000 1.0
C      1  0.5253430000000  0.4325760000000  0.5539770000000 1.0
C      1  0.4133520000000  0.6020390000000  0.4988980000000 1.0
C      1  0.4371390000000  0.4755650000000  0.4989150000000 1.0
C      1  0.4809030000000  0.5295450000000  0.5243330000000 1.0
C      1  0.5297620000000  0.5434520000000  0.4180880000000 1.0
C      1  0.4866880000000  0.5213510000000  0.4459290000000 1.0
C      1  0.4786160000000  0.5675300000000  0.4298940000000 1.0
C      1  0.4317960000000  0.5751770000000  0.4597510000000 1.0
C      1  0.4660300000000  0.4111870000000  0.5236700000000 1.0
C      1  0.5755440000000  0.4536350000000  0.5554100000000 1.0
C      1  0.5825480000000  0.5748970000000  0.4818870000000 1.0
C      1  0.4806820000000  0.3967480000000  0.4559330000000 1.0
C      1  0.4713570000000  0.4993290000000  0.4349650000000 1.0
C      1  0.5610330000000  0.6096090000000  0.5060780000000 1.0
C      1  0.3925190000000  0.5394200000000  0.4279440000000 1.0
C      1  0.5660240000000  0.4235600000000  0.4702230000000 1.0
C      1  0.5228420000000  0.5487370000000  0.3922830000000 1.0
C      1  0.5029420000000  0.4552270000000  0.4898860000000 1.0
C      1  0.5828040000000  0.5465380000000  0.4198380000000 1.0
C      1  0.5378010000000  0.4139500000000  0.5344320000000 1.0
C      1  0.5270450000000  0.5865310000000  0.6437850000000 1.0
C      1  0.4190510000000  0.4334620000000  0.5739880000000 1.0
C      1  0.4625760000000  0.4534810000000  0.4620280000000 1.0
C      1  0.5422510000000  0.4394290000000  0.4656550000000 1.0
C      1  0.4534880000000  0.4092060000000  0.4542890000000 1.0
C      1  0.5763320000000  0.4623530000000  0.5096960000000 1.0
C      1  0.3904360000000  0.4734670000000  0.4840660000000 1.0
C      1  0.4831430000000  0.4097830000000  0.5457980000000 1.0
C      1  0.5399810000000  0.5921820000000  0.5136020000000 1.0
C      1  0.5868700000000  0.5033580000000  0.4526820000000 1.0
C      1  0.5309780000000  0.4753460000000  0.6098560000000 1.0
C      1  0.5425700000000  0.4478630000000  0.5698470000000 1.0
C      1  0.4373080000000  0.4873110000000  0.5622710000000 1.0
C      1  0.5215430000000  0.3919860000000  0.5252700000000 1.0
C      1  0.6044940000000  0.4498560000000  0.4443220000000 1.0
C      1  0.3683830000000  0.5450060000000  0.4835500000000 1.0
C      1  0.5652420000000  0.5509130000000  0.5445610000000 1.0
C      1  0.5630800000000  0.4192330000000  0.5224120000000 1.0
C      1  0.5291420000000  0.5642050000000  0.6305050000000 1.0
C      1  0.5041330000000  0.4578670000000  0.4404460000000 1.0
C      1  0.5139070000000  0.3875280000000  0.4979500000000 1.0
C      1  0.5103150000000  0.4905370000000  0.6208830000000 1.0
C      1  0.4692140000000  0.6050760000000  0.5631310000000 1.0
C      1  0.5956310000000  0.4771710000000  0.4949980000000 1.0
C      1  0.5676270000000  0.5488010000000  0.4842330000000 1.0
C      1  0.5964210000000  0.5135600000000  0.5463360000000 1.0
C      1  0.4354730000000  0.5031460000000  0.5085020000000 1.0
C      1  0.6229960000000  0.5073840000000  0.5396130000000 1.0
C      1  0.5839680000000  0.5332370000000  0.5285650000000 1.0
C      1  0.4432820000000  0.4036650000000  0.4814060000000 1.0
C      1  0.4918130000000  0.5959550000000  0.5115410000000 1.0
C      1  0.4625780000000  0.4786040000000  0.5720430000000 1.0
C      1  0.6525360000000  0.5582340000000  0.4021890000000 1.0
C      1  0.6193220000000  0.5296960000000  0.4972600000000 1.0
C      1  0.5566140000000  0.5486340000000  0.4298850000000 1.0
C      1  0.4521540000000  0.4794380000000  0.4727410000000 1.0
C      1  0.6416660000000  0.4866380000000  0.4996710000000 1.0
C      1  0.4307880000000  0.4233140000000  0.4980970000000 1.0
C      1  0.5766780000000  0.5085450000000  0.5669840000000 1.0
C      1  0.4785590000000  0.5222000000000  0.4738590000000 1.0
C      1  0.5886130000000  0.5291190000000  0.4975550000000 1.0
C      1  0.4660010000000  0.3947930000000  0.4993010000000 1.0
C      1  0.5311090000000  0.4517550000000  0.4902150000000 1.0
C      1  0.4765760000000  0.4951330000000  0.4855400000000 1.0
C      1  0.5005410000000  0.5369270000000  0.5634260000000 1.0
C      1  0.5675480000000  0.4107020000000  0.4956330000000 1.0
C      1  0.5819600000000  0.5022270000000  0.4832670000000 1.0
C      1  0.4838190000000  0.4811820000000  0.6162250000000 1.0
C      1  0.3933060000000  0.5367320000000  0.4761820000000 1.0
C      1  0.5168040000000  0.5177000000000  0.6246900000000 1.0
C      1  0.6220960000000  0.4718670000000  0.4853810000000 1.0
C      1  0.4898390000000  0.3901210000000  0.4831980000000 1.0
C      1  0.6242270000000  0.4672330000000  0.4570180000000 1.0
C      1  0.4743540000000  0.5410090000000  0.5751060000000 1.0
C      1  0.5156750000000  0.5928520000000  0.4970580000000 1.0
C      1  0.4515620000000  0.4410990000000  0.6149550000000 1.0
C      1  0.4483430000000  0.5284350000000  0.4077350000000 1.0
C      1  0.5308700000000  0.5404980000000  0.6158140000000 1.0
C      1  0.4643120000000  0.5450250000000  0.4843250000000 1.0
C      1  0.4663520000000  0.5813630000000  0.5499150000000 1.0
C      1  0.5123870000000  0.5304160000000  0.4382670000000 1.0
C      1  0.4380530000000  0.4715390000000  0.4043140000000 1.0
C      1  0.4708840000000  0.4574070000000  0.6243160000000 1.0
C      1  0.4100900000000  0.5935840000000  0.5241590000000 1.0
C      1  0.4669430000000  0.5217590000000  0.5939270000000 1.0
C      1  0.3701700000000  0.4884370000000  0.4977280000000 1.0
C      1  0.6087880000000  0.5355640000000  0.4240810000000 1.0
C      1  0.4403230000000  0.5017190000000  0.4036140000000 1.0
C      1  0.4719210000000  0.5520050000000  0.5104500000000 1.0
C      1  0.4550760000000  0.5583360000000  0.5626310000000 1.0
C      1  0.5059250000000  0.5280120000000  0.5368250000000 1.0
C      1  0.6312460000000  0.5474350000000  0.4126430000000 1.0
C      1  0.4955080000000  0.5795310000000  0.4478230000000 1.0
C      1  0.6308000000000  0.4915630000000  0.4423080000000 1.0
C      1  0.5006520000000  0.3874010000000  0.5441420000000 1.0
C      1  0.4958770000000  0.4340380000000  0.5558860000000 1.0
C      1  0.4853000000000  0.4729720000000  0.5043710000000 1.0
C      1  0.4046880000000  0.4561750000000  0.4381110000000 1.0
C      1  0.4225960000000  0.5268730000000  0.5146440000000 1.0
C      1  0.5271400000000  0.5278440000000  0.5180990000000 1.0
C      1  0.3987190000000  0.5243450000000  0.4509030000000 1.0
C      1  0.5880430000000  0.4638670000000  0.4255720000000 1.0
C      1  0.4708070000000  0.4940870000000  0.5946860000000 1.0
C      1  0.5488550000000  0.5672920000000  0.5264940000000 1.0
C      1  0.5313730000000  0.5250560000000  0.4589870000000 1.0
C      1  0.5766570000000  0.4433540000000  0.5301100000000 1.0
C      1  0.5810600000000  0.6003450000000  0.4904350000000 1.0
C      1  0.5526720000000  0.4945160000000  0.4873970000000 1.0
C      1  0.4276300000000  0.5536060000000  0.5543590000000 1.0
C      1  0.6337950000000  0.5102980000000  0.5133010000000 1.0
C      1  0.5452470000000  0.4812950000000  0.4427880000000 1.0
C      1  0.4146180000000  0.5007970000000  0.4504390000000 1.0
C      1  0.4438380000000  0.4964640000000  0.4494460000000 1.0
C      1  0.4592490000000  0.4604750000000  0.5139690000000 1.0
C      1  0.5496910000000  0.4700910000000  0.5015180000000 1.0
C      1  0.4191470000000  0.5289610000000  0.5429570000000 1.0
C      1  0.4440650000000  0.4590970000000  0.3795180000000 1.0
C      1  0.4540950000000  0.5547830000000  0.4209620000000 1.0
C      1  0.5464160000000  0.5399610000000  0.5922590000000 1.0
END
