TITL C-3866675-3766-554 31.329982007369 125000 -330.485188715398 0 0 55 (C1) n - 1
REM
REM in /home/nfs/bkarasulu/CARBON/AIRSS/Generating-Clusters/LCBOP/Only-C1/SD-CG/FIRE-CG
REM
REM
REM
REM
REM
REM ./C.cell (11c1c37f851c82e70ff6c80c92926a4b)
REM AIRSS Version 0.9.1 bugfix July 2018 build 013d7b7c2542+ Fri, 06 Jul 2018 19:26:36 +0100
REM compiler GCC version 9.2.1 20190827 (Red Hat 9.2.1-1)
REM options -cpp -mtune=generic -march=x86-64 -g -O0 -fpre-include=/usr/include/finclude/math-vector-fortran.h
REM seed 141182155 1156546310 1946972450 -532230912 -2013332306 2103120306 -1176026152 -849834878 -1010327845 -2036920525 -1049695743 -1152011901 -1086600753 -1180990204 -501509492 1229701818 782032783 347665422 -104512491 -1552434604 -86102243 1739090715 -256796008 1919713105 -1981907362 -2049160217 1504391129 -1090672330 -899714248 -1574691593 -1445980467 1469045089 -744087112
REM
CELL 1.54180   50.00000   50.00000   50.00000   90.00000   90.00000   90.00000
LATT -1
SFAC C  
C      1  0.4714190000000  0.5573680000000  0.4940870000000 1.0
C      1  0.5157160000000  0.5548950000000  0.5214580000000 1.0
C      1  0.5814370000000  0.5864260000000  0.4391530000000 1.0
C      1  0.4313870000000  0.4433310000000  0.5759240000000 1.0
C      1  0.5870760000000  0.4809300000000  0.5496410000000 1.0
C      1  0.4458230000000  0.4371420000000  0.4586860000000 1.0
C      1  0.4724040000000  0.4603220000000  0.4966230000000 1.0
C      1  0.4727860000000  0.5089010000000  0.4377760000000 1.0
C      1  0.3644680000000  0.4649070000000  0.5502410000000 1.0
C      1  0.4361210000000  0.5411800000000  0.4640280000000 1.0
C      1  0.3923960000000  0.4753980000000  0.5001160000000 1.0
C      1  0.4054190000000  0.4688580000000  0.5240170000000 1.0
C      1  0.5196530000000  0.5631890000000  0.4321680000000 1.0
C      1  0.4843240000000  0.5319230000000  0.4526340000000 1.0
C      1  0.5631970000000  0.5718130000000  0.4562910000000 1.0
C      1  0.4289270000000  0.4807540000000  0.4406840000000 1.0
C      1  0.5964950000000  0.4066030000000  0.5236550000000 1.0
C      1  0.4729430000000  0.4496130000000  0.5452960000000 1.0
C      1  0.4636310000000  0.4409620000000  0.4782530000000 1.0
C      1  0.6039550000000  0.4666930000000  0.5634830000000 1.0
C      1  0.3941420000000  0.4846520000000  0.4752090000000 1.0
C      1  0.5763180000000  0.5714060000000  0.4832630000000 1.0
C      1  0.4335230000000  0.4692520000000  0.5240690000000 1.0
C      1  0.5381630000000  0.5597810000000  0.4530130000000 1.0
C      1  0.3914180000000  0.4612780000000  0.5476760000000 1.0
C      1  0.4107760000000  0.4965660000000  0.4561090000000 1.0
C      1  0.5485940000000  0.4244770000000  0.5375130000000 1.0
C      1  0.6206600000000  0.3992630000000  0.5171920000000 1.0
C      1  0.5722020000000  0.4147130000000  0.5304810000000 1.0
C      1  0.4950960000000  0.5519380000000  0.4326290000000 1.0
C      1  0.4566460000000  0.4433350000000  0.5673020000000 1.0
C      1  0.5250360000000  0.4353070000000  0.5429810000000 1.0
C      1  0.5353430000000  0.4912170000000  0.4955670000000 1.0
C      1  0.5107500000000  0.4984430000000  0.4839040000000 1.0
C      1  0.5636230000000  0.5580190000000  0.5044060000000 1.0
C      1  0.4301470000000  0.4528350000000  0.4436250000000 1.0
C      1  0.5767820000000  0.5446880000000  0.5253580000000 1.0
C      1  0.5278920000000  0.5442410000000  0.4749320000000 1.0
C      1  0.4632410000000  0.5449210000000  0.4702520000000 1.0
C      1  0.5082480000000  0.5235870000000  0.4704080000000 1.0
C      1  0.5544270000000  0.4888700000000  0.5139610000000 1.0
C      1  0.4891550000000  0.4811510000000  0.4883050000000 1.0
C      1  0.4521290000000  0.4934930000000  0.4311510000000 1.0
C      1  0.4895230000000  0.5606350000000  0.5133800000000 1.0
C      1  0.5355940000000  0.5526350000000  0.5010030000000 1.0
C      1  0.5436890000000  0.5332200000000  0.5574260000000 1.0
C      1  0.6011600000000  0.5859380000000  0.4799420000000 1.0
C      1  0.5665870000000  0.5250370000000  0.5429960000000 1.0
C      1  0.5003030000000  0.4443920000000  0.5456820000000 1.0
C      1  0.4601690000000  0.4605850000000  0.5222790000000 1.0
C      1  0.5225110000000  0.5466060000000  0.5474700000000 1.0
C      1  0.5697200000000  0.4977120000000  0.5358250000000 1.0
C      1  0.6036930000000  0.5945680000000  0.4536560000000 1.0
C      1  0.4165050000000  0.5240190000000  0.4583750000000 1.0
C      1  0.4066560000000  0.4500130000000  0.5684460000000 1.0
END
