TITL C-3866675-3766-627 -2.71342397474226e-07 125000 -1007.87167221519 0 0 166 (C1) n - 1
REM
REM in /home/nfs/bkarasulu/CARBON/AIRSS/Generating-Clusters/LCBOP/Only-C1/SD-CG/FIRE-CG
REM
REM
REM
REM
REM
REM ./C.cell (11c1c37f851c82e70ff6c80c92926a4b)
REM AIRSS Version 0.9.1 bugfix July 2018 build 013d7b7c2542+ Fri, 06 Jul 2018 19:26:36 +0100
REM compiler GCC version 9.2.1 20190827 (Red Hat 9.2.1-1)
REM options -cpp -mtune=generic -march=x86-64 -g -O0 -fpre-include=/usr/include/finclude/math-vector-fortran.h
REM seed -1889448184 -378710891 -1330846477 138369893 -263054519 885360558 516310577 1839315682 -1186168186 1455602318 13689317 282811827 -1015868917 41669748 238155003 -1490395062 1121793562 40820649 1770422555 -1054564961 59335740 257026120 -148393708 -2090954790 522903432 1995169672 -1745026118 -109892688 -1488323578 1929350457 794400138 1080321965 1497772406
REM
CELL 1.54180   50.00000   50.00000   50.00000   90.00000   90.00000   90.00000
LATT -1
SFAC C  
C      1  0.5550900000000  0.4675590000000  0.4355240000000 1.0
C      1  0.4779220000000  0.4694350000000  0.4925560000000 1.0
C      1  0.4770810000000  0.4943000000000  0.5650630000000 1.0
C      1  0.4536750000000  0.4209480000000  0.4418920000000 1.0
C      1  0.5024830000000  0.5693950000000  0.5367890000000 1.0
C      1  0.5356140000000  0.5204470000000  0.5573090000000 1.0
C      1  0.5996950000000  0.5035690000000  0.5444530000000 1.0
C      1  0.5127940000000  0.4139430000000  0.5856070000000 1.0
C      1  0.4158970000000  0.4499900000000  0.5405420000000 1.0
C      1  0.4549290000000  0.6170680000000  0.4870200000000 1.0
C      1  0.4616400000000  0.6419920000000  0.4964910000000 1.0
C      1  0.4527360000000  0.5107200000000  0.5579450000000 1.0
C      1  0.4557020000000  0.5297820000000  0.4919260000000 1.0
C      1  0.4614350000000  0.5450780000000  0.4688100000000 1.0
C      1  0.3798900000000  0.4889240000000  0.5397090000000 1.0
C      1  0.5409200000000  0.6079940000000  0.5349710000000 1.0
C      1  0.5668920000000  0.5315290000000  0.4217930000000 1.0
C      1  0.4398920000000  0.4748260000000  0.4429110000000 1.0
C      1  0.5216260000000  0.4366300000000  0.6004270000000 1.0
C      1  0.5683440000000  0.5677480000000  0.5472210000000 1.0
C      1  0.4450950000000  0.5582450000000  0.5391710000000 1.0
C      1  0.5073260000000  0.4335710000000  0.5317130000000 1.0
C      1  0.3953810000000  0.5285480000000  0.4800980000000 1.0
C      1  0.4964950000000  0.5786790000000  0.4898610000000 1.0
C      1  0.4422430000000  0.5982520000000  0.5053670000000 1.0
C      1  0.4947590000000  0.4454700000000  0.4531600000000 1.0
C      1  0.5759850000000  0.4271650000000  0.5252900000000 1.0
C      1  0.4571530000000  0.5101500000000  0.3995930000000 1.0
C      1  0.6370350000000  0.5297410000000  0.5113860000000 1.0
C      1  0.5874390000000  0.4575060000000  0.5617380000000 1.0
C      1  0.5928620000000  0.5286120000000  0.5299600000000 1.0
C      1  0.4305620000000  0.4690430000000  0.4996290000000 1.0
C      1  0.4558930000000  0.5778960000000  0.5209050000000 1.0
C      1  0.4502030000000  0.5363590000000  0.4435670000000 1.0
C      1  0.3957860000000  0.5924790000000  0.4863600000000 1.0
C      1  0.4112090000000  0.4684850000000  0.5824840000000 1.0
C      1  0.5125510000000  0.5714760000000  0.4113880000000 1.0
C      1  0.5681020000000  0.5922440000000  0.3698470000000 1.0
C      1  0.3910230000000  0.4827580000000  0.5664060000000 1.0
C      1  0.5618890000000  0.5978560000000  0.4866680000000 1.0
C      1  0.5572290000000  0.4243490000000  0.5478640000000 1.0
C      1  0.5242920000000  0.5526670000000  0.5282680000000 1.0
C      1  0.3869100000000  0.4424550000000  0.4749070000000 1.0
C      1  0.5513610000000  0.4792510000000  0.4821520000000 1.0
C      1  0.6287740000000  0.4488060000000  0.4640180000000 1.0
C      1  0.5971150000000  0.4426350000000  0.5386020000000 1.0
C      1  0.5728730000000  0.4262360000000  0.4968570000000 1.0
C      1  0.5686150000000  0.5336900000000  0.5153080000000 1.0
C      1  0.4666570000000  0.5199000000000  0.4253170000000 1.0
C      1  0.5381990000000  0.5969600000000  0.5602990000000 1.0
C      1  0.5790700000000  0.5485290000000  0.4384890000000 1.0
C      1  0.6462860000000  0.4658960000000  0.4746800000000 1.0
C      1  0.4337230000000  0.4084950000000  0.4835630000000 1.0
C      1  0.5495500000000  0.5062930000000  0.4741810000000 1.0
C      1  0.4559900000000  0.5100360000000  0.5117930000000 1.0
C      1  0.4657710000000  0.4809490000000  0.4465990000000 1.0
C      1  0.4494880000000  0.5394250000000  0.5608760000000 1.0
C      1  0.5544850000000  0.6069210000000  0.4603780000000 1.0
C      1  0.4000910000000  0.4044640000000  0.5181890000000 1.0
C      1  0.5245860000000  0.4033140000000  0.4606330000000 1.0
C      1  0.4891840000000  0.5816840000000  0.4247200000000 1.0
C      1  0.4270710000000  0.4748020000000  0.6050910000000 1.0
C      1  0.5251960000000  0.5227370000000  0.3948470000000 1.0
C      1  0.5536180000000  0.5550330000000  0.5259300000000 1.0
C      1  0.5023710000000  0.4890570000000  0.5805860000000 1.0
C      1  0.5429490000000  0.4927290000000  0.5539370000000 1.0
C      1  0.5627990000000  0.4422610000000  0.5709270000000 1.0
C      1  0.5388520000000  0.4902070000000  0.4273330000000 1.0
C      1  0.4713660000000  0.4465420000000  0.6085560000000 1.0
C      1  0.5210160000000  0.4923110000000  0.6029550000000 1.0
C      1  0.5683800000000  0.4770150000000  0.5056310000000 1.0
C      1  0.5888090000000  0.4863580000000  0.5667600000000 1.0
C      1  0.4863560000000  0.4105210000000  0.5763780000000 1.0
C      1  0.5459260000000  0.4506900000000  0.5930430000000 1.0
C      1  0.4934380000000  0.4090690000000  0.5270980000000 1.0
C      1  0.4221190000000  0.4461380000000  0.5679740000000 1.0
C      1  0.3815050000000  0.5154230000000  0.5289520000000 1.0
C      1  0.5264150000000  0.5438650000000  0.6014240000000 1.0
C      1  0.5114820000000  0.4524620000000  0.4061840000000 1.0
C      1  0.5138330000000  0.4989070000000  0.4417490000000 1.0
C      1  0.4388640000000  0.4998780000000  0.5342630000000 1.0
C      1  0.4153990000000  0.4830670000000  0.4815430000000 1.0
C      1  0.4839470000000  0.5757930000000  0.5166390000000 1.0
C      1  0.5406550000000  0.6046310000000  0.5063040000000 1.0
C      1  0.5774800000000  0.4341040000000  0.4691900000000 1.0
C      1  0.3751540000000  0.4547880000000  0.4963550000000 1.0
C      1  0.5838200000000  0.5779160000000  0.4847810000000 1.0
C      1  0.4259850000000  0.4741320000000  0.5273300000000 1.0
C      1  0.4539010000000  0.4541080000000  0.4943140000000 1.0
C      1  0.4948360000000  0.5738510000000  0.5635390000000 1.0
C      1  0.5003590000000  0.4613410000000  0.4765060000000 1.0
C      1  0.5254590000000  0.4679380000000  0.4880840000000 1.0
C      1  0.4648210000000  0.4260320000000  0.5896390000000 1.0
C      1  0.4141530000000  0.5988850000000  0.5046670000000 1.0
C      1  0.5960980000000  0.4759840000000  0.5062410000000 1.0
C      1  0.5230660000000  0.3791690000000  0.5006770000000 1.0
C      1  0.5478160000000  0.4795060000000  0.6003540000000 1.0
C      1  0.5575950000000  0.4414030000000  0.4491000000000 1.0
C      1  0.4013040000000  0.4285530000000  0.5297240000000 1.0
C      1  0.5133560000000  0.5492020000000  0.3924140000000 1.0
C      1  0.6037680000000  0.5681290000000  0.5030270000000 1.0
C      1  0.4480650000000  0.4050950000000  0.5524780000000 1.0
C      1  0.4117160000000  0.5445780000000  0.4145280000000 1.0
C      1  0.6372990000000  0.5012870000000  0.5109580000000 1.0
C      1  0.4543550000000  0.4818590000000  0.3952920000000 1.0
C      1  0.5183830000000  0.5252230000000  0.5332280000000 1.0
C      1  0.4537590000000  0.4551980000000  0.4001520000000 1.0
C      1  0.5138200000000  0.6039030000000  0.4944300000000 1.0
C      1  0.5206310000000  0.5417970000000  0.4637870000000 1.0
C      1  0.5484520000000  0.5705150000000  0.5674850000000 1.0
C      1  0.5205430000000  0.4756480000000  0.5616770000000 1.0
C      1  0.4403340000000  0.4246650000000  0.5735660000000 1.0
C      1  0.4169880000000  0.4608370000000  0.4411270000000 1.0
C      1  0.4288630000000  0.4177690000000  0.4571510000000 1.0
C      1  0.4535190000000  0.4331100000000  0.4159090000000 1.0
C      1  0.4737610000000  0.5885220000000  0.4475850000000 1.0
C      1  0.5344380000000  0.4250020000000  0.4442730000000 1.0
C      1  0.5257820000000  0.5151570000000  0.4619240000000 1.0
C      1  0.6509650000000  0.4855940000000  0.4921770000000 1.0
C      1  0.4588870000000  0.5511780000000  0.5847360000000 1.0
C      1  0.5024070000000  0.5549000000000  0.3675770000000 1.0
C      1  0.5023310000000  0.5546040000000  0.6069660000000 1.0
C      1  0.4993250000000  0.4480090000000  0.6149430000000 1.0
C      1  0.5720300000000  0.4926600000000  0.5900110000000 1.0
C      1  0.6142600000000  0.4892540000000  0.5232570000000 1.0
C      1  0.4150530000000  0.3939970000000  0.4984680000000 1.0
C      1  0.4622780000000  0.4516310000000  0.5424190000000 1.0
C      1  0.4604210000000  0.6108660000000  0.4594050000000 1.0
C      1  0.4799850000000  0.4749910000000  0.5400890000000 1.0
C      1  0.4516660000000  0.5275040000000  0.3791190000000 1.0
C      1  0.4221480000000  0.5428480000000  0.4399120000000 1.0
C      1  0.5103370000000  0.4730940000000  0.3888000000000 1.0
C      1  0.5464700000000  0.5145960000000  0.4125840000000 1.0
C      1  0.5508800000000  0.4827560000000  0.5279410000000 1.0
C      1  0.5181220000000  0.5602110000000  0.4821750000000 1.0
C      1  0.4840480000000  0.5632250000000  0.5874660000000 1.0
C      1  0.4041290000000  0.5486430000000  0.4618970000000 1.0
C      1  0.6046030000000  0.4377450000000  0.4620090000000 1.0
C      1  0.3725760000000  0.4690460000000  0.5196060000000 1.0
C      1  0.5129420000000  0.4994860000000  0.3831360000000 1.0
C      1  0.4758800000000  0.5697950000000  0.4692140000000 1.0
C      1  0.4002470000000  0.5024090000000  0.4719720000000 1.0
C      1  0.4785390000000  0.4216220000000  0.4572000000000 1.0
C      1  0.5376550000000  0.3839010000000  0.4776480000000 1.0
C      1  0.5082170000000  0.4622690000000  0.5379940000000 1.0
C      1  0.5644390000000  0.5240900000000  0.4896140000000 1.0
C      1  0.5133470000000  0.4410110000000  0.4318410000000 1.0
C      1  0.3945110000000  0.5745040000000  0.4666700000000 1.0
C      1  0.4848710000000  0.5004490000000  0.4381490000000 1.0
C      1  0.6137190000000  0.5448790000000  0.5169320000000 1.0
C      1  0.4508760000000  0.4653720000000  0.6142160000000 1.0
C      1  0.4990210000000  0.3958740000000  0.5020480000000 1.0
C      1  0.5844940000000  0.5643250000000  0.4593910000000 1.0
C      1  0.5523840000000  0.5909060000000  0.3905900000000 1.0
C      1  0.3863370000000  0.5304670000000  0.5069800000000 1.0
C      1  0.5361720000000  0.5878620000000  0.4132160000000 1.0
C      1  0.5230190000000  0.4778630000000  0.5161250000000 1.0
C      1  0.4964120000000  0.4049040000000  0.4730170000000 1.0
C      1  0.5433330000000  0.6013840000000  0.4367710000000 1.0
C      1  0.4770070000000  0.4017850000000  0.5496360000000 1.0
C      1  0.5928600000000  0.5788080000000  0.5508500000000 1.0
C      1  0.4079470000000  0.4381100000000  0.4554590000000 1.0
C      1  0.5071700000000  0.5044150000000  0.5166210000000 1.0
C      1  0.4513760000000  0.4261880000000  0.4968480000000 1.0
C      1  0.5391130000000  0.5437970000000  0.5761330000000 1.0
C      1  0.4796530000000  0.4921070000000  0.5133290000000 1.0
END
