TITL C-3866675-3766-305 0.912022549899658 125000 -834.037817774197 0 0 134 (C1) n - 1
REM
REM in /home/nfs/bkarasulu/CARBON/AIRSS/Generating-Clusters/LCBOP/Only-C1/SD-CG/FIRE-CG
REM
REM
REM
REM
REM
REM ./C.cell (11c1c37f851c82e70ff6c80c92926a4b)
REM AIRSS Version 0.9.1 bugfix July 2018 build 013d7b7c2542+ Fri, 06 Jul 2018 19:26:36 +0100
REM compiler GCC version 9.2.1 20190827 (Red Hat 9.2.1-1)
REM options -cpp -mtune=generic -march=x86-64 -g -O0 -fpre-include=/usr/include/finclude/math-vector-fortran.h
REM seed -269419567 1607027080 1452073650 1687252953 1539516540 -25336238 1365277578 -1107527032 -1285828915 2065195324 -1721839495 -1673686657 140567504 447719107 424892609 -1201245954 -440554183 -2146449270 115205245 148172588 118922072 -1401768856 -307073369 -897099431 898560956 -965031293 2085137545 209086079 -142623713 346132658 -1721102850 -1459048777 1257728631
REM
CELL 1.54180   50.00000   50.00000   50.00000   90.00000   90.00000   90.00000
LATT -1
SFAC C  
C      1  0.4792010000000  0.5633350000000  0.4484660000000 1.0
C      1  0.4572510000000  0.3760550000000  0.4687930000000 1.0
C      1  0.4681080000000  0.4352680000000  0.4455580000000 1.0
C      1  0.5540760000000  0.4812190000000  0.6357340000000 1.0
C      1  0.4014050000000  0.5769450000000  0.4590440000000 1.0
C      1  0.5075610000000  0.5120980000000  0.3829820000000 1.0
C      1  0.5867410000000  0.4825340000000  0.4652830000000 1.0
C      1  0.5796700000000  0.4697660000000  0.5220680000000 1.0
C      1  0.3826320000000  0.5828840000000  0.4405970000000 1.0
C      1  0.5012140000000  0.5033260000000  0.4445050000000 1.0
C      1  0.6042020000000  0.5231510000000  0.5167410000000 1.0
C      1  0.5083990000000  0.4196620000000  0.4931120000000 1.0
C      1  0.4700090000000  0.4487040000000  0.5063470000000 1.0
C      1  0.4971340000000  0.4623220000000  0.5928170000000 1.0
C      1  0.5203330000000  0.3960770000000  0.5054810000000 1.0
C      1  0.4880550000000  0.4613540000000  0.3989600000000 1.0
C      1  0.5675380000000  0.5596300000000  0.6436970000000 1.0
C      1  0.4223760000000  0.4175640000000  0.4468740000000 1.0
C      1  0.4255550000000  0.4677210000000  0.5628620000000 1.0
C      1  0.5578350000000  0.6222560000000  0.5002490000000 1.0
C      1  0.5451180000000  0.4718810000000  0.5793410000000 1.0
C      1  0.4700900000000  0.5427380000000  0.4310330000000 1.0
C      1  0.5108960000000  0.5392430000000  0.5637980000000 1.0
C      1  0.5195320000000  0.4797360000000  0.4476120000000 1.0
C      1  0.5680270000000  0.4097100000000  0.4913450000000 1.0
C      1  0.3860440000000  0.4713180000000  0.4980860000000 1.0
C      1  0.4973880000000  0.3836050000000  0.5194090000000 1.0
C      1  0.6056890000000  0.4748030000000  0.5167030000000 1.0
C      1  0.5149100000000  0.4544300000000  0.4080780000000 1.0
C      1  0.4624570000000  0.5530800000000  0.5613690000000 1.0
C      1  0.5204880000000  0.4288060000000  0.4189860000000 1.0
C      1  0.5961000000000  0.5678240000000  0.5212410000000 1.0
C      1  0.5877680000000  0.5557990000000  0.5462510000000 1.0
C      1  0.4051320000000  0.4784510000000  0.5457790000000 1.0
C      1  0.4877020000000  0.5547210000000  0.4740660000000 1.0
C      1  0.5189620000000  0.4687320000000  0.5004180000000 1.0
C      1  0.5540090000000  0.5147690000000  0.5079800000000 1.0
C      1  0.5850090000000  0.4545030000000  0.4680470000000 1.0
C      1  0.5303100000000  0.4746850000000  0.4214990000000 1.0
C      1  0.5592680000000  0.5139960000000  0.6005900000000 1.0
C      1  0.5306820000000  0.5790460000000  0.5412060000000 1.0
C      1  0.5496350000000  0.5564080000000  0.6238670000000 1.0
C      1  0.4022120000000  0.5606540000000  0.4822100000000 1.0
C      1  0.4436460000000  0.3952090000000  0.5141980000000 1.0
C      1  0.4824160000000  0.4239000000000  0.5053910000000 1.0
C      1  0.5615800000000  0.5105420000000  0.4321540000000 1.0
C      1  0.5457050000000  0.4971250000000  0.4119830000000 1.0
C      1  0.4355450000000  0.4806080000000  0.4905730000000 1.0
C      1  0.6128220000000  0.5237800000000  0.4624520000000 1.0
C      1  0.4881250000000  0.4718200000000  0.5046190000000 1.0
C      1  0.4530740000000  0.4724150000000  0.5664220000000 1.0
C      1  0.4871740000000  0.5199550000000  0.4252320000000 1.0
C      1  0.4058310000000  0.4895890000000  0.4503170000000 1.0
C      1  0.5322040000000  0.5343960000000  0.4731940000000 1.0
C      1  0.6089150000000  0.4984330000000  0.4749090000000 1.0
C      1  0.4813690000000  0.4818180000000  0.4775210000000 1.0
C      1  0.4430250000000  0.5420190000000  0.4226190000000 1.0
C      1  0.5313750000000  0.4795050000000  0.5245570000000 1.0
C      1  0.5879810000000  0.5878710000000  0.5826520000000 1.0
C      1  0.5441850000000  0.5763340000000  0.4925280000000 1.0
C      1  0.5494920000000  0.5120710000000  0.4798930000000 1.0
C      1  0.5119030000000  0.4970410000000  0.5369880000000 1.0
C      1  0.5338910000000  0.5096700000000  0.3894000000000 1.0
C      1  0.4846970000000  0.5082390000000  0.3993860000000 1.0
C      1  0.5701130000000  0.5379280000000  0.4328870000000 1.0
C      1  0.4719510000000  0.4625110000000  0.4562220000000 1.0
C      1  0.4307830000000  0.4831090000000  0.4632210000000 1.0
C      1  0.5381250000000  0.5642440000000  0.5177370000000 1.0
C      1  0.5195780000000  0.4327690000000  0.4695840000000 1.0
C      1  0.5894890000000  0.5263540000000  0.5432520000000 1.0
C      1  0.3946850000000  0.4610080000000  0.5249310000000 1.0
C      1  0.6016220000000  0.5484850000000  0.5009570000000 1.0
C      1  0.4257060000000  0.5573360000000  0.4975870000000 1.0
C      1  0.5701400000000  0.5056650000000  0.5514290000000 1.0
C      1  0.4444420000000  0.4844990000000  0.4176080000000 1.0
C      1  0.3569390000000  0.5747100000000  0.4384830000000 1.0
C      1  0.4722980000000  0.3993440000000  0.5180010000000 1.0
C      1  0.5639210000000  0.4985990000000  0.4588510000000 1.0
C      1  0.4242710000000  0.4114210000000  0.4739630000000 1.0
C      1  0.4266690000000  0.4321300000000  0.4937620000000 1.0
C      1  0.4432550000000  0.4544000000000  0.4982090000000 1.0
C      1  0.5457410000000  0.5393950000000  0.6016450000000 1.0
C      1  0.5241190000000  0.4674290000000  0.5986300000000 1.0
C      1  0.4854100000000  0.4127160000000  0.4460360000000 1.0
C      1  0.5589030000000  0.4905940000000  0.5262040000000 1.0
C      1  0.4759490000000  0.3872000000000  0.4529110000000 1.0
C      1  0.4648740000000  0.4882600000000  0.5465160000000 1.0
C      1  0.4505720000000  0.4769220000000  0.4446570000000 1.0
C      1  0.5191670000000  0.5238270000000  0.5412860000000 1.0
C      1  0.5330720000000  0.4680680000000  0.6253840000000 1.0
C      1  0.4896970000000  0.5583620000000  0.5583150000000 1.0
C      1  0.5378580000000  0.5353020000000  0.5217910000000 1.0
C      1  0.4228640000000  0.4172540000000  0.5191830000000 1.0
C      1  0.5236880000000  0.4615090000000  0.4720080000000 1.0
C      1  0.4691290000000  0.4836710000000  0.4004930000000 1.0
C      1  0.5460970000000  0.5710860000000  0.5644430000000 1.0
C      1  0.3436830000000  0.5580820000000  0.4552410000000 1.0
C      1  0.5980180000000  0.5462610000000  0.4726700000000 1.0
C      1  0.5328650000000  0.5499530000000  0.5790340000000 1.0
C      1  0.5744060000000  0.5719160000000  0.5651680000000 1.0
C      1  0.4012210000000  0.4326420000000  0.5303670000000 1.0
C      1  0.5481910000000  0.3950940000000  0.5023340000000 1.0
C      1  0.4865320000000  0.5894010000000  0.4414120000000 1.0
C      1  0.4713660000000  0.4628010000000  0.5854710000000 1.0
C      1  0.5737960000000  0.5528470000000  0.4576050000000 1.0
C      1  0.5124440000000  0.4205440000000  0.4447750000000 1.0
C      1  0.5690920000000  0.5026580000000  0.6253990000000 1.0
C      1  0.5587550000000  0.4975640000000  0.5769520000000 1.0
C      1  0.6121010000000  0.4988670000000  0.5035680000000 1.0
C      1  0.5023160000000  0.5812790000000  0.5462810000000 1.0
C      1  0.4427000000000  0.4295700000000  0.4339370000000 1.0
C      1  0.5488240000000  0.5579600000000  0.4714430000000 1.0
C      1  0.4344500000000  0.5313930000000  0.5034260000000 1.0
C      1  0.5240120000000  0.6123350000000  0.4672720000000 1.0
C      1  0.3534190000000  0.5462610000000  0.4775320000000 1.0
C      1  0.4394300000000  0.5791760000000  0.5066870000000 1.0
C      1  0.5042670000000  0.6074890000000  0.4500230000000 1.0
C      1  0.4376510000000  0.5430780000000  0.5609430000000 1.0
C      1  0.4919520000000  0.5075040000000  0.4713200000000 1.0
C      1  0.5039200000000  0.5323200000000  0.4785580000000 1.0
C      1  0.5861960000000  0.5416160000000  0.6512480000000 1.0
C      1  0.4361040000000  0.5048800000000  0.5043230000000 1.0
C      1  0.4209160000000  0.5269140000000  0.4188150000000 1.0
C      1  0.5875710000000  0.5164760000000  0.6415170000000 1.0
C      1  0.5422160000000  0.6041270000000  0.4870600000000 1.0
C      1  0.3779280000000  0.5475870000000  0.4887340000000 1.0
C      1  0.4022200000000  0.5063980000000  0.5483950000000 1.0
C      1  0.5552440000000  0.4495910000000  0.5667780000000 1.0
C      1  0.4861430000000  0.4889810000000  0.5289930000000 1.0
C      1  0.4158820000000  0.5282830000000  0.5559550000000 1.0
C      1  0.3866090000000  0.4816630000000  0.4718410000000 1.0
C      1  0.4379350000000  0.3881250000000  0.4854140000000 1.0
C      1  0.5792210000000  0.4303740000000  0.4783200000000 1.0
C      1  0.4175940000000  0.4987370000000  0.4229380000000 1.0
END
