TITL C-3866672-3872-536 -0.224517038812843 125000 -483.689453365147 0 0 80 (C1) n - 1
REM
REM in /home/nfs/bkarasulu/CARBON/AIRSS/Generating-Clusters/LCBOP/Only-C1/SD-CG/FIRE-CG
REM
REM
REM
REM
REM
REM ./C.cell (11c1c37f851c82e70ff6c80c92926a4b)
REM AIRSS Version 0.9.1 bugfix July 2018 build 013d7b7c2542+ Fri, 06 Jul 2018 19:26:36 +0100
REM compiler GCC version 9.2.1 20190827 (Red Hat 9.2.1-1)
REM options -cpp -mtune=generic -march=x86-64 -g -O0 -fpre-include=/usr/include/finclude/math-vector-fortran.h
REM seed -1317527368 1603283595 -915152388 482706017 -1836692073 1547033392 599925176 -1192191266 -1104513890 -1471945966 -369485260 694420739 -995473797 -2086661415 2047912057 1500933100 1248222030 -1385356418 258297252 1757212957 -895104381 -590500640 590748831 -679509514 -564273581 434415306 -935546452 507675848 1066096369 1315507751 1468492097 1314441857 725943226
REM
CELL 1.54180   50.00000   50.00000   50.00000   90.00000   90.00000   90.00000
LATT -1
SFAC C  
C      1  0.5866120000000  0.5646140000000  0.4784210000000 1.0
C      1  0.5382590000000  0.5750610000000  0.4747790000000 1.0
C      1  0.5645420000000  0.5778090000000  0.4712130000000 1.0
C      1  0.6009880000000  0.5562010000000  0.5352690000000 1.0
C      1  0.4778100000000  0.5184040000000  0.5357630000000 1.0
C      1  0.5289070000000  0.4550480000000  0.4364950000000 1.0
C      1  0.4911750000000  0.5664850000000  0.4844800000000 1.0
C      1  0.6052540000000  0.4305450000000  0.4540700000000 1.0
C      1  0.5383940000000  0.5428920000000  0.5417530000000 1.0
C      1  0.5074860000000  0.5094330000000  0.4926420000000 1.0
C      1  0.5880070000000  0.5679800000000  0.5554330000000 1.0
C      1  0.5209540000000  0.4235560000000  0.5293950000000 1.0
C      1  0.5339010000000  0.5011880000000  0.4274680000000 1.0
C      1  0.5438460000000  0.3801930000000  0.4936430000000 1.0
C      1  0.5824160000000  0.4187630000000  0.4608830000000 1.0
C      1  0.4617290000000  0.4698810000000  0.5374850000000 1.0
C      1  0.5754880000000  0.4739420000000  0.4285690000000 1.0
C      1  0.4784800000000  0.5926620000000  0.5259010000000 1.0
C      1  0.5051770000000  0.4968770000000  0.4303220000000 1.0
C      1  0.5927570000000  0.5396150000000  0.4897290000000 1.0
C      1  0.5435990000000  0.5151840000000  0.5466100000000 1.0
C      1  0.4310340000000  0.5068500000000  0.5226230000000 1.0
C      1  0.6165190000000  0.4551640000000  0.4467960000000 1.0
C      1  0.4804580000000  0.5316630000000  0.5625460000000 1.0
C      1  0.4833310000000  0.5805920000000  0.5493240000000 1.0
C      1  0.2173520000000  0.3937300000000  0.4426590000000 1.0
C      1  0.4538300000000  0.5392640000000  0.4959390000000 1.0
C      1  0.4661820000000  0.5414060000000  0.5206900000000 1.0
C      1  0.5030540000000  0.4682400000000  0.4349300000000 1.0
C      1  0.6272510000000  0.5200880000000  0.5175180000000 1.0
C      1  0.5650800000000  0.5707530000000  0.5692150000000 1.0
C      1  0.4141080000000  0.5128830000000  0.5445730000000 1.0
C      1  0.5157200000000  0.5587140000000  0.5804750000000 1.0
C      1  0.4923370000000  0.5581860000000  0.5635100000000 1.0
C      1  0.5370820000000  0.4335640000000  0.4522980000000 1.0
C      1  0.5459940000000  0.5208100000000  0.4435020000000 1.0
C      1  0.3539620000000  0.4722340000000  0.4605710000000 1.0
C      1  0.5483690000000  0.4072410000000  0.4930990000000 1.0
C      1  0.4421180000000  0.5172340000000  0.5874020000000 1.0
C      1  0.5818800000000  0.5168760000000  0.4763630000000 1.0
C      1  0.5274150000000  0.4974300000000  0.5318040000000 1.0
C      1  0.5349100000000  0.5014750000000  0.4858340000000 1.0
C      1  0.5783260000000  0.4553810000000  0.5441130000000 1.0
C      1  0.5554480000000  0.4196690000000  0.4685200000000 1.0
C      1  0.5286360000000  0.5531930000000  0.5167760000000 1.0
C      1  0.4325910000000  0.5198360000000  0.4966930000000 1.0
C      1  0.2626460000000  0.4197580000000  0.4485980000000 1.0
C      1  0.5417780000000  0.4861570000000  0.5092160000000 1.0
C      1  0.4209630000000  0.5155860000000  0.5706970000000 1.0
C      1  0.5397930000000  0.5592740000000  0.5654470000000 1.0
C      1  0.4878110000000  0.5296490000000  0.6088580000000 1.0
C      1  0.5980920000000  0.4767090000000  0.4451740000000 1.0
C      1  0.5674610000000  0.4360880000000  0.5291690000000 1.0
C      1  0.3311330000000  0.4591150000000  0.4575780000000 1.0
C      1  0.5461130000000  0.4223090000000  0.5171600000000 1.0
C      1  0.6430760000000  0.4582140000000  0.4414760000000 1.0
C      1  0.5190880000000  0.5628000000000  0.4912630000000 1.0
C      1  0.4411650000000  0.5194070000000  0.4500560000000 1.0
C      1  0.4234270000000  0.5119720000000  0.4710200000000 1.0
C      1  0.5982060000000  0.4976930000000  0.4638410000000 1.0
C      1  0.5021070000000  0.5078130000000  0.5216620000000 1.0
C      1  0.3995980000000  0.4984530000000  0.4666900000000 1.0
C      1  0.4675690000000  0.5305040000000  0.4512800000000 1.0
C      1  0.5783980000000  0.4794100000000  0.5558730000000 1.0
C      1  0.5098930000000  0.5457570000000  0.6053380000000 1.0
C      1  0.4564820000000  0.4966610000000  0.5321920000000 1.0
C      1  0.3083040000000  0.4459960000000  0.4545840000000 1.0
C      1  0.2854750000000  0.4328770000000  0.4515910000000 1.0
C      1  0.4696560000000  0.5232410000000  0.5876820000000 1.0
C      1  0.4717010000000  0.5469110000000  0.4745740000000 1.0
C      1  0.4873750000000  0.5174160000000  0.4363990000000 1.0
C      1  0.4967780000000  0.4315620000000  0.5366310000000 1.0
C      1  0.5539230000000  0.5151420000000  0.4700830000000 1.0
C      1  0.4757910000000  0.4475110000000  0.5392890000000 1.0
C      1  0.4799030000000  0.5881990000000  0.4993610000000 1.0
C      1  0.6071570000000  0.5384140000000  0.5142810000000 1.0
C      1  0.2398110000000  0.4066360000000  0.4456040000000 1.0
C      1  0.5660730000000  0.5031410000000  0.5584590000000 1.0
C      1  0.3767900000000  0.4853530000000  0.4635670000000 1.0
C      1  0.5476920000000  0.4754610000000  0.4272070000000 1.0
END
