TITL C-3866674-3872-659 2.77936729959604e-07 125000 -608.334658983905 0 0 102 (C1) n - 1
REM
REM in /home/nfs/bkarasulu/CARBON/AIRSS/Generating-Clusters/LCBOP/Only-C1/SD-CG/FIRE-CG
REM
REM
REM
REM
REM
REM ./C.cell (11c1c37f851c82e70ff6c80c92926a4b)
REM AIRSS Version 0.9.1 bugfix July 2018 build 013d7b7c2542+ Fri, 06 Jul 2018 19:26:36 +0100
REM compiler GCC version 9.2.1 20190827 (Red Hat 9.2.1-1)
REM options -cpp -mtune=generic -march=x86-64 -g -O0 -fpre-include=/usr/include/finclude/math-vector-fortran.h
REM seed 1072025506 -1297471407 2025527887 -474635920 55945621 -1067846777 1780729425 1218062263 741648888 781455134 -969587937 -1833447077 -1758474510 -1358357323 472194751 1267352549 -1511246822 -937735854 327989733 -689255814 -2128257441 1207613039 -1133829304 1327488629 852555231 -1359694385 -1633634340 -128460904 -517128895 -700164277 -34445128 1350984276 437978175
REM
CELL 1.54180   50.00000   50.00000   50.00000   90.00000   90.00000   90.00000
LATT -1
SFAC C  
C      1  0.5379120000000  0.5394410000000  0.5881320000000 1.0
C      1  0.5181100000000  0.5649120000000  0.5463790000000 1.0
C      1  0.5341610000000  0.4826530000000  0.4132260000000 1.0
C      1  0.4377920000000  0.5584700000000  0.4290520000000 1.0
C      1  0.4373450000000  0.5655300000000  0.4770600000000 1.0
C      1  0.4212850000000  0.4375640000000  0.4753550000000 1.0
C      1  0.5743360000000  0.4751260000000  0.4454860000000 1.0
C      1  0.5102450000000  0.4665770000000  0.4070250000000 1.0
C      1  0.5138990000000  0.4795870000000  0.5466320000000 1.0
C      1  0.5758620000000  0.4502000000000  0.5139040000000 1.0
C      1  0.4788720000000  0.4711990000000  0.6008490000000 1.0
C      1  0.5780920000000  0.5558210000000  0.4754110000000 1.0
C      1  0.4087380000000  0.4906460000000  0.4735490000000 1.0
C      1  0.5411870000000  0.5838210000000  0.4528230000000 1.0
C      1  0.5422140000000  0.4460330000000  0.5508920000000 1.0
C      1  0.4462650000000  0.4484820000000  0.5686030000000 1.0
C      1  0.4689640000000  0.5520380000000  0.5745550000000 1.0
C      1  0.4780280000000  0.4360270000000  0.5359530000000 1.0
C      1  0.5375670000000  0.4898250000000  0.5041180000000 1.0
C      1  0.5144160000000  0.4047550000000  0.5047940000000 1.0
C      1  0.5034390000000  0.4201240000000  0.4620340000000 1.0
C      1  0.4917780000000  0.5776930000000  0.5379760000000 1.0
C      1  0.4260320000000  0.4879580000000  0.5271610000000 1.0
C      1  0.4844890000000  0.5786400000000  0.5069730000000 1.0
C      1  0.5361730000000  0.4236470000000  0.4993950000000 1.0
C      1  0.4968450000000  0.5420110000000  0.4343670000000 1.0
C      1  0.4526220000000  0.5102460000000  0.4404100000000 1.0
C      1  0.4082660000000  0.5179390000000  0.4761390000000 1.0
C      1  0.4714460000000  0.5001660000000  0.5413180000000 1.0
C      1  0.5188690000000  0.4834130000000  0.4627420000000 1.0
C      1  0.4713860000000  0.4533770000000  0.5566960000000 1.0
C      1  0.4916170000000  0.4834360000000  0.5022690000000 1.0
C      1  0.5555330000000  0.5009150000000  0.5598920000000 1.0
C      1  0.5687230000000  0.4731320000000  0.4729020000000 1.0
C      1  0.4370810000000  0.5469870000000  0.5411130000000 1.0
C      1  0.5393780000000  0.4399050000000  0.4370810000000 1.0
C      1  0.5249940000000  0.5462420000000  0.5248970000000 1.0
C      1  0.5470120000000  0.5135120000000  0.5848340000000 1.0
C      1  0.5652490000000  0.5725380000000  0.4581580000000 1.0
C      1  0.4979440000000  0.5162010000000  0.5897080000000 1.0
C      1  0.4716830000000  0.4392150000000  0.5093070000000 1.0
C      1  0.5903940000000  0.4978060000000  0.5071440000000 1.0
C      1  0.5351020000000  0.5112940000000  0.4092300000000 1.0
C      1  0.4721840000000  0.4645020000000  0.4969610000000 1.0
C      1  0.4844090000000  0.4782550000000  0.4090800000000 1.0
C      1  0.4208930000000  0.4542080000000  0.5618700000000 1.0
C      1  0.5011230000000  0.4440480000000  0.5932440000000 1.0
C      1  0.5158700000000  0.5114480000000  0.4620330000000 1.0
C      1  0.5388820000000  0.5262350000000  0.4625090000000 1.0
C      1  0.4695170000000  0.5760740000000  0.5572320000000 1.0
C      1  0.5148600000000  0.3861850000000  0.5247520000000 1.0
C      1  0.4172750000000  0.5436820000000  0.4790580000000 1.0
C      1  0.5337140000000  0.5825100000000  0.5000580000000 1.0
C      1  0.4514590000000  0.4711480000000  0.4796740000000 1.0
C      1  0.5222070000000  0.4379560000000  0.5743510000000 1.0
C      1  0.5413820000000  0.4775350000000  0.4791980000000 1.0
C      1  0.4401190000000  0.5747770000000  0.4505310000000 1.0
C      1  0.4578670000000  0.5665580000000  0.4985500000000 1.0
C      1  0.4430050000000  0.5091670000000  0.5864890000000 1.0
C      1  0.4399850000000  0.4180000000000  0.4811550000000 1.0
C      1  0.4918640000000  0.5251210000000  0.4575760000000 1.0
C      1  0.4649210000000  0.4908210000000  0.4231330000000 1.0
C      1  0.5413830000000  0.4760990000000  0.5524250000000 1.0
C      1  0.4903730000000  0.5342260000000  0.5699380000000 1.0
C      1  0.4925660000000  0.4896110000000  0.5849080000000 1.0
C      1  0.5129950000000  0.5830270000000  0.4593110000000 1.0
C      1  0.4123450000000  0.4713020000000  0.5429860000000 1.0
C      1  0.5318590000000  0.4275600000000  0.4637490000000 1.0
C      1  0.5685400000000  0.5443860000000  0.4996620000000 1.0
C      1  0.5441690000000  0.5571980000000  0.5078630000000 1.0
C      1  0.4663890000000  0.4167210000000  0.4925430000000 1.0
C      1  0.5778010000000  0.5216990000000  0.5159110000000 1.0
C      1  0.4499230000000  0.5433080000000  0.5142390000000 1.0
C      1  0.5125620000000  0.5003260000000  0.5099960000000 1.0
C      1  0.4659950000000  0.4344230000000  0.4345610000000 1.0
C      1  0.4983920000000  0.4660680000000  0.4549130000000 1.0
C      1  0.4876600000000  0.4403740000000  0.4500000000000 1.0
C      1  0.4888590000000  0.5229370000000  0.5436260000000 1.0
C      1  0.4240810000000  0.4663960000000  0.4746400000000 1.0
C      1  0.5612440000000  0.5218300000000  0.4062690000000 1.0
C      1  0.5527340000000  0.4654740000000  0.4297690000000 1.0
C      1  0.5185090000000  0.4394370000000  0.4154060000000 1.0
C      1  0.4510870000000  0.4991500000000  0.5214610000000 1.0
C      1  0.5072280000000  0.5844110000000  0.4881180000000 1.0
C      1  0.5849100000000  0.5145110000000  0.4169110000000 1.0
C      1  0.5394080000000  0.5582570000000  0.5662200000000 1.0
C      1  0.5131630000000  0.5292100000000  0.4143160000000 1.0
C      1  0.4390710000000  0.5316050000000  0.4274590000000 1.0
C      1  0.4864030000000  0.4794340000000  0.5569760000000 1.0
C      1  0.5645110000000  0.5493300000000  0.5534560000000 1.0
C      1  0.5088020000000  0.5240100000000  0.5239510000000 1.0
C      1  0.5686190000000  0.5221740000000  0.5432530000000 1.0
C      1  0.4971450000000  0.5695210000000  0.4403550000000 1.0
C      1  0.4422270000000  0.5761990000000  0.5468070000000 1.0
C      1  0.5838750000000  0.4719750000000  0.4970190000000 1.0
C      1  0.4522620000000  0.4857750000000  0.6012540000000 1.0
C      1  0.5911300000000  0.4943900000000  0.4337670000000 1.0
C      1  0.4929320000000  0.4071690000000  0.4851670000000 1.0
C      1  0.5510460000000  0.4370970000000  0.5223550000000 1.0
C      1  0.4547370000000  0.5183850000000  0.4999260000000 1.0
C      1  0.4446610000000  0.5344910000000  0.5689170000000 1.0
C      1  0.4655220000000  0.5171690000000  0.4665970000000 1.0
END
