TITL C-3866674-3872-226 231244.581240076 125000 -953.766644230451 0 0 158 (C1) n - 1
REM
REM in /home/nfs/bkarasulu/CARBON/AIRSS/Generating-Clusters/LCBOP/Only-C1/SD-CG/HFTN-CG/FIRE-CG
REM
REM
REM
REM
REM
REM ./C.cell (11c1c37f851c82e70ff6c80c92926a4b)
REM AIRSS Version 0.9.1 bugfix July 2018 build 013d7b7c2542+ Fri, 06 Jul 2018 19:26:36 +0100
REM compiler GCC version 9.2.1 20190827 (Red Hat 9.2.1-1)
REM options -cpp -mtune=generic -march=x86-64 -g -O0 -fpre-include=/usr/include/finclude/math-vector-fortran.h
REM seed -2000621164 503434989 -691596833 -881288438 1275654773 726288211 1994010400 -338708644 -1176165379 1244972321 175110297 -1716233434 -593762429 -68088369 -1629764151 -2117348045 -1499944681 901260175 -2129348090 -812199806 -977328941 -469584654 -1385943090 -370243489 -1163236878 1042528415 1637116176 60341758 53231888 -768944923 1242744139 1639092694 -1634738693
REM
CELL 1.54180   50.00000   50.00000   50.00000   90.00000   90.00000   90.00000
LATT -1
SFAC C  
C      1  0.4567810000000  0.5745990000000  0.4749200000000 1.0
C      1  0.5839550000000  0.4737930000000  0.5479330000000 1.0
C      1  0.5117720000000  0.6110270000000  0.4768490000000 1.0
C      1  0.4293310000000  0.5643170000000  0.4786390000000 1.0
C      1  0.4116620000000  0.5083010000000  0.4951130000000 1.0
C      1  0.5061300000000  0.4658670000000  0.5062030000000 1.0
C      1  0.5174680000000  0.4378420000000  0.5762940000000 1.0
C      1  0.6024380000000  0.4701470000000  0.5256110000000 1.0
C      1  0.6044390000000  0.4837260000000  0.4502290000000 1.0
C      1  0.4828410000000  0.6246710000000  0.5123090000000 1.0
C      1  0.4838580000000  0.6194450000000  0.4836680000000 1.0
C      1  0.5484820000000  0.4255940000000  0.6121960000000 1.0
C      1  0.4566370000000  0.4257230000000  0.4846140000000 1.0
C      1  0.5741820000000  0.5393410000000  0.4754770000000 1.0
C      1  0.5051660000000  0.4810810000000  0.6126590000000 1.0
C      1  0.5232880000000  0.4620290000000  0.4322840000000 1.0
C      1  0.4362440000000  0.4999040000000  0.5888950000000 1.0
C      1  0.6070850000000  0.4419860000000  0.5251200000000 1.0
C      1  0.5400940000000  0.5056690000000  0.4574000000000 1.0
C      1  0.5268570000000  0.5182470000000  0.4340410000000 1.0
C      1  0.5840780000000  0.5265890000000  0.5410020000000 1.0
C      1  0.5440610000000  0.5958710000000  0.5142500000000 1.0
C      1  0.4395890000000  0.4156630000000  0.4165860000000 1.0
C      1  0.4601780000000  0.5557650000000  0.4223250000000 1.0
C      1  0.5760380000000  0.5440660000000  0.5865430000000 1.0
C      1  0.4949600000000  0.4069930000000  0.5458060000000 1.0
C      1  0.5121980000000  0.6064380000000  0.4485780000000 1.0
C      1  0.5876430000000  0.4178570000000  0.4889410000000 1.0
C      1  0.5219650000000  0.4026170000000  0.5350780000000 1.0
C      1  0.4160460000000  0.5091140000000  0.3494180000000 1.0
C      1  0.4466470000000  0.4535240000000  0.3849500000000 1.0
C      1  0.5031650000000  0.4523820000000  0.5300850000000 1.0
C      1  0.5408660000000  0.5452610000000  0.5331440000000 1.0
C      1  0.4523890000000  0.4544700000000  0.5197920000000 1.0
C      1  0.5077190000000  0.5350840000000  0.5861420000000 1.0
C      1  0.4861320000000  0.5022170000000  0.5580760000000 1.0
C      1  0.4611230000000  0.5993260000000  0.5873650000000 1.0
C      1  0.5549740000000  0.5589880000000  0.4672040000000 1.0
C      1  0.5539460000000  0.5354620000000  0.5997850000000 1.0
C      1  0.5628150000000  0.4049760000000  0.5605660000000 1.0
C      1  0.3902200000000  0.4932100000000  0.4830080000000 1.0
C      1  0.5202210000000  0.3878840000000  0.4858100000000 1.0
C      1  0.4512420000000  0.4659110000000  0.5444490000000 1.0
C      1  0.5179680000000  0.5357410000000  0.5197350000000 1.0
C      1  0.4643890000000  0.5054040000000  0.5982760000000 1.0
C      1  0.5124460000000  0.4990920000000  0.5496440000000 1.0
C      1  0.5826530000000  0.5237470000000  0.4214110000000 1.0
C      1  0.4934940000000  0.4212270000000  0.5727160000000 1.0
C      1  0.4505610000000  0.5971350000000  0.5358950000000 1.0
C      1  0.4470750000000  0.5103320000000  0.5346160000000 1.0
C      1  0.5889990000000  0.5257030000000  0.5693550000000 1.0
C      1  0.4755010000000  0.5981130000000  0.5226150000000 1.0
C      1  0.6106430000000  0.5108650000000  0.4947640000000 1.0
C      1  0.5345740000000  0.5429340000000  0.4216620000000 1.0
C      1  0.5198600000000  0.5110040000000  0.5043410000000 1.0
C      1  0.4483830000000  0.5065430000000  0.4299590000000 1.0
C      1  0.4852200000000  0.5961790000000  0.5983350000000 1.0
C      1  0.4344280000000  0.4915540000000  0.3569260000000 1.0
C      1  0.5439950000000  0.3930120000000  0.4697580000000 1.0
C      1  0.4216730000000  0.4693000000000  0.4487110000000 1.0
C      1  0.4843660000000  0.4697400000000  0.4889910000000 1.0
C      1  0.3961030000000  0.4568300000000  0.5171420000000 1.0
C      1  0.5564490000000  0.4265300000000  0.4336040000000 1.0
C      1  0.4196680000000  0.5157990000000  0.5707500000000 1.0
C      1  0.4773740000000  0.5545680000000  0.4720930000000 1.0
C      1  0.5074650000000  0.5830550000000  0.5917480000000 1.0
C      1  0.5035010000000  0.5147480000000  0.4808710000000 1.0
C      1  0.5245850000000  0.3848150000000  0.5134770000000 1.0
C      1  0.5462490000000  0.4166610000000  0.5409920000000 1.0
C      1  0.5027550000000  0.5420120000000  0.4711370000000 1.0
C      1  0.4532480000000  0.4775200000000  0.3719120000000 1.0
C      1  0.4984620000000  0.4496460000000  0.4382650000000 1.0
C      1  0.5911260000000  0.5004690000000  0.5826800000000 1.0
C      1  0.4994150000000  0.4326190000000  0.4595240000000 1.0
C      1  0.4272610000000  0.6044110000000  0.5221550000000 1.0
C      1  0.6070600000000  0.4826550000000  0.4994520000000 1.0
C      1  0.5506390000000  0.4701730000000  0.5917270000000 1.0
C      1  0.4834070000000  0.5196420000000  0.5814310000000 1.0
C      1  0.5397730000000  0.4431990000000  0.5931930000000 1.0
C      1  0.4680960000000  0.6000620000000  0.4656120000000 1.0
C      1  0.5364900000000  0.5946470000000  0.5423640000000 1.0
C      1  0.5163030000000  0.5613970000000  0.5760530000000 1.0
C      1  0.5500600000000  0.4635490000000  0.5157420000000 1.0
C      1  0.5203790000000  0.6185200000000  0.5472280000000 1.0
C      1  0.4110650000000  0.5291230000000  0.5154320000000 1.0
C      1  0.5625890000000  0.5414660000000  0.4158270000000 1.0
C      1  0.5311780000000  0.4897970000000  0.6034850000000 1.0
C      1  0.5158020000000  0.4540750000000  0.5534290000000 1.0
C      1  0.4325600000000  0.4139110000000  0.4438180000000 1.0
C      1  0.4969880000000  0.5545350000000  0.5187440000000 1.0
C      1  0.4349910000000  0.4697840000000  0.5862750000000 1.0
C      1  0.4539930000000  0.4385430000000  0.4074960000000 1.0
C      1  0.5804560000000  0.3911570000000  0.5738980000000 1.0
C      1  0.5028850000000  0.6333630000000  0.5315970000000 1.0
C      1  0.5340520000000  0.5669090000000  0.5527110000000 1.0
C      1  0.4861760000000  0.5949290000000  0.4414590000000 1.0
C      1  0.4584300000000  0.5096390000000  0.4886300000000 1.0
C      1  0.4148150000000  0.4511020000000  0.4698310000000 1.0
C      1  0.4586990000000  0.5226300000000  0.5130880000000 1.0
C      1  0.4068670000000  0.6162690000000  0.5110480000000 1.0
C      1  0.4498590000000  0.3908850000000  0.5372310000000 1.0
C      1  0.4335430000000  0.5632550000000  0.4309030000000 1.0
C      1  0.4170260000000  0.5555570000000  0.4534010000000 1.0
C      1  0.3966050000000  0.4643120000000  0.4892600000000 1.0
C      1  0.5696730000000  0.3966910000000  0.4822190000000 1.0
C      1  0.5445830000000  0.4022990000000  0.4428770000000 1.0
C      1  0.4338040000000  0.4945000000000  0.4505780000000 1.0
C      1  0.4048240000000  0.4564590000000  0.5429920000000 1.0
C      1  0.4714020000000  0.5454550000000  0.5198280000000 1.0
C      1  0.4763930000000  0.4479170000000  0.4215020000000 1.0
C      1  0.5276090000000  0.5563680000000  0.4677900000000 1.0
C      1  0.5587890000000  0.4363060000000  0.5237510000000 1.0
C      1  0.5203230000000  0.5944370000000  0.4987100000000 1.0
C      1  0.5628610000000  0.5297770000000  0.5223390000000 1.0
C      1  0.4982030000000  0.5818510000000  0.5137290000000 1.0
C      1  0.4321660000000  0.4270360000000  0.4688570000000 1.0
C      1  0.5091670000000  0.5037960000000  0.4173460000000 1.0
C      1  0.5291120000000  0.4829430000000  0.5075890000000 1.0
C      1  0.4732440000000  0.4012340000000  0.5265300000000 1.0
C      1  0.4612000000000  0.5276080000000  0.4194640000000 1.0
C      1  0.4770440000000  0.4797670000000  0.6073850000000 1.0
C      1  0.5372540000000  0.4775380000000  0.4527450000000 1.0
C      1  0.4329310000000  0.3956070000000  0.3992210000000 1.0
C      1  0.5559420000000  0.4615930000000  0.4652740000000 1.0
C      1  0.4493700000000  0.5959170000000  0.5637670000000 1.0
C      1  0.5943450000000  0.4391340000000  0.4700720000000 1.0
C      1  0.4818820000000  0.3747300000000  0.4587280000000 1.0
C      1  0.5941670000000  0.6057220000000  0.4976170000000 1.0
C      1  0.4213460000000  0.5202920000000  0.5420830000000 1.0
C      1  0.4634020000000  0.4513950000000  0.4947000000000 1.0
C      1  0.3826940000000  0.5121480000000  0.4615920000000 1.0
C      1  0.4815940000000  0.4968050000000  0.4801990000000 1.0
C      1  0.5698750000000  0.6002860000000  0.5053280000000 1.0
C      1  0.6053220000000  0.4667550000000  0.4741270000000 1.0
C      1  0.5351420000000  0.5074560000000  0.5614780000000 1.0
C      1  0.5320900000000  0.6135560000000  0.4315340000000 1.0
C      1  0.4783240000000  0.4887670000000  0.3777070000000 1.0
C      1  0.4340210000000  0.5056670000000  0.4769120000000 1.0
C      1  0.4173960000000  0.5546890000000  0.5031820000000 1.0
C      1  0.5713060000000  0.4410390000000  0.4531620000000 1.0
C      1  0.4919180000000  0.3892910000000  0.4797540000000 1.0
C      1  0.4603010000000  0.4576240000000  0.5970950000000 1.0
C      1  0.4852730000000  0.5712470000000  0.4244840000000 1.0
C      1  0.4274440000000  0.4609280000000  0.5597770000000 1.0
C      1  0.4735770000000  0.4045220000000  0.4967970000000 1.0
C      1  0.4711820000000  0.4328300000000  0.5870010000000 1.0
C      1  0.3954980000000  0.5356430000000  0.4533160000000 1.0
C      1  0.5326110000000  0.5171580000000  0.5902910000000 1.0
C      1  0.4973400000000  0.4966040000000  0.3945800000000 1.0
C      1  0.5579280000000  0.5193390000000  0.4866610000000 1.0
C      1  0.6011870000000  0.5332210000000  0.4819870000000 1.0
C      1  0.5116790000000  0.5603480000000  0.4169230000000 1.0
C      1  0.5747830000000  0.4780460000000  0.5752910000000 1.0
C      1  0.4628600000000  0.4912870000000  0.5470350000000 1.0
C      1  0.5956220000000  0.5030620000000  0.4333130000000 1.0
C      1  0.5852090000000  0.4275660000000  0.5151520000000 1.0
C      1  0.3984290000000  0.5280600000000  0.3461820000000 1.0
C      1  0.5407600000000  0.4443150000000  0.4176650000000 1.0
END
