TITL C-3866676-3738-404 -463.306258028906 125000 -320.250945727429 0 0 56 (C1) n - 1
REM
REM in /home/nfs/bkarasulu/CARBON/AIRSS/Generating-Clusters/LCBOP/Only-C1/SD-CG/FIRE-CG
REM
REM
REM
REM
REM
REM ./C.cell (11c1c37f851c82e70ff6c80c92926a4b)
REM AIRSS Version 0.9.1 bugfix July 2018 build 013d7b7c2542+ Fri, 06 Jul 2018 19:26:36 +0100
REM compiler GCC version 9.2.1 20190827 (Red Hat 9.2.1-1)
REM options -cpp -mtune=generic -march=x86-64 -g -O0 -fpre-include=/usr/include/finclude/math-vector-fortran.h
REM seed -136662399 1963899993 1541247854 -1581314972 1186017483 1383515136 -1575320906 -669576405 1345617581 896689275 316984664 335108233 -1878491287 1415245708 909617734 -1306329360 -671615436 -1233988883 1570788868 110632778 1181670865 281160875 590575030 -1637243981 -1414330584 229286380 -1164176635 -470640958 401041215 -2121356958 1796107631 945073583 1918929043
REM
CELL 1.54180   50.00000   50.00000   50.00000   90.00000   90.00000   90.00000
LATT -1
SFAC C  
C      1  0.4828000000000  0.4348470000000  0.5233710000000 1.0
C      1  0.5158670000000  0.5160250000000  0.5233580000000 1.0
C      1  0.5850270000000  0.5097040000000  0.4410300000000 1.0
C      1  0.4774930000000  0.4588400000000  0.4840770000000 1.0
C      1  0.4627090000000  0.5169070000000  0.4997860000000 1.0
C      1  0.4448950000000  0.4646950000000  0.5512560000000 1.0
C      1  0.5219780000000  0.4625230000000  0.4932840000000 1.0
C      1  0.4396730000000  0.5475660000000  0.5255450000000 1.0
C      1  0.4789830000000  0.5479110000000  0.4698010000000 1.0
C      1  0.4928070000000  0.4671510000000  0.5591280000000 1.0
C      1  0.5090600000000  0.5144420000000  0.4958910000000 1.0
C      1  0.4990530000000  0.4452800000000  0.4991880000000 1.0
C      1  0.5282750000000  0.4270380000000  0.5666300000000 1.0
C      1  0.5617270000000  0.5047110000000  0.4557510000000 1.0
C      1  0.4880430000000  0.5718230000000  0.5219240000000 1.0
C      1  0.4625620000000  0.4694100000000  0.5059820000000 1.0
C      1  0.4718580000000  0.4692940000000  0.4584110000000 1.0
C      1  0.4158520000000  0.5154040000000  0.4618180000000 1.0
C      1  0.6498890000000  0.5252050000000  0.3985620000000 1.0
C      1  0.4328320000000  0.4921080000000  0.5448270000000 1.0
C      1  0.5967290000000  0.4955590000000  0.5777940000000 1.0
C      1  0.4828960000000  0.4813200000000  0.5331530000000 1.0
C      1  0.5183970000000  0.5194290000000  0.4364540000000 1.0
C      1  0.5091140000000  0.4449470000000  0.5628350000000 1.0
C      1  0.4857800000000  0.5285300000000  0.4890990000000 1.0
C      1  0.4636540000000  0.5634030000000  0.5298040000000 1.0
C      1  0.5133260000000  0.4890810000000  0.4847590000000 1.0
C      1  0.5619930000000  0.4922490000000  0.5367400000000 1.0
C      1  0.4923470000000  0.4879800000000  0.5795990000000 1.0
C      1  0.4356740000000  0.5230420000000  0.5452060000000 1.0
C      1  0.4563750000000  0.5396470000000  0.4543220000000 1.0
C      1  0.4607110000000  0.4429790000000  0.5405020000000 1.0
C      1  0.5403260000000  0.5240410000000  0.4539600000000 1.0
C      1  0.5606100000000  0.4810130000000  0.4714600000000 1.0
C      1  0.6285260000000  0.5200910000000  0.4126020000000 1.0
C      1  0.4239490000000  0.4887440000000  0.5171640000000 1.0
C      1  0.4654820000000  0.5154950000000  0.4394500000000 1.0
C      1  0.5626380000000  0.4706400000000  0.5185530000000 1.0
C      1  0.4924240000000  0.5164690000000  0.4301130000000 1.0
C      1  0.5480120000000  0.4102000000000  0.5691680000000 1.0
C      1  0.4374100000000  0.5097090000000  0.5035250000000 1.0
C      1  0.4276190000000  0.4893160000000  0.4577000000000 1.0
C      1  0.5394250000000  0.5469670000000  0.4709330000000 1.0
C      1  0.5288180000000  0.5636730000000  0.4892690000000 1.0
C      1  0.4935130000000  0.5088440000000  0.5390900000000 1.0
C      1  0.5107860000000  0.5722550000000  0.5074240000000 1.0
C      1  0.4226260000000  0.4672370000000  0.4754730000000 1.0
C      1  0.5418910000000  0.5116230000000  0.5327130000000 1.0
C      1  0.4332900000000  0.4665130000000  0.5020380000000 1.0
C      1  0.4307290000000  0.5393200000000  0.4690730000000 1.0
C      1  0.6067970000000  0.5148810000000  0.4268590000000 1.0
C      1  0.5506370000000  0.4656770000000  0.4935410000000 1.0
C      1  0.5801060000000  0.4941450000000  0.5577720000000 1.0
C      1  0.4926730000000  0.5127590000000  0.5675320000000 1.0
C      1  0.4284430000000  0.5514270000000  0.4969670000000 1.0
C      1  0.4548890000000  0.4899090000000  0.4477360000000 1.0
END
