TITL C-3866672-3872-579 -0.025224454936646 125000 -124.854571392202 0 0 22 (C1) n - 1
REM
REM in /home/nfs/bkarasulu/CARBON/AIRSS/Generating-Clusters/LCBOP/Only-C1/SD-CG/FIRE-CG
REM
REM
REM
REM
REM
REM ./C.cell (11c1c37f851c82e70ff6c80c92926a4b)
REM AIRSS Version 0.9.1 bugfix July 2018 build 013d7b7c2542+ Fri, 06 Jul 2018 19:26:36 +0100
REM compiler GCC version 9.2.1 20190827 (Red Hat 9.2.1-1)
REM options -cpp -mtune=generic -march=x86-64 -g -O0 -fpre-include=/usr/include/finclude/math-vector-fortran.h
REM seed -11516365 -1846521200 -172908519 1717763310 -1897098583 1142673611 -15424499 -1765396770 -2126058019 568205147 -1185477426 -2024728602 -2056886417 836260191 -259574554 1361003675 -936526246 -784057352 -2140802870 947824928 1737903521 -1058354394 585463748 -131632020 1571925084 1744543044 -84050694 1465518884 270112307 362975076 1479626236 2141095321 -1223221658
REM
CELL 1.54180   50.00000   50.00000   50.00000   90.00000   90.00000   90.00000
LATT -1
SFAC C  
C      1  0.5202610000000  0.4264010000000  0.4917090000000 1.0
C      1  0.4903640000000  0.5450380000000  0.5062880000000 1.0
C      1  0.5290670000000  0.4503410000000  0.4494480000000 1.0
C      1  0.4768550000000  0.5907240000000  0.4979560000000 1.0
C      1  0.4806430000000  0.5744990000000  0.5433880000000 1.0
C      1  0.4715000000000  0.6099450000000  0.4811900000000 1.0
C      1  0.4701580000000  0.5051520000000  0.5527320000000 1.0
C      1  0.5202450000000  0.4285690000000  0.5183900000000 1.0
C      1  0.4787850000000  0.5780440000000  0.5691400000000 1.0
C      1  0.5118390000000  0.4448170000000  0.5378480000000 1.0
C      1  0.4988380000000  0.4673770000000  0.5435540000000 1.0
C      1  0.5383950000000  0.4332580000000  0.4303460000000 1.0
C      1  0.5361700000000  0.4775420000000  0.4500620000000 1.0
C      1  0.4979750000000  0.5197270000000  0.4975350000000 1.0
C      1  0.4873810000000  0.4562120000000  0.4739310000000 1.0
C      1  0.4778440000000  0.4763720000000  0.4886590000000 1.0
C      1  0.5318740000000  0.5013570000000  0.4612300000000 1.0
C      1  0.4826210000000  0.5700850000000  0.5158750000000 1.0
C      1  0.4850910000000  0.4962080000000  0.5072520000000 1.0
C      1  0.5182710000000  0.5164870000000  0.4784090000000 1.0
C      1  0.5112990000000  0.4418090000000  0.4699710000000 1.0
C      1  0.4845240000000  0.4900370000000  0.5350880000000 1.0
END
