TITL C-3866673-4222-151 94195.972041518 125000 -585.985219645648 0 0 95 (C1) n - 1
REM
REM in /home/nfs/bkarasulu/CARBON/AIRSS/Generating-Clusters/LCBOP/Only-C1/SD-CG/HFTN-CG/FIRE-CG
REM
REM
REM
REM
REM
REM ./C.cell (11c1c37f851c82e70ff6c80c92926a4b)
REM AIRSS Version 0.9.1 bugfix July 2018 build 013d7b7c2542+ Fri, 06 Jul 2018 19:26:36 +0100
REM compiler GCC version 9.2.1 20190827 (Red Hat 9.2.1-1)
REM options -cpp -mtune=generic -march=x86-64 -g -O0 -fpre-include=/usr/include/finclude/math-vector-fortran.h
REM seed 138071600 -113625365 -1784840162 917616484 1455494311 1726447129 174020838 -904709515 1868725328 -1665091483 -445866587 998590512 252047327 -648380446 -92295920 365306386 -1531770481 -657851561 1091709232 1023795073 -1473922675 55035428 -1727899898 2069861706 -1223409812 659125688 108241356 -29167419 -1695263263 -2113587151 520949745 771041154 1808312935
REM
CELL 1.54180   50.00000   50.00000   50.00000   90.00000   90.00000   90.00000
LATT -1
SFAC C  
C      1  0.4770510000000  0.4119910000000  0.4653030000000 1.0
C      1  0.4581520000000  0.5633420000000  0.5186320000000 1.0
C      1  0.4087180000000  0.4836600000000  0.5152280000000 1.0
C      1  0.5191360000000  0.5101600000000  0.4226980000000 1.0
C      1  0.4262850000000  0.5225840000000  0.4884050000000 1.0
C      1  0.4986280000000  0.4512310000000  0.5033030000000 1.0
C      1  0.4949570000000  0.5462700000000  0.5440700000000 1.0
C      1  0.4618450000000  0.4981130000000  0.5312900000000 1.0
C      1  0.5585700000000  0.5128930000000  0.5750650000000 1.0
C      1  0.5323100000000  0.5037290000000  0.5847150000000 1.0
C      1  0.5147260000000  0.5449700000000  0.5652170000000 1.0
C      1  0.4907730000000  0.5059610000000  0.4804260000000 1.0
C      1  0.5617340000000  0.5350160000000  0.5563840000000 1.0
C      1  0.4996040000000  0.4612290000000  0.4234480000000 1.0
C      1  0.4331900000000  0.4922810000000  0.4473670000000 1.0
C      1  0.4973510000000  0.5644880000000  0.4348850000000 1.0
C      1  0.5721680000000  0.4886700000000  0.5644660000000 1.0
C      1  0.5298780000000  0.4745940000000  0.5819100000000 1.0
C      1  0.4582860000000  0.5329130000000  0.4456730000000 1.0
C      1  0.4647870000000  0.4962330000000  0.4820580000000 1.0
C      1  0.5556130000000  0.5886160000000  0.4919160000000 1.0
C      1  0.5117480000000  0.4507090000000  0.5756980000000 1.0
C      1  0.5005470000000  0.5272450000000  0.5224740000000 1.0
C      1  0.5262340000000  0.4156350000000  0.4662890000000 1.0
C      1  0.5049170000000  0.5912160000000  0.5071630000000 1.0
C      1  0.4346820000000  0.4158420000000  0.5286120000000 1.0
C      1  0.4366750000000  0.5367550000000  0.5110810000000 1.0
C      1  0.5129180000000  0.4544410000000  0.5281710000000 1.0
C      1  0.4172440000000  0.4948510000000  0.5411580000000 1.0
C      1  0.5419540000000  0.5747130000000  0.5377460000000 1.0
C      1  0.4716490000000  0.4566500000000  0.5111520000000 1.0
C      1  0.4095960000000  0.4977510000000  0.4900000000000 1.0
C      1  0.5735120000000  0.4715970000000  0.4719390000000 1.0
C      1  0.5454160000000  0.5226560000000  0.4337190000000 1.0
C      1  0.5637570000000  0.4996330000000  0.4330210000000 1.0
C      1  0.4676560000000  0.5545620000000  0.5446940000000 1.0
C      1  0.5092650000000  0.4629600000000  0.4802500000000 1.0
C      1  0.5143770000000  0.5599430000000  0.4754000000000 1.0
C      1  0.4183500000000  0.4390820000000  0.4915080000000 1.0
C      1  0.4381100000000  0.5168430000000  0.5373990000000 1.0
C      1  0.5414810000000  0.5549160000000  0.5579290000000 1.0
C      1  0.5205860000000  0.5699930000000  0.5194760000000 1.0
C      1  0.5738040000000  0.5252190000000  0.5303200000000 1.0
C      1  0.5134000000000  0.4906520000000  0.4767370000000 1.0
C      1  0.5306280000000  0.4285160000000  0.5797260000000 1.0
C      1  0.5014800000000  0.4197270000000  0.4530230000000 1.0
C      1  0.5569660000000  0.4370460000000  0.5777300000000 1.0
C      1  0.5683990000000  0.5363330000000  0.5020150000000 1.0
C      1  0.4669590000000  0.4484310000000  0.5396630000000 1.0
C      1  0.4131620000000  0.4808010000000  0.4651110000000 1.0
C      1  0.5546840000000  0.4804430000000  0.5205580000000 1.0
C      1  0.4165070000000  0.4561740000000  0.5141620000000 1.0
C      1  0.4453750000000  0.5144310000000  0.4661650000000 1.0
C      1  0.5656870000000  0.4469960000000  0.4587840000000 1.0
C      1  0.5586990000000  0.4656900000000  0.5754450000000 1.0
C      1  0.4495810000000  0.5360650000000  0.5584350000000 1.0
C      1  0.5665010000000  0.5609130000000  0.4769280000000 1.0
C      1  0.4899160000000  0.5297040000000  0.4956300000000 1.0
C      1  0.4953130000000  0.4486970000000  0.5518210000000 1.0
C      1  0.5270040000000  0.4794520000000  0.5295350000000 1.0
C      1  0.4608230000000  0.5230370000000  0.5811990000000 1.0
C      1  0.5232010000000  0.5627620000000  0.4484820000000 1.0
C      1  0.4723180000000  0.4694580000000  0.4224210000000 1.0
C      1  0.5082690000000  0.4172890000000  0.4052120000000 1.0
C      1  0.4666230000000  0.5165730000000  0.4233820000000 1.0
C      1  0.5415730000000  0.5269320000000  0.4970570000000 1.0
C      1  0.4744050000000  0.5870640000000  0.5075180000000 1.0
C      1  0.5273040000000  0.6025090000000  0.4895230000000 1.0
C      1  0.5508140000000  0.4259320000000  0.4700020000000 1.0
C      1  0.4613120000000  0.4826780000000  0.5067130000000 1.0
C      1  0.4843200000000  0.4961510000000  0.5495660000000 1.0
C      1  0.5576050000000  0.4819530000000  0.4925980000000 1.0
C      1  0.5484990000000  0.5487610000000  0.4481140000000 1.0
C      1  0.4345410000000  0.4159270000000  0.4986170000000 1.0
C      1  0.5103150000000  0.5210970000000  0.5814100000000 1.0
C      1  0.4847250000000  0.5086310000000  0.5757940000000 1.0
C      1  0.5379810000000  0.5017370000000  0.4847950000000 1.0
C      1  0.5032210000000  0.4328490000000  0.4273350000000 1.0
C      1  0.5737170000000  0.4951010000000  0.5358890000000 1.0
C      1  0.4871990000000  0.5520810000000  0.4778290000000 1.0
C      1  0.4594390000000  0.6077050000000  0.4967330000000 1.0
C      1  0.5610370000000  0.4512440000000  0.4308340000000 1.0
C      1  0.5618920000000  0.5879170000000  0.5213050000000 1.0
C      1  0.4540370000000  0.4904550000000  0.4264710000000 1.0
C      1  0.4262200000000  0.4703710000000  0.5575970000000 1.0
C      1  0.5083810000000  0.5013500000000  0.5333710000000 1.0
C      1  0.5498910000000  0.4757310000000  0.4223500000000 1.0
C      1  0.5214970000000  0.4804550000000  0.4206530000000 1.0
C      1  0.4114850000000  0.4525060000000  0.4677950000000 1.0
C      1  0.4935550000000  0.5195110000000  0.4152180000000 1.0
C      1  0.4349900000000  0.4455770000000  0.5395380000000 1.0
C      1  0.4751970000000  0.5542820000000  0.4519280000000 1.0
C      1  0.5271530000000  0.5514580000000  0.4985670000000 1.0
C      1  0.5821100000000  0.4922110000000  0.4534990000000 1.0
C      1  0.4558500000000  0.4084730000000  0.4815620000000 1.0
END
