TITL C-3866671-3735-112 20.1334648660122 125000 -1211.12432200646 0 0 198 (C1) n - 1
REM
REM in /home/nfs/bkarasulu/CARBON/AIRSS/Generating-Clusters/LCBOP/Only-C1/SD-CG/HFTN-CG/FIRE-CG
REM
REM
REM
REM
REM
REM ./C.cell (11c1c37f851c82e70ff6c80c92926a4b)
REM AIRSS Version 0.9.1 bugfix July 2018 build 013d7b7c2542+ Fri, 06 Jul 2018 19:26:36 +0100
REM compiler GCC version 9.2.1 20190827 (Red Hat 9.2.1-1)
REM options -cpp -mtune=generic -march=x86-64 -g -O0 -fpre-include=/usr/include/finclude/math-vector-fortran.h
REM seed -1313608658 -715968711 470563769 1665140356 -1046128096 -654465776 -1509992746 299890317 163459453 686820568 1773379849 -1402622458 1055470334 -1731393209 1195779426 2104687058 -1242344040 1709200421 -1116130351 1194146100 1845878349 212237513 818893174 -69192033 -1630565210 -430371668 -1186141710 64817852 1736829233 -1850987339 121195392 -394636124 405401547
REM
CELL 1.54180   50.00000   50.00000   50.00000   90.00000   90.00000   90.00000
LATT -1
SFAC C  
C      1  0.5426990000000  0.5319970000000  0.6065320000000 1.0
C      1  0.5497660000000  0.6216890000000  0.5290050000000 1.0
C      1  0.5847580000000  0.4429770000000  0.6110290000000 1.0
C      1  0.5858780000000  0.5138230000000  0.5242950000000 1.0
C      1  0.5631010000000  0.5166410000000  0.4316470000000 1.0
C      1  0.5773470000000  0.5735100000000  0.5655740000000 1.0
C      1  0.5354320000000  0.5088650000000  0.6221240000000 1.0
C      1  0.6211970000000  0.5017940000000  0.4726980000000 1.0
C      1  0.5062290000000  0.4924620000000  0.4520230000000 1.0
C      1  0.5419420000000  0.4753040000000  0.5450390000000 1.0
C      1  0.4400030000000  0.4075890000000  0.4754200000000 1.0
C      1  0.5189280000000  0.4886520000000  0.5590300000000 1.0
C      1  0.4505560000000  0.5142250000000  0.5160090000000 1.0
C      1  0.4616080000000  0.5522680000000  0.6208530000000 1.0
C      1  0.5439380000000  0.4292860000000  0.4075310000000 1.0
C      1  0.4642880000000  0.5521700000000  0.4721740000000 1.0
C      1  0.5321350000000  0.4539030000000  0.4857040000000 1.0
C      1  0.5661020000000  0.6128070000000  0.4328640000000 1.0
C      1  0.5442410000000  0.4916160000000  0.5178730000000 1.0
C      1  0.4446590000000  0.5343980000000  0.3745830000000 1.0
C      1  0.4879490000000  0.5995850000000  0.5399560000000 1.0
C      1  0.6261880000000  0.5223500000000  0.4899100000000 1.0
C      1  0.5078460000000  0.4010780000000  0.6329730000000 1.0
C      1  0.4709000000000  0.4475860000000  0.3937970000000 1.0
C      1  0.4963130000000  0.5128160000000  0.5289230000000 1.0
C      1  0.5901840000000  0.4695870000000  0.6090580000000 1.0
C      1  0.3785080000000  0.5462000000000  0.5224400000000 1.0
C      1  0.5438080000000  0.5617030000000  0.5097710000000 1.0
C      1  0.4763010000000  0.5398390000000  0.5716760000000 1.0
C      1  0.4841540000000  0.4590020000000  0.4986320000000 1.0
C      1  0.4713650000000  0.5720880000000  0.4528480000000 1.0
C      1  0.5205770000000  0.3722590000000  0.4879200000000 1.0
C      1  0.4743960000000  0.4680270000000  0.5475930000000 1.0
C      1  0.5417830000000  0.4474150000000  0.5332570000000 1.0
C      1  0.4022260000000  0.4640050000000  0.4998910000000 1.0
C      1  0.5269950000000  0.5331000000000  0.4703920000000 1.0
C      1  0.5598850000000  0.4838340000000  0.3953590000000 1.0
C      1  0.5412260000000  0.5387540000000  0.5264270000000 1.0
C      1  0.4402490000000  0.5536800000000  0.4866230000000 1.0
C      1  0.3983660000000  0.5651920000000  0.5155160000000 1.0
C      1  0.5891980000000  0.5490860000000  0.5558450000000 1.0
C      1  0.4933080000000  0.4895240000000  0.5461640000000 1.0
C      1  0.4246270000000  0.5085780000000  0.5022680000000 1.0
C      1  0.4167160000000  0.5677940000000  0.4379100000000 1.0
C      1  0.5274720000000  0.4023790000000  0.4502780000000 1.0
C      1  0.5290630000000  0.4822170000000  0.6198520000000 1.0
C      1  0.5087550000000  0.5679650000000  0.6004000000000 1.0
C      1  0.4633680000000  0.4439890000000  0.5080460000000 1.0
C      1  0.5894350000000  0.4444250000000  0.5403240000000 1.0
C      1  0.4720490000000  0.5209200000000  0.4323080000000 1.0
C      1  0.3658010000000  0.5210480000000  0.5863870000000 1.0
C      1  0.5150680000000  0.4068850000000  0.5226020000000 1.0
C      1  0.5244540000000  0.5035580000000  0.4716930000000 1.0
C      1  0.5688770000000  0.4473270000000  0.5201110000000 1.0
C      1  0.5660800000000  0.5602770000000  0.4917240000000 1.0
C      1  0.5557100000000  0.4394800000000  0.4319970000000 1.0
C      1  0.4344650000000  0.5541600000000  0.3905070000000 1.0
C      1  0.5108180000000  0.4589980000000  0.4119440000000 1.0
C      1  0.5788020000000  0.4213170000000  0.4833080000000 1.0
C      1  0.4691050000000  0.4555220000000  0.6045840000000 1.0
C      1  0.4436960000000  0.5372380000000  0.6029490000000 1.0
C      1  0.4434830000000  0.5717420000000  0.5093940000000 1.0
C      1  0.6146960000000  0.4616080000000  0.4376360000000 1.0
C      1  0.4930170000000  0.4674460000000  0.3917130000000 1.0
C      1  0.5887920000000  0.4806970000000  0.5830680000000 1.0
C      1  0.4861050000000  0.5639590000000  0.6170660000000 1.0
C      1  0.5351880000000  0.3778230000000  0.6713670000000 1.0
C      1  0.4811040000000  0.4862890000000  0.4950060000000 1.0
C      1  0.4856710000000  0.6376590000000  0.5183850000000 1.0
C      1  0.4599710000000  0.4756190000000  0.4541290000000 1.0
C      1  0.4629380000000  0.4846090000000  0.6075650000000 1.0
C      1  0.4042970000000  0.5753820000000  0.4611940000000 1.0
C      1  0.5214590000000  0.3892400000000  0.6523730000000 1.0
C      1  0.4928350000000  0.4358610000000  0.4601050000000 1.0
C      1  0.4956750000000  0.5806670000000  0.5182820000000 1.0
C      1  0.4500100000000  0.5999990000000  0.5160810000000 1.0
C      1  0.4988610000000  0.5914120000000  0.3800120000000 1.0
C      1  0.4097210000000  0.4455310000000  0.4269480000000 1.0
C      1  0.5321670000000  0.6194160000000  0.3999050000000 1.0
C      1  0.5167330000000  0.5308430000000  0.4114600000000 1.0
C      1  0.4956320000000  0.5766530000000  0.3581920000000 1.0
C      1  0.4218070000000  0.4471860000000  0.4029280000000 1.0
C      1  0.4063830000000  0.4533200000000  0.5771800000000 1.0
C      1  0.5408400000000  0.4402800000000  0.5949350000000 1.0
C      1  0.4483720000000  0.5191570000000  0.5428960000000 1.0
C      1  0.4756820000000  0.3865830000000  0.5019950000000 1.0
C      1  0.5046840000000  0.4883870000000  0.3766860000000 1.0
C      1  0.4612550000000  0.4125220000000  0.5755100000000 1.0
C      1  0.4630590000000  0.3894620000000  0.5279820000000 1.0
C      1  0.5077210000000  0.5746990000000  0.5713710000000 1.0
C      1  0.4107250000000  0.4169980000000  0.5179920000000 1.0
C      1  0.5020940000000  0.4134070000000  0.4464970000000 1.0
C      1  0.5470200000000  0.4220010000000  0.4525360000000 1.0
C      1  0.4928200000000  0.5267750000000  0.3486650000000 1.0
C      1  0.6122790000000  0.4767820000000  0.5676110000000 1.0
C      1  0.5342370000000  0.5778990000000  0.4442620000000 1.0
C      1  0.6149970000000  0.4348870000000  0.4484180000000 1.0
C      1  0.4168710000000  0.4844110000000  0.5444900000000 1.0
C      1  0.5164080000000  0.4739050000000  0.4340780000000 1.0
C      1  0.4859400000000  0.4210620000000  0.4045290000000 1.0
C      1  0.5043010000000  0.3876220000000  0.5047570000000 1.0
C      1  0.6210510000000  0.5389270000000  0.5112720000000 1.0
C      1  0.4074110000000  0.5065090000000  0.4356990000000 1.0
C      1  0.5579350000000  0.5159410000000  0.5212400000000 1.0
C      1  0.3978370000000  0.4414760000000  0.5135540000000 1.0
C      1  0.4917960000000  0.5389270000000  0.4225830000000 1.0
C      1  0.4406970000000  0.5715890000000  0.5561560000000 1.0
C      1  0.3758900000000  0.5199270000000  0.5623750000000 1.0
C      1  0.4232560000000  0.4100230000000  0.5423890000000 1.0
C      1  0.4781300000000  0.4972940000000  0.4476080000000 1.0
C      1  0.4956270000000  0.4148720000000  0.6121100000000 1.0
C      1  0.5517780000000  0.4319010000000  0.4786480000000 1.0
C      1  0.5350670000000  0.4834610000000  0.4914480000000 1.0
C      1  0.4621440000000  0.3891090000000  0.4752070000000 1.0
C      1  0.5116650000000  0.5836890000000  0.4269390000000 1.0
C      1  0.4671190000000  0.4464640000000  0.4543530000000 1.0
C      1  0.5798220000000  0.5284900000000  0.4517320000000 1.0
C      1  0.4573380000000  0.5084110000000  0.3768050000000 1.0
C      1  0.5128700000000  0.5991960000000  0.4029150000000 1.0
C      1  0.5566360000000  0.6188590000000  0.5033680000000 1.0
C      1  0.5502090000000  0.5235300000000  0.5803090000000 1.0
C      1  0.5522260000000  0.5985100000000  0.4528910000000 1.0
C      1  0.4202530000000  0.4822980000000  0.4878430000000 1.0
C      1  0.4621090000000  0.5978080000000  0.4550420000000 1.0
C      1  0.5368880000000  0.5495530000000  0.4488680000000 1.0
C      1  0.5300620000000  0.3777660000000  0.4634040000000 1.0
C      1  0.5806590000000  0.4716400000000  0.4670760000000 1.0
C      1  0.4881050000000  0.5213410000000  0.5888570000000 1.0
C      1  0.4215200000000  0.5308990000000  0.4821410000000 1.0
C      1  0.4233730000000  0.5661090000000  0.5311000000000 1.0
C      1  0.4592120000000  0.5954470000000  0.5451600000000 1.0
C      1  0.3977230000000  0.5755110000000  0.4879060000000 1.0
C      1  0.3868350000000  0.5231570000000  0.5367420000000 1.0
C      1  0.5044000000000  0.4467530000000  0.4831060000000 1.0
C      1  0.5605710000000  0.4894760000000  0.4242220000000 1.0
C      1  0.3523040000000  0.5498340000000  0.5155540000000 1.0
C      1  0.4325480000000  0.5527700000000  0.4191630000000 1.0
C      1  0.5563380000000  0.6240440000000  0.4105160000000 1.0
C      1  0.4197500000000  0.4044540000000  0.4944210000000 1.0
C      1  0.5763700000000  0.5288080000000  0.5718300000000 1.0
C      1  0.6069110000000  0.4678090000000  0.5413780000000 1.0
C      1  0.5807970000000  0.4303280000000  0.5643680000000 1.0
C      1  0.4951060000000  0.5525620000000  0.5532320000000 1.0
C      1  0.4686680000000  0.3841170000000  0.4465070000000 1.0
C      1  0.5282500000000  0.5155150000000  0.5646860000000 1.0
C      1  0.4438780000000  0.4701690000000  0.5516810000000 1.0
C      1  0.4867700000000  0.4999400000000  0.6044180000000 1.0
C      1  0.5305290000000  0.5923090000000  0.5644610000000 1.0
C      1  0.4427930000000  0.4304380000000  0.4590200000000 1.0
C      1  0.4791370000000  0.5589840000000  0.5272870000000 1.0
C      1  0.4342210000000  0.4517320000000  0.5728840000000 1.0
C      1  0.4451220000000  0.4607840000000  0.3947450000000 1.0
C      1  0.4498700000000  0.4027100000000  0.5499450000000 1.0
C      1  0.4955260000000  0.5530970000000  0.3458960000000 1.0
C      1  0.4822780000000  0.4013500000000  0.5908160000000 1.0
C      1  0.4630080000000  0.6248430000000  0.5077170000000 1.0
C      1  0.4296440000000  0.5043950000000  0.4174290000000 1.0
C      1  0.4214450000000  0.4488370000000  0.4521250000000 1.0
C      1  0.4848770000000  0.5065980000000  0.3665030000000 1.0
C      1  0.5169370000000  0.5700960000000  0.5020550000000 1.0
C      1  0.6004110000000  0.5380450000000  0.5314590000000 1.0
C      1  0.5154830000000  0.4310790000000  0.4049150000000 1.0
C      1  0.5679550000000  0.4326740000000  0.5902970000000 1.0
C      1  0.4831890000000  0.5364230000000  0.4860290000000 1.0
C      1  0.5086780000000  0.5473780000000  0.4859960000000 1.0
C      1  0.5022490000000  0.6239240000000  0.5381120000000 1.0
C      1  0.4422930000000  0.5068840000000  0.6066740000000 1.0
C      1  0.4896310000000  0.5660310000000  0.4319020000000 1.0
C      1  0.4825480000000  0.4024370000000  0.4281240000000 1.0
C      1  0.4072330000000  0.5218200000000  0.4586430000000 1.0
C      1  0.5369180000000  0.5604190000000  0.6040830000000 1.0
C      1  0.4455020000000  0.5273850000000  0.4257120000000 1.0
C      1  0.5528080000000  0.5793600000000  0.5789860000000 1.0
C      1  0.6063680000000  0.4665610000000  0.4102240000000 1.0
C      1  0.5642110000000  0.4664570000000  0.4419430000000 1.0
C      1  0.6076630000000  0.4807530000000  0.4591080000000 1.0
C      1  0.6014700000000  0.4216760000000  0.4680120000000 1.0
C      1  0.5170050000000  0.4323270000000  0.5350520000000 1.0
C      1  0.4952750000000  0.4440770000000  0.6112840000000 1.0
C      1  0.3958820000000  0.4721290000000  0.5605740000000 1.0
C      1  0.4430520000000  0.4900300000000  0.3951980000000 1.0
C      1  0.5347050000000  0.4891400000000  0.3800960000000 1.0
C      1  0.5646820000000  0.4795590000000  0.5665810000000 1.0
C      1  0.5214930000000  0.4564400000000  0.6089990000000 1.0
C      1  0.5160720000000  0.5330290000000  0.5425860000000 1.0
C      1  0.4778760000000  0.5137730000000  0.5047760000000 1.0
C      1  0.6007670000000  0.4896840000000  0.5243410000000 1.0
C      1  0.4536670000000  0.4382940000000  0.5868820000000 1.0
C      1  0.5538120000000  0.6089730000000  0.4788190000000 1.0
C      1  0.5769790000000  0.4630370000000  0.4951690000000 1.0
C      1  0.4071380000000  0.5055090000000  0.5272890000000 1.0
C      1  0.5789870000000  0.5461200000000  0.4724490000000 1.0
C      1  0.4317730000000  0.4743770000000  0.4631530000000 1.0
C      1  0.5409700000000  0.5334340000000  0.4255250000000 1.0
C      1  0.4922370000000  0.4441390000000  0.5453210000000 1.0
C      1  0.5289540000000  0.6158490000000  0.5469700000000 1.0
C      1  0.5866730000000  0.4725660000000  0.3916760000000 1.0
C      1  0.4493620000000  0.5502600000000  0.5759690000000 1.0
END
