TITL C-3866669-3764-226 0.0489491361489554 125000 -872.327659867841 0 0 144 (C1) n - 1
REM
REM in /home/nfs/bkarasulu/CARBON/AIRSS/Generating-Clusters/LCBOP/Only-C1/SD-CG/HFTN-CG/FIRE-CG
REM
REM
REM
REM
REM
REM ./C.cell (11c1c37f851c82e70ff6c80c92926a4b)
REM AIRSS Version 0.9.1 bugfix July 2018 build 013d7b7c2542+ Fri, 06 Jul 2018 19:26:36 +0100
REM compiler GCC version 9.2.1 20190827 (Red Hat 9.2.1-1)
REM options -cpp -mtune=generic -march=x86-64 -g -O0 -fpre-include=/usr/include/finclude/math-vector-fortran.h
REM seed -791104423 -946117671 -1998549790 306712935 2005586977 -1924914654 -791509369 966508908 558919518 -831482877 -1273985772 -1800328945 -287948868 196692066 1473565720 -1507194494 731579810 -541484319 -39238527 -1508998675 -1081837620 -1587257930 -59601858 577364297 -1776868357 -1165977873 -592147303 -1691020755 -1888234510 1599796345 733177870 176699036 -284452133
REM
CELL 1.54180   50.00000   50.00000   50.00000   90.00000   90.00000   90.00000
LATT -1
SFAC C  
C      1  0.5055970000000  0.4242090000000  0.4210250000000 1.0
C      1  0.5390610000000  0.5527440000000  0.5980580000000 1.0
C      1  0.4410100000000  0.4800020000000  0.4942170000000 1.0
C      1  0.5823890000000  0.5447470000000  0.5534580000000 1.0
C      1  0.4379880000000  0.4456270000000  0.4447350000000 1.0
C      1  0.4840330000000  0.4866360000000  0.5703190000000 1.0
C      1  0.5672060000000  0.4616900000000  0.4493570000000 1.0
C      1  0.4248480000000  0.4423860000000  0.5186250000000 1.0
C      1  0.4838120000000  0.4725800000000  0.4982890000000 1.0
C      1  0.5327550000000  0.4238150000000  0.4299730000000 1.0
C      1  0.4385490000000  0.5655230000000  0.4854430000000 1.0
C      1  0.4772800000000  0.3733300000000  0.4562100000000 1.0
C      1  0.5261620000000  0.5636830000000  0.5247340000000 1.0
C      1  0.4458510000000  0.5026130000000  0.5119700000000 1.0
C      1  0.5311760000000  0.4775700000000  0.5907250000000 1.0
C      1  0.5573600000000  0.4234780000000  0.4911060000000 1.0
C      1  0.5361030000000  0.6068600000000  0.5249100000000 1.0
C      1  0.5812450000000  0.4628800000000  0.4758890000000 1.0
C      1  0.4987630000000  0.5682440000000  0.5272290000000 1.0
C      1  0.4766190000000  0.3964110000000  0.5228820000000 1.0
C      1  0.5691130000000  0.5076030000000  0.5827770000000 1.0
C      1  0.4974940000000  0.5556280000000  0.4517320000000 1.0
C      1  0.5118100000000  0.4006940000000  0.5589670000000 1.0
C      1  0.4651050000000  0.4799330000000  0.4796450000000 1.0
C      1  0.4830940000000  0.5825280000000  0.5050900000000 1.0
C      1  0.5111540000000  0.5181800000000  0.5398580000000 1.0
C      1  0.4777040000000  0.5373610000000  0.4956360000000 1.0
C      1  0.5054260000000  0.4910290000000  0.3931630000000 1.0
C      1  0.5686780000000  0.5096290000000  0.5180710000000 1.0
C      1  0.5076280000000  0.6143010000000  0.5301580000000 1.0
C      1  0.4764920000000  0.4849900000000  0.3960040000000 1.0
C      1  0.4550350000000  0.5084750000000  0.6047540000000 1.0
C      1  0.4714850000000  0.5654190000000  0.4349130000000 1.0
C      1  0.5092950000000  0.4412330000000  0.5143550000000 1.0
C      1  0.6180290000000  0.4524110000000  0.5298800000000 1.0
C      1  0.4527670000000  0.5775640000000  0.5101200000000 1.0
C      1  0.5443990000000  0.5443590000000  0.4178590000000 1.0
C      1  0.4398710000000  0.5367370000000  0.4726320000000 1.0
C      1  0.5677640000000  0.5436720000000  0.4347920000000 1.0
C      1  0.4382070000000  0.5382130000000  0.5567610000000 1.0
C      1  0.5773970000000  0.4579340000000  0.5876450000000 1.0
C      1  0.5438470000000  0.4049950000000  0.5075590000000 1.0
C      1  0.4200660000000  0.5157370000000  0.4691090000000 1.0
C      1  0.4729790000000  0.3670240000000  0.4826770000000 1.0
C      1  0.4280130000000  0.4958570000000  0.4478510000000 1.0
C      1  0.5167680000000  0.5692350000000  0.5979590000000 1.0
C      1  0.4746400000000  0.4806770000000  0.4528860000000 1.0
C      1  0.4312100000000  0.4527400000000  0.4938920000000 1.0
C      1  0.4353450000000  0.5863380000000  0.4652610000000 1.0
C      1  0.4849310000000  0.5560050000000  0.5502120000000 1.0
C      1  0.4618960000000  0.5313170000000  0.4018720000000 1.0
C      1  0.5243950000000  0.5073320000000  0.5952010000000 1.0
C      1  0.5315630000000  0.5451740000000  0.5046940000000 1.0
C      1  0.5799720000000  0.5412780000000  0.4817440000000 1.0
C      1  0.4744150000000  0.6304180000000  0.4939700000000 1.0
C      1  0.5228410000000  0.5196030000000  0.5133490000000 1.0
C      1  0.4681080000000  0.4216290000000  0.5341700000000 1.0
C      1  0.5570750000000  0.5389130000000  0.4629180000000 1.0
C      1  0.5258640000000  0.3841910000000  0.5150000000000 1.0
C      1  0.5085240000000  0.4292030000000  0.5623810000000 1.0
C      1  0.5224430000000  0.4725970000000  0.4359820000000 1.0
C      1  0.4244390000000  0.5150640000000  0.5651460000000 1.0
C      1  0.4302940000000  0.5068320000000  0.5912420000000 1.0
C      1  0.4905890000000  0.6114420000000  0.5065780000000 1.0
C      1  0.5011420000000  0.4654750000000  0.4546350000000 1.0
C      1  0.5299540000000  0.4584290000000  0.5227260000000 1.0
C      1  0.4753600000000  0.5814050000000  0.5629530000000 1.0
C      1  0.4449290000000  0.5796870000000  0.5382880000000 1.0
C      1  0.4709980000000  0.4008720000000  0.4517370000000 1.0
C      1  0.5639320000000  0.4151630000000  0.4646320000000 1.0
C      1  0.5430950000000  0.6062200000000  0.4966330000000 1.0
C      1  0.4565840000000  0.5104050000000  0.6319020000000 1.0
C      1  0.6010600000000  0.4776560000000  0.4913240000000 1.0
C      1  0.5094600000000  0.4512780000000  0.5821200000000 1.0
C      1  0.5195110000000  0.5162390000000  0.3546490000000 1.0
C      1  0.4819080000000  0.4610480000000  0.5820430000000 1.0
C      1  0.5867500000000  0.5200130000000  0.4982750000000 1.0
C      1  0.4778540000000  0.5079250000000  0.5883250000000 1.0
C      1  0.5301450000000  0.3583230000000  0.5053600000000 1.0
C      1  0.4192950000000  0.4710720000000  0.5461410000000 1.0
C      1  0.5933080000000  0.5295610000000  0.4352440000000 1.0
C      1  0.4407150000000  0.4348650000000  0.4723700000000 1.0
C      1  0.5869630000000  0.5166970000000  0.5610550000000 1.0
C      1  0.5008870000000  0.4459840000000  0.4029690000000 1.0
C      1  0.4554490000000  0.4515010000000  0.5811820000000 1.0
C      1  0.4628890000000  0.5371210000000  0.5429400000000 1.0
C      1  0.4857620000000  0.4814160000000  0.5241940000000 1.0
C      1  0.4915380000000  0.5780930000000  0.5904460000000 1.0
C      1  0.4046190000000  0.5464960000000  0.5276830000000 1.0
C      1  0.5343650000000  0.3344150000000  0.4958870000000 1.0
C      1  0.5015410000000  0.5228000000000  0.5867750000000 1.0
C      1  0.6066490000000  0.4762140000000  0.5211100000000 1.0
C      1  0.5439170000000  0.5105250000000  0.4563510000000 1.0
C      1  0.4942500000000  0.5244100000000  0.4565920000000 1.0
C      1  0.4240610000000  0.5603680000000  0.5446640000000 1.0
C      1  0.4371230000000  0.4526970000000  0.5597690000000 1.0
C      1  0.4653230000000  0.3907970000000  0.4974800000000 1.0
C      1  0.5606110000000  0.4523820000000  0.4923800000000 1.0
C      1  0.4005990000000  0.5114010000000  0.4912570000000 1.0
C      1  0.4748380000000  0.5553490000000  0.4080380000000 1.0
C      1  0.6038210000000  0.5039280000000  0.4810510000000 1.0
C      1  0.4895210000000  0.5635470000000  0.4829920000000 1.0
C      1  0.5174280000000  0.5094070000000  0.4680900000000 1.0
C      1  0.5038850000000  0.3891080000000  0.5329800000000 1.0
C      1  0.4128950000000  0.4991770000000  0.5434050000000 1.0
C      1  0.5217130000000  0.5108860000000  0.3814150000000 1.0
C      1  0.5170680000000  0.4693950000000  0.4081650000000 1.0
C      1  0.4634800000000  0.5250510000000  0.5175010000000 1.0
C      1  0.6017670000000  0.4969220000000  0.5429340000000 1.0
C      1  0.5418040000000  0.5853610000000  0.4789660000000 1.0
C      1  0.5605430000000  0.4793540000000  0.5867250000000 1.0
C      1  0.5002960000000  0.4522900000000  0.4882620000000 1.0
C      1  0.4591540000000  0.4401580000000  0.4246850000000 1.0
C      1  0.5405170000000  0.5253310000000  0.3970610000000 1.0
C      1  0.5044540000000  0.5360750000000  0.5612030000000 1.0
C      1  0.5565560000000  0.4333180000000  0.4434690000000 1.0
C      1  0.5402770000000  0.4715890000000  0.4992840000000 1.0
C      1  0.5021970000000  0.5614080000000  0.4028090000000 1.0
C      1  0.4041010000000  0.5176770000000  0.5201890000000 1.0
C      1  0.5310950000000  0.4779310000000  0.5427670000000 1.0
C      1  0.4678410000000  0.5258920000000  0.4709980000000 1.0
C      1  0.4902170000000  0.6066400000000  0.5525050000000 1.0
C      1  0.4326640000000  0.6133330000000  0.4727090000000 1.0
C      1  0.5479520000000  0.4834120000000  0.4445930000000 1.0
C      1  0.4495520000000  0.5806160000000  0.4418950000000 1.0
C      1  0.4556630000000  0.4961970000000  0.4366310000000 1.0
C      1  0.5247870000000  0.4979220000000  0.4942410000000 1.0
C      1  0.5031920000000  0.4902390000000  0.5465730000000 1.0
C      1  0.5454150000000  0.5811070000000  0.5364280000000 1.0
C      1  0.3761270000000  0.5005330000000  0.4841080000000 1.0
C      1  0.5681020000000  0.5673750000000  0.5474170000000 1.0
C      1  0.4501830000000  0.6312330000000  0.4824800000000 1.0
C      1  0.5479710000000  0.5252980000000  0.5943950000000 1.0
C      1  0.4201140000000  0.4683860000000  0.4431340000000 1.0
C      1  0.4616640000000  0.5044640000000  0.4102050000000 1.0
C      1  0.5534830000000  0.4959640000000  0.5366880000000 1.0
C      1  0.5385450000000  0.5567570000000  0.4789410000000 1.0
C      1  0.4572690000000  0.4112670000000  0.4762670000000 1.0
C      1  0.5199880000000  0.5573440000000  0.4254100000000 1.0
C      1  0.6060530000000  0.5135630000000  0.4538560000000 1.0
C      1  0.4724580000000  0.4563210000000  0.4032980000000 1.0
C      1  0.4789240000000  0.4188600000000  0.4319970000000 1.0
C      1  0.4427710000000  0.4332030000000  0.5380830000000 1.0
C      1  0.4931400000000  0.4353470000000  0.5374470000000 1.0
END
