TITL C-3866674-3872-674 -0.0230740343496162 125000 -876.812198957015 0 0 143 (C1) n - 1
REM
REM in /home/nfs/bkarasulu/CARBON/AIRSS/Generating-Clusters/LCBOP/Only-C1/SD-CG/FIRE-CG
REM
REM
REM
REM
REM
REM ./C.cell (11c1c37f851c82e70ff6c80c92926a4b)
REM AIRSS Version 0.9.1 bugfix July 2018 build 013d7b7c2542+ Fri, 06 Jul 2018 19:26:36 +0100
REM compiler GCC version 9.2.1 20190827 (Red Hat 9.2.1-1)
REM options -cpp -mtune=generic -march=x86-64 -g -O0 -fpre-include=/usr/include/finclude/math-vector-fortran.h
REM seed -455568964 2134607614 765798701 596225922 -2057000266 -1400333341 -1846833559 -1355353973 1656844415 -1184848827 -1209873379 324497485 -1949175352 -430810686 1127967210 -1446375480 -277561889 -1553708863 1728839067 1178119301 1577475753 -1833057662 1584788466 -356780773 151139086 1022181741 1461841420 2011129534 320387967 -1484349533 -772358719 2147239653 -1093015651
REM
CELL 1.54180   50.00000   50.00000   50.00000   90.00000   90.00000   90.00000
LATT -1
SFAC C  
C      1  0.5088390000000  0.5261250000000  0.5954820000000 1.0
C      1  0.5935110000000  0.5409340000000  0.6354080000000 1.0
C      1  0.4195460000000  0.5310070000000  0.5412920000000 1.0
C      1  0.4611310000000  0.4948030000000  0.3825080000000 1.0
C      1  0.5299240000000  0.4024050000000  0.5113450000000 1.0
C      1  0.4233360000000  0.5592510000000  0.5320990000000 1.0
C      1  0.4408320000000  0.4965870000000  0.5194100000000 1.0
C      1  0.4359070000000  0.5780710000000  0.4838220000000 1.0
C      1  0.4763160000000  0.5279360000000  0.4148260000000 1.0
C      1  0.4949200000000  0.4908400000000  0.4832770000000 1.0
C      1  0.5778960000000  0.4474410000000  0.4991550000000 1.0
C      1  0.5130160000000  0.5254520000000  0.5243310000000 1.0
C      1  0.4895290000000  0.3891990000000  0.4887850000000 1.0
C      1  0.5655770000000  0.4477710000000  0.4462860000000 1.0
C      1  0.4552020000000  0.5144340000000  0.4765560000000 1.0
C      1  0.4544960000000  0.5601660000000  0.4663470000000 1.0
C      1  0.3973550000000  0.4318310000000  0.4985730000000 1.0
C      1  0.4790070000000  0.4288670000000  0.5568550000000 1.0
C      1  0.4466970000000  0.4683080000000  0.4777360000000 1.0
C      1  0.6070030000000  0.5600240000000  0.4649630000000 1.0
C      1  0.5984490000000  0.4817400000000  0.4670480000000 1.0
C      1  0.4862640000000  0.5537670000000  0.4242820000000 1.0
C      1  0.5073230000000  0.5634980000000  0.4079980000000 1.0
C      1  0.4466840000000  0.5731400000000  0.5405890000000 1.0
C      1  0.4281730000000  0.4827100000000  0.5415570000000 1.0
C      1  0.3792520000000  0.4805110000000  0.4485770000000 1.0
C      1  0.5020340000000  0.4285060000000  0.5729120000000 1.0
C      1  0.4644410000000  0.4416610000000  0.5115750000000 1.0
C      1  0.5274220000000  0.4180750000000  0.5632700000000 1.0
C      1  0.4941420000000  0.5914560000000  0.4700090000000 1.0
C      1  0.5334480000000  0.5528570000000  0.4068270000000 1.0
C      1  0.5485660000000  0.4265400000000  0.4531580000000 1.0
C      1  0.5594170000000  0.4889940000000  0.5357410000000 1.0
C      1  0.5497020000000  0.4249990000000  0.5797630000000 1.0
C      1  0.5708630000000  0.5252440000000  0.4474720000000 1.0
C      1  0.5503420000000  0.4434060000000  0.5998860000000 1.0
C      1  0.5635710000000  0.4999410000000  0.4359010000000 1.0
C      1  0.5865880000000  0.6197280000000  0.4684650000000 1.0
C      1  0.4448620000000  0.6052120000000  0.4839000000000 1.0
C      1  0.5079440000000  0.5683370000000  0.5613140000000 1.0
C      1  0.5385840000000  0.5265060000000  0.5133630000000 1.0
C      1  0.4601840000000  0.5396660000000  0.4864050000000 1.0
C      1  0.4715970000000  0.6083720000000  0.4747160000000 1.0
C      1  0.3862370000000  0.4962700000000  0.4711850000000 1.0
C      1  0.5606380000000  0.5572450000000  0.6646960000000 1.0
C      1  0.4108650000000  0.5338820000000  0.4933660000000 1.0
C      1  0.4184670000000  0.5617230000000  0.5018010000000 1.0
C      1  0.4406010000000  0.4594080000000  0.5539550000000 1.0
C      1  0.4723280000000  0.5457330000000  0.5109000000000 1.0
C      1  0.5099000000000  0.5425590000000  0.4691020000000 1.0
C      1  0.5113420000000  0.3749390000000  0.3959490000000 1.0
C      1  0.4873460000000  0.5091160000000  0.5872590000000 1.0
C      1  0.5389780000000  0.5448910000000  0.6509290000000 1.0
C      1  0.5165180000000  0.3995770000000  0.4867070000000 1.0
C      1  0.4211840000000  0.5073050000000  0.4258990000000 1.0
C      1  0.5553210000000  0.5488230000000  0.4502200000000 1.0
C      1  0.5181920000000  0.3461120000000  0.3525170000000 1.0
C      1  0.4538610000000  0.4186640000000  0.4335300000000 1.0
C      1  0.5078610000000  0.3894840000000  0.4178070000000 1.0
C      1  0.4625340000000  0.3889490000000  0.4904980000000 1.0
C      1  0.4867760000000  0.4452350000000  0.4926100000000 1.0
C      1  0.3829700000000  0.4813010000000  0.4951240000000 1.0
C      1  0.5461990000000  0.5285380000000  0.6280750000000 1.0
C      1  0.5074820000000  0.5137240000000  0.4672840000000 1.0
C      1  0.6148380000000  0.5340870000000  0.4609640000000 1.0
C      1  0.5510280000000  0.5631060000000  0.4264100000000 1.0
C      1  0.5271910000000  0.4593810000000  0.5174000000000 1.0
C      1  0.6000240000000  0.6406040000000  0.4605400000000 1.0
C      1  0.4418780000000  0.4462370000000  0.4944670000000 1.0
C      1  0.4821700000000  0.4770520000000  0.4225020000000 1.0
C      1  0.5252420000000  0.4095260000000  0.4603270000000 1.0
C      1  0.3892880000000  0.4584780000000  0.4363540000000 1.0
C      1  0.4790010000000  0.4182970000000  0.4465640000000 1.0
C      1  0.5124480000000  0.5489700000000  0.6583110000000 1.0
C      1  0.5502590000000  0.4838770000000  0.4889210000000 1.0
C      1  0.5514280000000  0.4570810000000  0.5012410000000 1.0
C      1  0.5775750000000  0.4756060000000  0.4466350000000 1.0
C      1  0.5377040000000  0.5069250000000  0.4231680000000 1.0
C      1  0.4154610000000  0.4560850000000  0.4258120000000 1.0
C      1  0.4717890000000  0.5680090000000  0.5288130000000 1.0
C      1  0.5268490000000  0.4576960000000  0.6076220000000 1.0
C      1  0.5871310000000  0.4844900000000  0.5381030000000 1.0
C      1  0.5867860000000  0.5555860000000  0.6573530000000 1.0
C      1  0.5274790000000  0.5133290000000  0.6133700000000 1.0
C      1  0.4602800000000  0.5120830000000  0.5965850000000 1.0
C      1  0.5739420000000  0.5281770000000  0.6214550000000 1.0
C      1  0.4660300000000  0.4891670000000  0.4774330000000 1.0
C      1  0.5493170000000  0.5474680000000  0.4981900000000 1.0
C      1  0.6096720000000  0.5091090000000  0.4737390000000 1.0
C      1  0.5522080000000  0.5023060000000  0.5107360000000 1.0
C      1  0.5871660000000  0.5726540000000  0.4814560000000 1.0
C      1  0.5372000000000  0.4803170000000  0.4647320000000 1.0
C      1  0.5170770000000  0.5945610000000  0.4880040000000 1.0
C      1  0.4239510000000  0.4244110000000  0.4933360000000 1.0
C      1  0.5363810000000  0.4727800000000  0.5418780000000 1.0
C      1  0.5043650000000  0.4670820000000  0.5000890000000 1.0
C      1  0.4950550000000  0.4896640000000  0.5681550000000 1.0
C      1  0.5036700000000  0.4443370000000  0.5969750000000 1.0
C      1  0.4853740000000  0.5234440000000  0.5213510000000 1.0
C      1  0.5273650000000  0.4848020000000  0.6157260000000 1.0
C      1  0.5039720000000  0.4051010000000  0.4404710000000 1.0
C      1  0.4252150000000  0.4817220000000  0.4191080000000 1.0
C      1  0.5134360000000  0.5082960000000  0.4391690000000 1.0
C      1  0.5117990000000  0.5506190000000  0.5813290000000 1.0
C      1  0.5414340000000  0.5161660000000  0.3747930000000 1.0
C      1  0.4293100000000  0.6260370000000  0.4920010000000 1.0
C      1  0.4861770000000  0.5636990000000  0.4554680000000 1.0
C      1  0.4600440000000  0.4419430000000  0.5403780000000 1.0
C      1  0.4892780000000  0.5047720000000  0.4255260000000 1.0
C      1  0.4650290000000  0.5403410000000  0.6406860000000 1.0
C      1  0.6036070000000  0.4860040000000  0.5149590000000 1.0
C      1  0.4321060000000  0.4333140000000  0.4271780000000 1.0
C      1  0.5118590000000  0.5908510000000  0.5159450000000 1.0
C      1  0.4685640000000  0.5012880000000  0.5261550000000 1.0
C      1  0.5377760000000  0.5249660000000  0.4003760000000 1.0
C      1  0.5213080000000  0.4665560000000  0.4482720000000 1.0
C      1  0.5983260000000  0.4667060000000  0.4932200000000 1.0
C      1  0.4391120000000  0.4978860000000  0.5840190000000 1.0
C      1  0.4021700000000  0.5207170000000  0.4694040000000 1.0
C      1  0.5768400000000  0.5545800000000  0.5013360000000 1.0
C      1  0.4696650000000  0.4732100000000  0.3972530000000 1.0
C      1  0.4942530000000  0.4609200000000  0.4432330000000 1.0
C      1  0.4782730000000  0.4855430000000  0.5467340000000 1.0
C      1  0.4420100000000  0.4686370000000  0.5817260000000 1.0
C      1  0.4973590000000  0.5780540000000  0.5366980000000 1.0
C      1  0.5954250000000  0.5359060000000  0.5122590000000 1.0
C      1  0.4172450000000  0.5271990000000  0.4453430000000 1.0
C      1  0.5724820000000  0.5970050000000  0.4766660000000 1.0
C      1  0.4375280000000  0.3994670000000  0.4911980000000 1.0
C      1  0.5147960000000  0.3604050000000  0.3740530000000 1.0
C      1  0.4624740000000  0.5209640000000  0.3908400000000 1.0
C      1  0.6075040000000  0.5119230000000  0.5030590000000 1.0
C      1  0.5372130000000  0.5504540000000  0.4723760000000 1.0
C      1  0.4861320000000  0.5478960000000  0.6549690000000 1.0
C      1  0.4215070000000  0.5173210000000  0.5143470000000 1.0
C      1  0.4239540000000  0.5072380000000  0.5603810000000 1.0
C      1  0.5306940000000  0.4066340000000  0.5377860000000 1.0
C      1  0.4555960000000  0.5276390000000  0.6193320000000 1.0
C      1  0.5207590000000  0.4799630000000  0.5635790000000 1.0
C      1  0.5440800000000  0.5990400000000  0.4799820000000 1.0
C      1  0.4351250000000  0.5494860000000  0.4457460000000 1.0
C      1  0.3845620000000  0.4553000000000  0.5020520000000 1.0
C      1  0.4838880000000  0.4416550000000  0.4626790000000 1.0
END
