TITL C-3866671-3735-455 24.3930511665702 125000 -858.570054247372 0 0 137 (C1) n - 1
REM
REM in /home/nfs/bkarasulu/CARBON/AIRSS/Generating-Clusters/LCBOP/Only-C1/SD-CG/FIRE-CG
REM
REM
REM
REM
REM
REM ./C.cell (11c1c37f851c82e70ff6c80c92926a4b)
REM AIRSS Version 0.9.1 bugfix July 2018 build 013d7b7c2542+ Fri, 06 Jul 2018 19:26:36 +0100
REM compiler GCC version 9.2.1 20190827 (Red Hat 9.2.1-1)
REM options -cpp -mtune=generic -march=x86-64 -g -O0 -fpre-include=/usr/include/finclude/math-vector-fortran.h
REM seed 1978142892 -59430951 96552251 953143855 -1960973449 579811156 357249281 -796470528 -1394751640 -1613039223 169568631 -2089229289 885431678 66396520 910427720 2048587048 -1349537928 -1701463716 -1606141875 -468606072 -1324383288 -1024476878 -288934200 58555682 -1240940463 1794343817 -1973645283 -1408820362 1122933373 301193935 -435478075 -141740921 -367268516
REM
CELL 1.54180   50.00000   50.00000   50.00000   90.00000   90.00000   90.00000
LATT -1
SFAC C  
C      1  0.5131380000000  0.5245530000000  0.5263180000000 1.0
C      1  0.3834840000000  0.4824610000000  0.5264530000000 1.0
C      1  0.5676590000000  0.4426020000000  0.4391420000000 1.0
C      1  0.4513230000000  0.5750160000000  0.4804980000000 1.0
C      1  0.5077050000000  0.5383810000000  0.4542910000000 1.0
C      1  0.4356820000000  0.5634160000000  0.5222260000000 1.0
C      1  0.5204410000000  0.4738450000000  0.4723560000000 1.0
C      1  0.5141820000000  0.5750470000000  0.4861150000000 1.0
C      1  0.6048730000000  0.5610510000000  0.5396310000000 1.0
C      1  0.5001780000000  0.4077890000000  0.4971490000000 1.0
C      1  0.4878390000000  0.5052870000000  0.5280880000000 1.0
C      1  0.4168190000000  0.4237410000000  0.5127400000000 1.0
C      1  0.5968200000000  0.5884000000000  0.5409730000000 1.0
C      1  0.4278860000000  0.4251070000000  0.5393210000000 1.0
C      1  0.4849200000000  0.5734070000000  0.6039630000000 1.0
C      1  0.6003450000000  0.5090840000000  0.4502110000000 1.0
C      1  0.4375340000000  0.4975730000000  0.5988380000000 1.0
C      1  0.5403340000000  0.4959840000000  0.4680060000000 1.0
C      1  0.5285110000000  0.4810460000000  0.4081150000000 1.0
C      1  0.4129260000000  0.5229140000000  0.5050890000000 1.0
C      1  0.5358440000000  0.4108240000000  0.5313950000000 1.0
C      1  0.4008880000000  0.4626320000000  0.4528980000000 1.0
C      1  0.4617980000000  0.5256090000000  0.4140810000000 1.0
C      1  0.4938740000000  0.4442370000000  0.4114740000000 1.0
C      1  0.5078280000000  0.5042290000000  0.4038820000000 1.0
C      1  0.4021140000000  0.4398690000000  0.4703350000000 1.0
C      1  0.4406100000000  0.5403490000000  0.5713090000000 1.0
C      1  0.4643330000000  0.5806670000000  0.5882940000000 1.0
C      1  0.4247940000000  0.4433570000000  0.5622590000000 1.0
C      1  0.4975150000000  0.5269510000000  0.5915110000000 1.0
C      1  0.4820180000000  0.4815040000000  0.5854800000000 1.0
C      1  0.4532660000000  0.3909670000000  0.4945600000000 1.0
C      1  0.4846480000000  0.5729490000000  0.5270640000000 1.0
C      1  0.4718000000000  0.5120390000000  0.5503480000000 1.0
C      1  0.4013330000000  0.4582400000000  0.5659640000000 1.0
C      1  0.4591390000000  0.5482590000000  0.4757250000000 1.0
C      1  0.6073130000000  0.5374150000000  0.5860190000000 1.0
C      1  0.4985750000000  0.5503310000000  0.6043080000000 1.0
C      1  0.4479770000000  0.4338130000000  0.4191410000000 1.0
C      1  0.4294090000000  0.5777070000000  0.4988520000000 1.0
C      1  0.4137740000000  0.5266040000000  0.4763210000000 1.0
C      1  0.4590870000000  0.4802920000000  0.4068230000000 1.0
C      1  0.5077770000000  0.4016320000000  0.4273040000000 1.0
C      1  0.4711890000000  0.5952530000000  0.4849440000000 1.0
C      1  0.3926940000000  0.5064710000000  0.5156260000000 1.0
C      1  0.4366950000000  0.5186420000000  0.4273770000000 1.0
C      1  0.5296980000000  0.4089530000000  0.5036660000000 1.0
C      1  0.5892330000000  0.4466470000000  0.4900260000000 1.0
C      1  0.4172070000000  0.6249770000000  0.4889710000000 1.0
C      1  0.5919750000000  0.4825860000000  0.4561200000000 1.0
C      1  0.5493360000000  0.4166520000000  0.4823170000000 1.0
C      1  0.4738740000000  0.4378030000000  0.5738130000000 1.0
C      1  0.5927930000000  0.4750160000000  0.4847790000000 1.0
C      1  0.4254120000000  0.4220430000000  0.4656480000000 1.0
C      1  0.5161660000000  0.5326890000000  0.4071910000000 1.0
C      1  0.5532720000000  0.4860090000000  0.4233590000000 1.0
C      1  0.5905550000000  0.4926570000000  0.5098590000000 1.0
C      1  0.4676000000000  0.4787770000000  0.4660490000000 1.0
C      1  0.5264120000000  0.5486920000000  0.4319890000000 1.0
C      1  0.5487750000000  0.5057160000000  0.4427220000000 1.0
C      1  0.5341660000000  0.4098670000000  0.4334560000000 1.0
C      1  0.5125010000000  0.5472730000000  0.4809830000000 1.0
C      1  0.5748170000000  0.4813070000000  0.5316280000000 1.0
C      1  0.4800160000000  0.3876960000000  0.4983460000000 1.0
C      1  0.4519470000000  0.5669140000000  0.5673030000000 1.0
C      1  0.5476930000000  0.4898230000000  0.5359260000000 1.0
C      1  0.5241050000000  0.5286770000000  0.4987080000000 1.0
C      1  0.6006320000000  0.5571260000000  0.4662110000000 1.0
C      1  0.4320940000000  0.4093960000000  0.4911260000000 1.0
C      1  0.5852620000000  0.5303570000000  0.6018340000000 1.0
C      1  0.4944610000000  0.4864270000000  0.4592160000000 1.0
C      1  0.4344700000000  0.4900410000000  0.4212660000000 1.0
C      1  0.4966010000000  0.4581190000000  0.5757660000000 1.0
C      1  0.4851710000000  0.5076530000000  0.5756020000000 1.0
C      1  0.4923140000000  0.5856080000000  0.5014130000000 1.0
C      1  0.5731650000000  0.4312440000000  0.4726910000000 1.0
C      1  0.5829770000000  0.6036830000000  0.5220000000000 1.0
C      1  0.5658220000000  0.6266000000000  0.5201330000000 1.0
C      1  0.4647180000000  0.6220950000000  0.4798230000000 1.0
C      1  0.4871300000000  0.4326430000000  0.4872890000000 1.0
C      1  0.4437830000000  0.4342380000000  0.4477300000000 1.0
C      1  0.4889670000000  0.4563050000000  0.5076230000000 1.0
C      1  0.5022310000000  0.5519100000000  0.5352100000000 1.0
C      1  0.4906010000000  0.4238190000000  0.4326410000000 1.0
C      1  0.5176370000000  0.4672140000000  0.5022420000000 1.0
C      1  0.4336690000000  0.5238930000000  0.5932810000000 1.0
C      1  0.5550920000000  0.6009450000000  0.4821840000000 1.0
C      1  0.4915750000000  0.4359320000000  0.4592120000000 1.0
C      1  0.5150120000000  0.4518130000000  0.5503260000000 1.0
C      1  0.5789470000000  0.5897230000000  0.4961100000000 1.0
C      1  0.4521910000000  0.4104980000000  0.5415910000000 1.0
C      1  0.5636550000000  0.4406390000000  0.5569620000000 1.0
C      1  0.3811050000000  0.4599620000000  0.5099080000000 1.0
C      1  0.3970740000000  0.4401970000000  0.4987590000000 1.0
C      1  0.5504030000000  0.6256130000000  0.4971310000000 1.0
C      1  0.5339620000000  0.5873540000000  0.4690140000000 1.0
C      1  0.4476100000000  0.4498840000000  0.5792950000000 1.0
C      1  0.5723060000000  0.5254130000000  0.4854100000000 1.0
C      1  0.4411470000000  0.6351720000000  0.4815990000000 1.0
C      1  0.4246280000000  0.4746590000000  0.4429380000000 1.0
C      1  0.4119340000000  0.5995120000000  0.4963330000000 1.0
C      1  0.5449840000000  0.4336950000000  0.4197310000000 1.0
C      1  0.3861240000000  0.4765370000000  0.5537550000000 1.0
C      1  0.5364860000000  0.5149210000000  0.5436060000000 1.0
C      1  0.4575420000000  0.5726310000000  0.5391890000000 1.0
C      1  0.5330270000000  0.4208010000000  0.4598190000000 1.0
C      1  0.5373850000000  0.4309240000000  0.5517620000000 1.0
C      1  0.5876240000000  0.5243640000000  0.6283150000000 1.0
C      1  0.4621430000000  0.4948730000000  0.4889650000000 1.0
C      1  0.5746530000000  0.4697730000000  0.4358960000000 1.0
C      1  0.4479070000000  0.4622750000000  0.4554440000000 1.0
C      1  0.6000270000000  0.5484630000000  0.5144740000000 1.0
C      1  0.4758510000000  0.4844700000000  0.5115350000000 1.0
C      1  0.4967940000000  0.5129940000000  0.4507830000000 1.0
C      1  0.5606060000000  0.5298860000000  0.5884980000000 1.0
C      1  0.5893900000000  0.5316870000000  0.4626920000000 1.0
C      1  0.5325800000000  0.5772380000000  0.4416920000000 1.0
C      1  0.4458880000000  0.5244460000000  0.5473190000000 1.0
C      1  0.5462720000000  0.5150890000000  0.4878390000000 1.0
C      1  0.4605880000000  0.5228110000000  0.4843730000000 1.0
C      1  0.4311670000000  0.5349410000000  0.5242620000000 1.0
C      1  0.4219930000000  0.5274840000000  0.4502630000000 1.0
C      1  0.5457520000000  0.5276320000000  0.5665980000000 1.0
C      1  0.4536590000000  0.4755150000000  0.5914230000000 1.0
C      1  0.4666300000000  0.4527520000000  0.4067030000000 1.0
C      1  0.5279980000000  0.4709290000000  0.5292260000000 1.0
C      1  0.5192140000000  0.4460150000000  0.4603830000000 1.0
C      1  0.5806930000000  0.4539150000000  0.5386710000000 1.0
C      1  0.5223250000000  0.4523850000000  0.4084620000000 1.0
C      1  0.5512940000000  0.5328950000000  0.4366000000000 1.0
C      1  0.6137640000000  0.5477060000000  0.5623440000000 1.0
C      1  0.4783610000000  0.5023530000000  0.4045630000000 1.0
C      1  0.5900120000000  0.5218200000000  0.5081410000000 1.0
C      1  0.4922080000000  0.4405400000000  0.5329820000000 1.0
C      1  0.5926620000000  0.4395120000000  0.5173020000000 1.0
C      1  0.5963200000000  0.5677630000000  0.4920890000000 1.0
C      1  0.4752930000000  0.4239610000000  0.5487510000000 1.0
END
