TITL C-3866673-4222-14 -7.98912421677551e-08 125000 -709.725641163325 0 0 117 (C1) n - 1
REM
REM in /home/nfs/bkarasulu/CARBON/AIRSS/Generating-Clusters/LCBOP/Only-C1/SD-CG/HFTN-CG/FIRE-CG
REM
REM
REM
REM
REM
REM ./C.cell (11c1c37f851c82e70ff6c80c92926a4b)
REM AIRSS Version 0.9.1 bugfix July 2018 build 013d7b7c2542+ Fri, 06 Jul 2018 19:26:36 +0100
REM compiler GCC version 9.2.1 20190827 (Red Hat 9.2.1-1)
REM options -cpp -mtune=generic -march=x86-64 -g -O0 -fpre-include=/usr/include/finclude/math-vector-fortran.h
REM seed -1037734854 -1432177451 -1115281355 -70285389 814396064 667527724 -665738368 216498060 868268602 -1428199761 -1361924230 1668076166 555993380 -32473953 1339653575 -892137532 -1204897558 479217350 291019290 -1847574736 -1233387693 425518233 -229229685 -223624448 1580664823 -1087938395 664139517 976270574 -1780729135 -924669035 -564008217 1133800629 -1138910523
REM
CELL 1.54180   50.00000   50.00000   50.00000   90.00000   90.00000   90.00000
LATT -1
SFAC C  
C      1  0.4464660000000  0.5068160000000  0.5205050000000 1.0
C      1  0.4429510000000  0.4414750000000  0.4708080000000 1.0
C      1  0.4116080000000  0.5474170000000  0.5558680000000 1.0
C      1  0.5770800000000  0.5339300000000  0.5585270000000 1.0
C      1  0.4343700000000  0.5506300000000  0.5149870000000 1.0
C      1  0.5780470000000  0.5134850000000  0.5779280000000 1.0
C      1  0.5182910000000  0.4178720000000  0.4967200000000 1.0
C      1  0.4126390000000  0.4543590000000  0.5655130000000 1.0
C      1  0.5360750000000  0.4773260000000  0.5060350000000 1.0
C      1  0.5055700000000  0.6010160000000  0.4592290000000 1.0
C      1  0.5996370000000  0.5507880000000  0.5193230000000 1.0
C      1  0.5150620000000  0.4577950000000  0.4563100000000 1.0
C      1  0.4769050000000  0.4330690000000  0.5902050000000 1.0
C      1  0.5001950000000  0.4453230000000  0.5833660000000 1.0
C      1  0.4199330000000  0.5812050000000  0.4255570000000 1.0
C      1  0.5233790000000  0.5199520000000  0.5989440000000 1.0
C      1  0.5217010000000  0.5168450000000  0.4573240000000 1.0
C      1  0.4621430000000  0.5545300000000  0.5703550000000 1.0
C      1  0.5559570000000  0.5178500000000  0.5123150000000 1.0
C      1  0.4801220000000  0.5386070000000  0.5860740000000 1.0
C      1  0.4725090000000  0.5159070000000  0.4304700000000 1.0
C      1  0.4650570000000  0.5842590000000  0.5024010000000 1.0
C      1  0.4678620000000  0.5802940000000  0.4330250000000 1.0
C      1  0.5742880000000  0.5565100000000  0.4183110000000 1.0
C      1  0.4804480000000  0.5715660000000  0.4846150000000 1.0
C      1  0.4019580000000  0.4961750000000  0.5049930000000 1.0
C      1  0.5417730000000  0.5408360000000  0.5238070000000 1.0
C      1  0.4891250000000  0.5292480000000  0.4141920000000 1.0
C      1  0.4605950000000  0.4218880000000  0.4162080000000 1.0
C      1  0.4709910000000  0.4613440000000  0.5324140000000 1.0
C      1  0.4951400000000  0.5849510000000  0.4371520000000 1.0
C      1  0.5084490000000  0.4773560000000  0.5044830000000 1.0
C      1  0.4503400000000  0.4425860000000  0.5934000000000 1.0
C      1  0.4256280000000  0.4345130000000  0.5816910000000 1.0
C      1  0.5392430000000  0.4760910000000  0.4093820000000 1.0
C      1  0.5610450000000  0.5419080000000  0.4000180000000 1.0
C      1  0.3938080000000  0.5237120000000  0.5123590000000 1.0
C      1  0.5245780000000  0.4059630000000  0.4497050000000 1.0
C      1  0.5107810000000  0.4894050000000  0.5565540000000 1.0
C      1  0.4695980000000  0.4806680000000  0.4664170000000 1.0
C      1  0.4421080000000  0.5699260000000  0.4382600000000 1.0
C      1  0.4616630000000  0.4882070000000  0.5810190000000 1.0
C      1  0.4666430000000  0.4216290000000  0.4675690000000 1.0
C      1  0.5589220000000  0.4926990000000  0.5753000000000 1.0
C      1  0.3992180000000  0.5917300000000  0.4137540000000 1.0
C      1  0.4753360000000  0.4155000000000  0.4405170000000 1.0
C      1  0.5604400000000  0.4380220000000  0.5205760000000 1.0
C      1  0.4504690000000  0.4701370000000  0.5990180000000 1.0
C      1  0.5652180000000  0.5679970000000  0.4408930000000 1.0
C      1  0.4048980000000  0.3853430000000  0.5889200000000 1.0
C      1  0.5743960000000  0.4583000000000  0.5383600000000 1.0
C      1  0.4655660000000  0.4814990000000  0.5532170000000 1.0
C      1  0.5962040000000  0.5285200000000  0.5367140000000 1.0
C      1  0.4280960000000  0.4462560000000  0.5219840000000 1.0
C      1  0.4980900000000  0.5011850000000  0.4951430000000 1.0
C      1  0.4340730000000  0.4185870000000  0.4116700000000 1.0
C      1  0.5132410000000  0.5846490000000  0.5222520000000 1.0
C      1  0.5587550000000  0.4804630000000  0.5490170000000 1.0
C      1  0.5263220000000  0.4516430000000  0.4027680000000 1.0
C      1  0.5153340000000  0.4447350000000  0.5379490000000 1.0
C      1  0.5957890000000  0.4596350000000  0.4963630000000 1.0
C      1  0.5903820000000  0.5154850000000  0.4711120000000 1.0
C      1  0.4702700000000  0.5127730000000  0.5914440000000 1.0
C      1  0.5708270000000  0.5203060000000  0.4886260000000 1.0
C      1  0.4477960000000  0.5272090000000  0.4725410000000 1.0
C      1  0.6094900000000  0.4710790000000  0.4748230000000 1.0
C      1  0.5436260000000  0.4576800000000  0.4546010000000 1.0
C      1  0.4963300000000  0.5203300000000  0.4726050000000 1.0
C      1  0.5033260000000  0.5626380000000  0.5415240000000 1.0
C      1  0.5525220000000  0.5651110000000  0.5084380000000 1.0
C      1  0.5491220000000  0.4790890000000  0.4365440000000 1.0
C      1  0.5359060000000  0.5290420000000  0.4001750000000 1.0
C      1  0.4966770000000  0.4590540000000  0.5220070000000 1.0
C      1  0.4165970000000  0.4652600000000  0.5399520000000 1.0
C      1  0.4027720000000  0.4753330000000  0.4836450000000 1.0
C      1  0.4889040000000  0.4178680000000  0.4884000000000 1.0
C      1  0.6029100000000  0.5003380000000  0.5299010000000 1.0
C      1  0.4907620000000  0.4675770000000  0.4531070000000 1.0
C      1  0.5353630000000  0.5008400000000  0.3958540000000 1.0
C      1  0.4443860000000  0.5276270000000  0.5008310000000 1.0
C      1  0.5966970000000  0.4722890000000  0.5230430000000 1.0
C      1  0.5375690000000  0.4975860000000  0.5933740000000 1.0
C      1  0.4729370000000  0.5646400000000  0.5458750000000 1.0
C      1  0.4928420000000  0.5486320000000  0.4795930000000 1.0
C      1  0.4218830000000  0.4906490000000  0.5259070000000 1.0
C      1  0.5388840000000  0.5720530000000  0.4495720000000 1.0
C      1  0.4092670000000  0.5438860000000  0.5276220000000 1.0
C      1  0.4383730000000  0.5483670000000  0.4561270000000 1.0
C      1  0.5230790000000  0.5574740000000  0.5665820000000 1.0
C      1  0.5552640000000  0.4375720000000  0.4713300000000 1.0
C      1  0.4336110000000  0.5519390000000  0.5713760000000 1.0
C      1  0.5109260000000  0.5353110000000  0.5282410000000 1.0
C      1  0.5286260000000  0.5884700000000  0.4720870000000 1.0
C      1  0.5808490000000  0.5671650000000  0.5084760000000 1.0
C      1  0.5502690000000  0.5467770000000  0.5539600000000 1.0
C      1  0.5138860000000  0.5429670000000  0.4130380000000 1.0
C      1  0.4693340000000  0.5102880000000  0.4598130000000 1.0
C      1  0.4694890000000  0.5059210000000  0.5372860000000 1.0
C      1  0.5502050000000  0.4932920000000  0.5240540000000 1.0
C      1  0.5320090000000  0.5830400000000  0.5001140000000 1.0
C      1  0.4147710000000  0.4092260000000  0.5855580000000 1.0
C      1  0.4544700000000  0.5694110000000  0.5237530000000 1.0
C      1  0.4565110000000  0.4634880000000  0.4850160000000 1.0
C      1  0.4150030000000  0.4527430000000  0.4713540000000 1.0
C      1  0.5168170000000  0.5661170000000  0.4301730000000 1.0
C      1  0.6069990000000  0.4956340000000  0.4642030000000 1.0
C      1  0.5727090000000  0.4420850000000  0.4937140000000 1.0
C      1  0.5072540000000  0.4316080000000  0.4081930000000 1.0
C      1  0.4802200000000  0.4318040000000  0.3975090000000 1.0
C      1  0.5091520000000  0.5416910000000  0.5872670000000 1.0
C      1  0.5432970000000  0.5043900000000  0.4477410000000 1.0
C      1  0.5132990000000  0.4598440000000  0.5627200000000 1.0
C      1  0.5361840000000  0.4155410000000  0.4737450000000 1.0
C      1  0.4981160000000  0.5115510000000  0.5402690000000 1.0
C      1  0.5041430000000  0.4153530000000  0.4328330000000 1.0
C      1  0.4526280000000  0.4554590000000  0.5122820000000 1.0
C      1  0.5323290000000  0.4289670000000  0.5213230000000 1.0
END
