TITL C-3866675-3766-177 2.7814418708659e-05 125000 -701.350123231829 0 0 115 (C1) n - 1
REM
REM in /home/nfs/bkarasulu/CARBON/AIRSS/Generating-Clusters/LCBOP/Only-C1/SD-CG/HFTN-CG/FIRE-CG
REM
REM
REM
REM
REM
REM ./C.cell (11c1c37f851c82e70ff6c80c92926a4b)
REM AIRSS Version 0.9.1 bugfix July 2018 build 013d7b7c2542+ Fri, 06 Jul 2018 19:26:36 +0100
REM compiler GCC version 9.2.1 20190827 (Red Hat 9.2.1-1)
REM options -cpp -mtune=generic -march=x86-64 -g -O0 -fpre-include=/usr/include/finclude/math-vector-fortran.h
REM seed -1944850130 1176163000 -1491972281 -1893441197 -2104222725 -383168982 -1241832678 -449891044 60759182 -1469142483 427307009 1464944810 -1081631001 853860207 1207168026 39932226 -366425006 1337484760 -1474458226 1437908013 1430556337 -1390448026 336405142 -601369725 -1581289895 1158601768 1365791824 -282712875 -2138072974 -927079037 -981101463 -58027323 -1749585891
REM
CELL 1.54180   50.00000   50.00000   50.00000   90.00000   90.00000   90.00000
LATT -1
SFAC C  
C      1  0.4333790000000  0.4841560000000  0.5872640000000 1.0
C      1  0.4168580000000  0.5736050000000  0.4446090000000 1.0
C      1  0.5183770000000  0.5449340000000  0.4060190000000 1.0
C      1  0.4511790000000  0.5124070000000  0.4123820000000 1.0
C      1  0.5796710000000  0.5507550000000  0.5126460000000 1.0
C      1  0.4818590000000  0.4989860000000  0.5574900000000 1.0
C      1  0.5233760000000  0.5746060000000  0.5734250000000 1.0
C      1  0.6289350000000  0.5651840000000  0.5635460000000 1.0
C      1  0.4447780000000  0.4285410000000  0.4527080000000 1.0
C      1  0.5081090000000  0.4182690000000  0.4832790000000 1.0
C      1  0.6173350000000  0.5263090000000  0.5256300000000 1.0
C      1  0.4209220000000  0.4767740000000  0.5624340000000 1.0
C      1  0.5453850000000  0.4961650000000  0.5222660000000 1.0
C      1  0.5386550000000  0.4305480000000  0.5177930000000 1.0
C      1  0.4769860000000  0.4746200000000  0.5458620000000 1.0
C      1  0.5370340000000  0.5602620000000  0.4508060000000 1.0
C      1  0.4952300000000  0.4160950000000  0.4579710000000 1.0
C      1  0.4185500000000  0.4355270000000  0.4998260000000 1.0
C      1  0.5582390000000  0.5020610000000  0.4500270000000 1.0
C      1  0.4122600000000  0.5029040000000  0.5518040000000 1.0
C      1  0.4862040000000  0.5889170000000  0.5470060000000 1.0
C      1  0.4685890000000  0.4483960000000  0.5835420000000 1.0
C      1  0.5952670000000  0.5260460000000  0.5072860000000 1.0
C      1  0.5006240000000  0.4902200000000  0.6006300000000 1.0
C      1  0.4960040000000  0.4933770000000  0.3978160000000 1.0
C      1  0.4171490000000  0.5871080000000  0.5799080000000 1.0
C      1  0.5471730000000  0.4762800000000  0.4568020000000 1.0
C      1  0.5372470000000  0.4668530000000  0.4104350000000 1.0
C      1  0.3933690000000  0.5166790000000  0.4919440000000 1.0
C      1  0.5112150000000  0.4638720000000  0.6031700000000 1.0
C      1  0.5879660000000  0.4338320000000  0.4959470000000 1.0
C      1  0.5671620000000  0.4314900000000  0.5157300000000 1.0
C      1  0.5043380000000  0.5027750000000  0.5756570000000 1.0
C      1  0.4781110000000  0.5159030000000  0.4026780000000 1.0
C      1  0.4712460000000  0.5049550000000  0.4635970000000 1.0
C      1  0.4777690000000  0.5218630000000  0.5407410000000 1.0
C      1  0.4380680000000  0.5047010000000  0.5058980000000 1.0
C      1  0.4307090000000  0.4532980000000  0.5486490000000 1.0
C      1  0.5548630000000  0.4588180000000  0.4343120000000 1.0
C      1  0.4868920000000  0.4668810000000  0.5226340000000 1.0
C      1  0.4248530000000  0.5266270000000  0.5647500000000 1.0
C      1  0.4452160000000  0.5487200000000  0.5243580000000 1.0
C      1  0.4983190000000  0.4455230000000  0.5850230000000 1.0
C      1  0.6091910000000  0.4163770000000  0.4974790000000 1.0
C      1  0.5633720000000  0.5358320000000  0.4160120000000 1.0
C      1  0.4360230000000  0.5143860000000  0.5892130000000 1.0
C      1  0.4919060000000  0.4141370000000  0.5293840000000 1.0
C      1  0.5284270000000  0.4367720000000  0.4907630000000 1.0
C      1  0.4665230000000  0.4111480000000  0.4609660000000 1.0
C      1  0.6138830000000  0.5881160000000  0.5679520000000 1.0
C      1  0.5307740000000  0.4568210000000  0.6207180000000 1.0
C      1  0.4584430000000  0.5170120000000  0.6071930000000 1.0
C      1  0.5922960000000  0.5886450000000  0.5504630000000 1.0
C      1  0.4864140000000  0.5625450000000  0.4938990000000 1.0
C      1  0.5555330000000  0.5551250000000  0.4986900000000 1.0
C      1  0.4903530000000  0.5417360000000  0.4061990000000 1.0
C      1  0.5786760000000  0.4467110000000  0.4466470000000 1.0
C      1  0.4478810000000  0.4506280000000  0.4322930000000 1.0
C      1  0.5402420000000  0.5505560000000  0.4230400000000 1.0
C      1  0.4566750000000  0.4815370000000  0.4644450000000 1.0
C      1  0.4986180000000  0.5054700000000  0.4600040000000 1.0
C      1  0.5068970000000  0.5426420000000  0.4974750000000 1.0
C      1  0.4566300000000  0.4706350000000  0.5980310000000 1.0
C      1  0.4403700000000  0.4761480000000  0.5078330000000 1.0
C      1  0.5036690000000  0.4802470000000  0.5073360000000 1.0
C      1  0.4731180000000  0.4561950000000  0.4184730000000 1.0
C      1  0.4932830000000  0.5799470000000  0.4354760000000 1.0
C      1  0.5550390000000  0.5469130000000  0.4710730000000 1.0
C      1  0.5055380000000  0.4319830000000  0.4383980000000 1.0
C      1  0.5067450000000  0.4852450000000  0.4420400000000 1.0
C      1  0.4945890000000  0.4586800000000  0.4396280000000 1.0
C      1  0.4200130000000  0.5142380000000  0.4841870000000 1.0
C      1  0.5150360000000  0.4255200000000  0.4125610000000 1.0
C      1  0.5009330000000  0.5848240000000  0.4819220000000 1.0
C      1  0.4394450000000  0.4765310000000  0.4422800000000 1.0
C      1  0.4895040000000  0.4642700000000  0.3947210000000 1.0
C      1  0.5000670000000  0.5401440000000  0.5492120000000 1.0
C      1  0.5127820000000  0.5778040000000  0.4563820000000 1.0
C      1  0.5414120000000  0.5110450000000  0.5444020000000 1.0
C      1  0.4896330000000  0.4065160000000  0.5026630000000 1.0
C      1  0.4735350000000  0.4923220000000  0.6095360000000 1.0
C      1  0.4249580000000  0.5211380000000  0.4556950000000 1.0
C      1  0.5867800000000  0.5087830000000  0.4868100000000 1.0
C      1  0.4336960000000  0.5033680000000  0.4335200000000 1.0
C      1  0.5669350000000  0.5103700000000  0.4243670000000 1.0
C      1  0.5881580000000  0.4534560000000  0.4743720000000 1.0
C      1  0.4787740000000  0.5641630000000  0.4189470000000 1.0
C      1  0.5105850000000  0.5226410000000  0.4781210000000 1.0
C      1  0.5303160000000  0.5521750000000  0.5105530000000 1.0
C      1  0.5374340000000  0.4639830000000  0.4813140000000 1.0
C      1  0.4535720000000  0.4379120000000  0.5603420000000 1.0
C      1  0.4600860000000  0.5900300000000  0.5574030000000 1.0
C      1  0.4549630000000  0.5217220000000  0.5222430000000 1.0
C      1  0.5153950000000  0.4343620000000  0.5649730000000 1.0
C      1  0.4682950000000  0.4191020000000  0.5446260000000 1.0
C      1  0.4359720000000  0.5765260000000  0.5632380000000 1.0
C      1  0.5933670000000  0.4810750000000  0.4820890000000 1.0
C      1  0.4323990000000  0.5512680000000  0.5505040000000 1.0
C      1  0.5309510000000  0.4823760000000  0.5024610000000 1.0
C      1  0.5031190000000  0.6061230000000  0.5002980000000 1.0
C      1  0.5195900000000  0.4907890000000  0.4162950000000 1.0
C      1  0.4268200000000  0.4542470000000  0.5200950000000 1.0
C      1  0.4208770000000  0.5482180000000  0.4489030000000 1.0
C      1  0.4242060000000  0.4304570000000  0.4734240000000 1.0
C      1  0.5175880000000  0.4250720000000  0.5381990000000 1.0
C      1  0.6172780000000  0.5495060000000  0.5423720000000 1.0
C      1  0.5665820000000  0.5200630000000  0.4695690000000 1.0
C      1  0.5206530000000  0.5212970000000  0.5605100000000 1.0
C      1  0.4956160000000  0.6059180000000  0.5263500000000 1.0
C      1  0.5030190000000  0.5676770000000  0.5562060000000 1.0
C      1  0.4605920000000  0.5642560000000  0.5058930000000 1.0
C      1  0.5925790000000  0.5652720000000  0.5335150000000 1.0
C      1  0.4569490000000  0.4667670000000  0.4873480000000 1.0
C      1  0.4659580000000  0.3993960000000  0.4878640000000 1.0
C      1  0.5169990000000  0.4492470000000  0.3962940000000 1.0
END
