TITL C-3866672-3872-701 477468.337166945 125000 -941.129466453083 0 0 152 (C1) n - 1
REM
REM in /home/nfs/bkarasulu/CARBON/AIRSS/Generating-Clusters/LCBOP/Only-C1/SD-CG/FIRE-CG
REM
REM
REM
REM
REM
REM ./C.cell (11c1c37f851c82e70ff6c80c92926a4b)
REM AIRSS Version 0.9.1 bugfix July 2018 build 013d7b7c2542+ Fri, 06 Jul 2018 19:26:36 +0100
REM compiler GCC version 9.2.1 20190827 (Red Hat 9.2.1-1)
REM options -cpp -mtune=generic -march=x86-64 -g -O0 -fpre-include=/usr/include/finclude/math-vector-fortran.h
REM seed 2111155499 1748589940 1995692608 -2000802531 -1843614838 -1404100096 -483697558 81732578 12432135 194175292 635611692 1294860202 1066765422 1346281679 1386930553 778733246 -536320845 -215375066 -165207059 -1403615587 1610525229 -1854026106 -1789534327 -98925175 220190557 -517303398 -1512909306 -5559595 -685739240 841607348 -358178640 1717880110 -2018125050
REM
CELL 1.54180   50.00000   50.00000   50.00000   90.00000   90.00000   90.00000
LATT -1
SFAC C  
C      1  0.5160030000000  0.4783550000000  0.5097270000000 1.0
C      1  0.4732590000000  0.5030540000000  0.5413430000000 1.0
C      1  0.4708760000000  0.4580090000000  0.5041000000000 1.0
C      1  0.5150200000000  0.4791010000000  0.4796790000000 1.0
C      1  0.3852250000000  0.4232880000000  0.5625180000000 1.0
C      1  0.3940700000000  0.4494890000000  0.5210580000000 1.0
C      1  0.5055010000000  0.5411270000000  0.4426990000000 1.0
C      1  0.4376800000000  0.5511420000000  0.4898340000000 1.0
C      1  0.4583240000000  0.5757610000000  0.4013560000000 1.0
C      1  0.5408280000000  0.5077440000000  0.3841370000000 1.0
C      1  0.4924860000000  0.5661880000000  0.5124820000000 1.0
C      1  0.4940740000000  0.3916000000000  0.4766060000000 1.0
C      1  0.5125780000000  0.6108700000000  0.4356530000000 1.0
C      1  0.5300980000000  0.5943440000000  0.4235320000000 1.0
C      1  0.5957620000000  0.4507100000000  0.4338940000000 1.0
C      1  0.4816640000000  0.4488280000000  0.5295340000000 1.0
C      1  0.4662290000000  0.5585190000000  0.5221830000000 1.0
C      1  0.6058430000000  0.5099020000000  0.4398380000000 1.0
C      1  0.5372310000000  0.4178640000000  0.4295500000000 1.0
C      1  0.5931050000000  0.4652590000000  0.4578690000000 1.0
C      1  0.4664150000000  0.3943760000000  0.5249700000000 1.0
C      1  0.4955060000000  0.4848630000000  0.6200660000000 1.0
C      1  0.5333880000000  0.5004200000000  0.5207010000000 1.0
C      1  0.5890420000000  0.5061650000000  0.5565950000000 1.0
C      1  0.5410990000000  0.5048300000000  0.5819940000000 1.0
C      1  0.5630370000000  0.4642260000000  0.5222020000000 1.0
C      1  0.5999770000000  0.5373910000000  0.4379690000000 1.0
C      1  0.5127970000000  0.4507410000000  0.4736040000000 1.0
C      1  0.4691820000000  0.4317220000000  0.5533540000000 1.0
C      1  0.5885750000000  0.5471430000000  0.5264040000000 1.0
C      1  0.4224100000000  0.4119580000000  0.5322380000000 1.0
C      1  0.5447790000000  0.5655070000000  0.5118810000000 1.0
C      1  0.4470890000000  0.5468600000000  0.4406820000000 1.0
C      1  0.4879030000000  0.5129440000000  0.4941800000000 1.0
C      1  0.4001850000000  0.4278110000000  0.5395220000000 1.0
C      1  0.5085650000000  0.4787600000000  0.4282670000000 1.0
C      1  0.3955160000000  0.4029150000000  0.4633590000000 1.0
C      1  0.5193000000000  0.5438420000000  0.5442320000000 1.0
C      1  0.5083490000000  0.5294430000000  0.4932860000000 1.0
C      1  0.6080290000000  0.4900070000000  0.4599710000000 1.0
C      1  0.4955680000000  0.6147840000000  0.5433510000000 1.0
C      1  0.4515170000000  0.3936610000000  0.4995230000000 1.0
C      1  0.5271430000000  0.4644520000000  0.4072100000000 1.0
C      1  0.5550570000000  0.5498320000000  0.4153680000000 1.0
C      1  0.4376820000000  0.5170720000000  0.5816960000000 1.0
C      1  0.4833880000000  0.4458070000000  0.4800130000000 1.0
C      1  0.5550150000000  0.4702580000000  0.4189450000000 1.0
C      1  0.3995000000000  0.4069600000000  0.4370680000000 1.0
C      1  0.5381280000000  0.4190970000000  0.5343200000000 1.0
C      1  0.5106530000000  0.4225070000000  0.5780000000000 1.0
C      1  0.5279590000000  0.4836470000000  0.3840250000000 1.0
C      1  0.4350390000000  0.5214410000000  0.4376290000000 1.0
C      1  0.5648070000000  0.5627920000000  0.5342090000000 1.0
C      1  0.5332770000000  0.5487340000000  0.5686110000000 1.0
C      1  0.5518260000000  0.4872190000000  0.4416190000000 1.0
C      1  0.5179440000000  0.4015780000000  0.5206170000000 1.0
C      1  0.5341160000000  0.5692950000000  0.4108580000000 1.0
C      1  0.4507800000000  0.4822290000000  0.5057290000000 1.0
C      1  0.4132970000000  0.5067250000000  0.5662170000000 1.0
C      1  0.4584860000000  0.4733850000000  0.5781890000000 1.0
C      1  0.5684910000000  0.4632680000000  0.4740280000000 1.0
C      1  0.5976190000000  0.5635470000000  0.4774680000000 1.0
C      1  0.5516950000000  0.5698750000000  0.5603650000000 1.0
C      1  0.4429670000000  0.5638040000000  0.4646200000000 1.0
C      1  0.4502030000000  0.5922820000000  0.4644660000000 1.0
C      1  0.4542120000000  0.6044630000000  0.5142630000000 1.0
C      1  0.5350770000000  0.4219520000000  0.5629930000000 1.0
C      1  0.4900050000000  0.5767150000000  0.5766740000000 1.0
C      1  0.4042420000000  0.4131930000000  0.4879660000000 1.0
C      1  0.5355740000000  0.5939070000000  0.5644010000000 1.0
C      1  0.5495400000000  0.5065760000000  0.4959250000000 1.0
C      1  0.5712060000000  0.4185070000000  0.4993760000000 1.0
C      1  0.4566010000000  0.4827040000000  0.5518360000000 1.0
C      1  0.5607150000000  0.5036700000000  0.5604460000000 1.0
C      1  0.4025600000000  0.4419920000000  0.4933300000000 1.0
C      1  0.4885410000000  0.6164480000000  0.4492630000000 1.0
C      1  0.4942310000000  0.5674540000000  0.4853520000000 1.0
C      1  0.5152750000000  0.3941120000000  0.4933910000000 1.0
C      1  0.4649810000000  0.5538140000000  0.4189860000000 1.0
C      1  0.5066860000000  0.4621140000000  0.5332820000000 1.0
C      1  0.5104950000000  0.4762030000000  0.5589070000000 1.0
C      1  0.5170690000000  0.5175650000000  0.5374430000000 1.0
C      1  0.5102240000000  0.5583480000000  0.3986700000000 1.0
C      1  0.4538630000000  0.5997860000000  0.4151870000000 1.0
C      1  0.5002640000000  0.4585680000000  0.6155630000000 1.0
C      1  0.5422160000000  0.4453440000000  0.4682180000000 1.0
C      1  0.4464070000000  0.5782150000000  0.5189920000000 1.0
C      1  0.6151310000000  0.4982780000000  0.4862910000000 1.0
C      1  0.5660680000000  0.4078450000000  0.4745850000000 1.0
C      1  0.4323730000000  0.4709250000000  0.4215820000000 1.0
C      1  0.5307760000000  0.4772070000000  0.5800270000000 1.0
C      1  0.3710260000000  0.4229290000000  0.5843690000000 1.0
C      1  0.5814270000000  0.4654230000000  0.5838100000000 1.0
C      1  0.4945220000000  0.4410780000000  0.5941760000000 1.0
C      1  0.5258390000000  0.5286330000000  0.5876170000000 1.0
C      1  0.5243660000000  0.5222580000000  0.4525940000000 1.0
C      1  0.4314000000000  0.4445660000000  0.4313980000000 1.0
C      1  0.4488820000000  0.4125120000000  0.5421640000000 1.0
C      1  0.4371570000000  0.4787430000000  0.5324280000000 1.0
C      1  0.4522450000000  0.5361550000000  0.5086800000000 1.0
C      1  0.4236020000000  0.4011070000000  0.5048960000000 1.0
C      1  0.5485390000000  0.4201020000000  0.4554790000000 1.0
C      1  0.5064890000000  0.5968160000000  0.5633290000000 1.0
C      1  0.3718480000000  0.4851910000000  0.5559530000000 1.0
C      1  0.4715440000000  0.5754790000000  0.3763040000000 1.0
C      1  0.3851760000000  0.5026050000000  0.5736470000000 1.0
C      1  0.5703360000000  0.5603380000000  0.4663900000000 1.0
C      1  0.5543390000000  0.4611330000000  0.5864680000000 1.0
C      1  0.5943900000000  0.5181150000000  0.5305350000000 1.0
C      1  0.4218980000000  0.4556860000000  0.4770710000000 1.0
C      1  0.4607900000000  0.6090860000000  0.4869690000000 1.0
C      1  0.4793330000000  0.5509870000000  0.5847320000000 1.0
C      1  0.5522680000000  0.4855180000000  0.5392930000000 1.0
C      1  0.4671530000000  0.4013760000000  0.4766770000000 1.0
C      1  0.4697000000000  0.4474650000000  0.5795350000000 1.0
C      1  0.4928520000000  0.5454020000000  0.4178790000000 1.0
C      1  0.5495560000000  0.5547870000000  0.4851050000000 1.0
C      1  0.4629820000000  0.6047580000000  0.4411010000000 1.0
C      1  0.4516610000000  0.5426170000000  0.5801940000000 1.0
C      1  0.4135090000000  0.4902070000000  0.5404000000000 1.0
C      1  0.4143570000000  0.4240130000000  0.4223260000000 1.0
C      1  0.6147270000000  0.5543630000000  0.4563780000000 1.0
C      1  0.4679460000000  0.6161420000000  0.5363290000000 1.0
C      1  0.5260660000000  0.4345260000000  0.4107800000000 1.0
C      1  0.4988650000000  0.5022130000000  0.5517400000000 1.0
C      1  0.5958500000000  0.4994780000000  0.5070000000000 1.0
C      1  0.3892610000000  0.4749090000000  0.5347670000000 1.0
C      1  0.5233020000000  0.4925440000000  0.4515230000000 1.0
C      1  0.4975480000000  0.5675820000000  0.3752010000000 1.0
C      1  0.5181150000000  0.5628670000000  0.5238610000000 1.0
C      1  0.5000280000000  0.5621910000000  0.4603600000000 1.0
C      1  0.4321900000000  0.4972210000000  0.4266270000000 1.0
C      1  0.4937150000000  0.3959430000000  0.5353510000000 1.0
C      1  0.4858320000000  0.6216900000000  0.4778340000000 1.0
C      1  0.4640120000000  0.4285570000000  0.4674250000000 1.0
C      1  0.5535850000000  0.5275200000000  0.3973770000000 1.0
C      1  0.4823090000000  0.5057810000000  0.6059550000000 1.0
C      1  0.4395530000000  0.4414020000000  0.4586570000000 1.0
C      1  0.5703540000000  0.4825840000000  0.4977030000000 1.0
C      1  0.5586120000000  0.4344900000000  0.5199660000000 1.0
C      1  0.5350720000000  0.5288880000000  0.4803080000000 1.0
C      1  0.5724590000000  0.5492820000000  0.4382650000000 1.0
C      1  0.4311430000000  0.4810850000000  0.4842800000000 1.0
C      1  0.4915410000000  0.4110530000000  0.5596950000000 1.0
C      1  0.4968910000000  0.5292380000000  0.5955380000000 1.0
C      1  0.5055920000000  0.6290750000000  0.4963760000000 1.0
C      1  0.5986710000000  0.4837470000000  0.5722840000000 1.0
C      1  0.4566430000000  0.4974330000000  0.5939690000000 1.0
C      1  0.5116100000000  0.6257840000000  0.5225350000000 1.0
C      1  0.4650330000000  0.5091320000000  0.5116370000000 1.0
C      1  0.6025040000000  0.5594240000000  0.5047200000000 1.0
C      1  0.5782930000000  0.4555340000000  0.4138820000000 1.0
END
