TITL C-3866673-4222-468 0.0261743227599217 125000 -1068.66201381765 0 0 171 (C1) n - 1
REM
REM in /home/nfs/bkarasulu/CARBON/AIRSS/Generating-Clusters/LCBOP/Only-C1/SD-CG/FIRE-CG
REM
REM
REM
REM
REM
REM ./C.cell (11c1c37f851c82e70ff6c80c92926a4b)
REM AIRSS Version 0.9.1 bugfix July 2018 build 013d7b7c2542+ Fri, 06 Jul 2018 19:26:36 +0100
REM compiler GCC version 9.2.1 20190827 (Red Hat 9.2.1-1)
REM options -cpp -mtune=generic -march=x86-64 -g -O0 -fpre-include=/usr/include/finclude/math-vector-fortran.h
REM seed 1912050452 509152676 -1352298044 619738997 720020701 -2085729511 -110920012 2080528502 -920089740 -600831246 -1292769355 144743478 -1270914115 2050707284 -766054608 1908207668 1537428001 -516471656 13789321 -981861923 -937468550 386065016 1678871378 1814513219 -176284034 560251147 204505890 63697878 -1457333157 1365401524 -1589161817 -1165530370 -1023463224
REM
CELL 1.54180   50.00000   50.00000   50.00000   90.00000   90.00000   90.00000
LATT -1
SFAC C  
C      1  0.4115000000000  0.5442950000000  0.4294390000000 1.0
C      1  0.4178330000000  0.4962450000000  0.4144870000000 1.0
C      1  0.4660810000000  0.4230590000000  0.4304110000000 1.0
C      1  0.5337980000000  0.5153010000000  0.5834700000000 1.0
C      1  0.4565740000000  0.6086490000000  0.4992440000000 1.0
C      1  0.5501450000000  0.5049260000000  0.5261760000000 1.0
C      1  0.4860650000000  0.5980390000000  0.5688220000000 1.0
C      1  0.4291570000000  0.4250720000000  0.5117040000000 1.0
C      1  0.4766700000000  0.4548040000000  0.5028030000000 1.0
C      1  0.6009360000000  0.4687310000000  0.4242970000000 1.0
C      1  0.4920060000000  0.4712220000000  0.5944640000000 1.0
C      1  0.5194870000000  0.3860890000000  0.5139030000000 1.0
C      1  0.5126080000000  0.6186930000000  0.5348940000000 1.0
C      1  0.4267260000000  0.4148460000000  0.4581380000000 1.0
C      1  0.4578520000000  0.4408550000000  0.5464870000000 1.0
C      1  0.4383110000000  0.4789720000000  0.4909420000000 1.0
C      1  0.5305830000000  0.5364330000000  0.4941310000000 1.0
C      1  0.5062960000000  0.5721070000000  0.4695460000000 1.0
C      1  0.5136860000000  0.5903330000000  0.5754970000000 1.0
C      1  0.5455830000000  0.5579350000000  0.4037790000000 1.0
C      1  0.4085240000000  0.4534370000000  0.5495400000000 1.0
C      1  0.5015100000000  0.6192520000000  0.4867020000000 1.0
C      1  0.3774640000000  0.4597060000000  0.4822770000000 1.0
C      1  0.5232460000000  0.5627160000000  0.5744110000000 1.0
C      1  0.4938530000000  0.3978750000000  0.5805450000000 1.0
C      1  0.5404360000000  0.5922650000000  0.5081940000000 1.0
C      1  0.5281080000000  0.4259970000000  0.5605150000000 1.0
C      1  0.3466270000000  0.4070890000000  0.5241060000000 1.0
C      1  0.5056780000000  0.5441350000000  0.4796120000000 1.0
C      1  0.5112510000000  0.4822540000000  0.5177050000000 1.0
C      1  0.5088460000000  0.4047980000000  0.5576940000000 1.0
C      1  0.5425170000000  0.5425490000000  0.5809020000000 1.0
C      1  0.6455440000000  0.4499360000000  0.5369850000000 1.0
C      1  0.4309000000000  0.5367520000000  0.5893040000000 1.0
C      1  0.3971640000000  0.5013860000000  0.4595780000000 1.0
C      1  0.4190370000000  0.5669270000000  0.6306610000000 1.0
C      1  0.4196340000000  0.4483550000000  0.4227500000000 1.0
C      1  0.5703490000000  0.5080020000000  0.4833540000000 1.0
C      1  0.5692320000000  0.5672630000000  0.5470520000000 1.0
C      1  0.4515380000000  0.5543200000000  0.4019450000000 1.0
C      1  0.4747580000000  0.6132700000000  0.4776860000000 1.0
C      1  0.5381760000000  0.4776040000000  0.6141960000000 1.0
C      1  0.5433230000000  0.3861070000000  0.4982530000000 1.0
C      1  0.6137380000000  0.5418050000000  0.4562330000000 1.0
C      1  0.5863850000000  0.5210390000000  0.5710450000000 1.0
C      1  0.4392900000000  0.4674760000000  0.5883860000000 1.0
C      1  0.5637860000000  0.5761460000000  0.4154400000000 1.0
C      1  0.5409070000000  0.3809170000000  0.4705040000000 1.0
C      1  0.4093070000000  0.5147160000000  0.4350320000000 1.0
C      1  0.4761840000000  0.5302690000000  0.4449830000000 1.0
C      1  0.4626390000000  0.6093310000000  0.5275050000000 1.0
C      1  0.5303230000000  0.6038010000000  0.5535860000000 1.0
C      1  0.4667790000000  0.4314920000000  0.6068830000000 1.0
C      1  0.5521690000000  0.5199350000000  0.5020360000000 1.0
C      1  0.5835690000000  0.4640590000000  0.5408760000000 1.0
C      1  0.5467320000000  0.5020350000000  0.4419800000000 1.0
C      1  0.5552840000000  0.5315770000000  0.4017370000000 1.0
C      1  0.4483370000000  0.5862160000000  0.5408500000000 1.0
C      1  0.6092550000000  0.4936000000000  0.4382110000000 1.0
C      1  0.5987420000000  0.5062900000000  0.4832010000000 1.0
C      1  0.5071670000000  0.5816840000000  0.4213940000000 1.0
C      1  0.4188700000000  0.4733050000000  0.5678100000000 1.0
C      1  0.5065750000000  0.4732570000000  0.4673630000000 1.0
C      1  0.4763570000000  0.5344850000000  0.4912800000000 1.0
C      1  0.4383690000000  0.5871000000000  0.4945020000000 1.0
C      1  0.3999330000000  0.5105330000000  0.5365150000000 1.0
C      1  0.5069670000000  0.4306930000000  0.3974070000000 1.0
C      1  0.4351480000000  0.5196810000000  0.5678060000000 1.0
C      1  0.4002060000000  0.4977000000000  0.5106780000000 1.0
C      1  0.4128760000000  0.5378750000000  0.4892720000000 1.0
C      1  0.6063820000000  0.4778920000000  0.5526360000000 1.0
C      1  0.5043400000000  0.5297980000000  0.4525720000000 1.0
C      1  0.4136850000000  0.5507390000000  0.5152860000000 1.0
C      1  0.5778420000000  0.5045790000000  0.5935180000000 1.0
C      1  0.3797270000000  0.5533720000000  0.5505940000000 1.0
C      1  0.5791560000000  0.4626720000000  0.4074450000000 1.0
C      1  0.5191400000000  0.5080380000000  0.4426300000000 1.0
C      1  0.4998730000000  0.3956000000000  0.5319660000000 1.0
C      1  0.5595440000000  0.5115360000000  0.4189780000000 1.0
C      1  0.5288370000000  0.4412160000000  0.5138170000000 1.0
C      1  0.6152540000000  0.5212060000000  0.4357090000000 1.0
C      1  0.4087160000000  0.4473730000000  0.5192720000000 1.0
C      1  0.4555660000000  0.4762690000000  0.4428070000000 1.0
C      1  0.4722120000000  0.4001900000000  0.5261350000000 1.0
C      1  0.6027990000000  0.5663480000000  0.4479990000000 1.0
C      1  0.4458090000000  0.5827580000000  0.4446680000000 1.0
C      1  0.5048970000000  0.4912800000000  0.4906650000000 1.0
C      1  0.6111250000000  0.4478990000000  0.4421600000000 1.0
C      1  0.4716590000000  0.4918230000000  0.5566460000000 1.0
C      1  0.4365030000000  0.4260930000000  0.4323140000000 1.0
C      1  0.4937460000000  0.4903630000000  0.5734950000000 1.0
C      1  0.4733670000000  0.5366430000000  0.5386790000000 1.0
C      1  0.4981160000000  0.5454290000000  0.3914440000000 1.0
C      1  0.3818680000000  0.4433180000000  0.5053850000000 1.0
C      1  0.5021970000000  0.4849480000000  0.4417330000000 1.0
C      1  0.6175370000000  0.5405990000000  0.5100100000000 1.0
C      1  0.5005380000000  0.5423290000000  0.5388250000000 1.0
C      1  0.6307630000000  0.4641850000000  0.5541220000000 1.0
C      1  0.6180940000000  0.4580840000000  0.4682890000000 1.0
C      1  0.6333720000000  0.4456420000000  0.4876440000000 1.0
C      1  0.4163960000000  0.4747690000000  0.5074010000000 1.0
C      1  0.5177000000000  0.5019800000000  0.5641530000000 1.0
C      1  0.4925340000000  0.4155250000000  0.4167540000000 1.0
C      1  0.4722080000000  0.5160310000000  0.4204880000000 1.0
C      1  0.4621050000000  0.5467650000000  0.5147730000000 1.0
C      1  0.5039040000000  0.4251780000000  0.4593310000000 1.0
C      1  0.4368310000000  0.4664730000000  0.3803260000000 1.0
C      1  0.5029510000000  0.4543190000000  0.5164670000000 1.0
C      1  0.4248660000000  0.5516020000000  0.6103960000000 1.0
C      1  0.4511340000000  0.4191360000000  0.5299190000000 1.0
C      1  0.4336800000000  0.5750060000000  0.4696190000000 1.0
C      1  0.4762120000000  0.4282910000000  0.4577410000000 1.0
C      1  0.5249890000000  0.4977380000000  0.5367030000000 1.0
C      1  0.5506810000000  0.4985400000000  0.5992870000000 1.0
C      1  0.5392810000000  0.4455080000000  0.4871580000000 1.0
C      1  0.6124110000000  0.5314420000000  0.4834750000000 1.0
C      1  0.5306500000000  0.4434680000000  0.3944770000000 1.0
C      1  0.4776910000000  0.4083360000000  0.5991020000000 1.0
C      1  0.5585490000000  0.4629600000000  0.4754720000000 1.0
C      1  0.4152130000000  0.5008740000000  0.5590840000000 1.0
C      1  0.4706440000000  0.5979540000000  0.4520470000000 1.0
C      1  0.5552840000000  0.4533560000000  0.3990960000000 1.0
C      1  0.4956710000000  0.5849790000000  0.4465220000000 1.0
C      1  0.4634220000000  0.4825560000000  0.5034930000000 1.0
C      1  0.5280890000000  0.4401340000000  0.5848580000000 1.0
C      1  0.4365250000000  0.4231410000000  0.4840700000000 1.0
C      1  0.5217610000000  0.5585130000000  0.5449170000000 1.0
C      1  0.3884690000000  0.4729580000000  0.4594300000000 1.0
C      1  0.4624030000000  0.4670650000000  0.5478120000000 1.0
C      1  0.5686060000000  0.5450000000000  0.5666630000000 1.0
C      1  0.5445480000000  0.4733110000000  0.6404590000000 1.0
C      1  0.5580470000000  0.5876830000000  0.4879790000000 1.0
C      1  0.4611590000000  0.5833740000000  0.5666060000000 1.0
C      1  0.4767110000000  0.4886380000000  0.4290630000000 1.0
C      1  0.5931440000000  0.5757860000000  0.5350110000000 1.0
C      1  0.6452140000000  0.4428410000000  0.5112770000000 1.0
C      1  0.6117600000000  0.5669000000000  0.5179350000000 1.0
C      1  0.4599160000000  0.5173360000000  0.5542390000000 1.0
C      1  0.4856630000000  0.6154770000000  0.5439620000000 1.0
C      1  0.4254640000000  0.4702060000000  0.4048540000000 1.0
C      1  0.5427110000000  0.5796830000000  0.5362340000000 1.0
C      1  0.5585240000000  0.4896660000000  0.4650420000000 1.0
C      1  0.4606040000000  0.4409260000000  0.4785360000000 1.0
C      1  0.4329450000000  0.5466740000000  0.4717310000000 1.0
C      1  0.3993750000000  0.5134290000000  0.4861210000000 1.0
C      1  0.4798570000000  0.5043990000000  0.4953070000000 1.0
C      1  0.5173580000000  0.4470380000000  0.4691160000000 1.0
C      1  0.5686820000000  0.4846130000000  0.5289600000000 1.0
C      1  0.5718910000000  0.4377710000000  0.5370050000000 1.0
C      1  0.4389110000000  0.5672110000000  0.5184000000000 1.0
C      1  0.5174390000000  0.5627970000000  0.4031010000000 1.0
C      1  0.6048390000000  0.5075550000000  0.5528360000000 1.0
C      1  0.5184300000000  0.4611180000000  0.6011000000000 1.0
C      1  0.3973410000000  0.4552170000000  0.4391990000000 1.0
C      1  0.5110970000000  0.4065420000000  0.4386000000000 1.0
C      1  0.3633620000000  0.4247570000000  0.5147850000000 1.0
C      1  0.5845630000000  0.5780240000000  0.4322460000000 1.0
C      1  0.5677890000000  0.3957800000000  0.5092960000000 1.0
C      1  0.5814990000000  0.4148150000000  0.5230700000000 1.0
C      1  0.3869450000000  0.5574460000000  0.4277680000000 1.0
C      1  0.4462150000000  0.4657150000000  0.4667590000000 1.0
C      1  0.4654620000000  0.4586540000000  0.5988070000000 1.0
C      1  0.6107010000000  0.4859580000000  0.4670810000000 1.0
C      1  0.5195370000000  0.6126610000000  0.5076320000000 1.0
C      1  0.4355330000000  0.5622210000000  0.4243010000000 1.0
C      1  0.5428370000000  0.4358130000000  0.5381550000000 1.0
C      1  0.4584340000000  0.5352400000000  0.4666690000000 1.0
C      1  0.6174920000000  0.5217660000000  0.5316360000000 1.0
C      1  0.4726570000000  0.5353250000000  0.3993970000000 1.0
C      1  0.5292210000000  0.3870020000000  0.4469800000000 1.0
C      1  0.3970980000000  0.5392000000000  0.5351490000000 1.0
END
