TITL C-3866670-4165-574 -8.39107947263543 125000 -979.020966605238 0 0 160 (C1) n - 1
REM
REM in /home/nfs/bkarasulu/CARBON/AIRSS/Generating-Clusters/LCBOP/Only-C1/SD-CG/FIRE-CG
REM
REM
REM
REM
REM
REM ./C.cell (11c1c37f851c82e70ff6c80c92926a4b)
REM AIRSS Version 0.9.1 bugfix July 2018 build 013d7b7c2542+ Fri, 06 Jul 2018 19:26:36 +0100
REM compiler GCC version 9.2.1 20190827 (Red Hat 9.2.1-1)
REM options -cpp -mtune=generic -march=x86-64 -g -O0 -fpre-include=/usr/include/finclude/math-vector-fortran.h
REM seed -1592743228 -887136457 1225169387 291107092 1505746919 -1083529247 -988271114 -487043656 -322568058 536928680 -1358011813 368405429 2145990928 236129491 555653482 -1170249046 -1798016252 551596903 1305969761 1300383784 826894474 -93513118 -2018507242 1646880868 1894445465 4657366 1030304657 -133382881 -1147500772 -1829527925 1130837225 -1379106148 -880650830
REM
CELL 1.54180   50.00000   50.00000   50.00000   90.00000   90.00000   90.00000
LATT -1
SFAC C  
C      1  0.4986500000000  0.3917340000000  0.5169490000000 1.0
C      1  0.4766300000000  0.5855940000000  0.4321860000000 1.0
C      1  0.6168890000000  0.5147600000000  0.4973170000000 1.0
C      1  0.5313750000000  0.4651960000000  0.4495030000000 1.0
C      1  0.5097520000000  0.5858980000000  0.6001650000000 1.0
C      1  0.5231340000000  0.5746310000000  0.4226400000000 1.0
C      1  0.5314840000000  0.5442930000000  0.6054950000000 1.0
C      1  0.4517260000000  0.5380750000000  0.3595510000000 1.0
C      1  0.4476150000000  0.5536880000000  0.5936330000000 1.0
C      1  0.5556040000000  0.5512940000000  0.5494960000000 1.0
C      1  0.5506330000000  0.4424460000000  0.4422450000000 1.0
C      1  0.4873030000000  0.4861140000000  0.6293450000000 1.0
C      1  0.4798420000000  0.5549050000000  0.4989190000000 1.0
C      1  0.5069920000000  0.5426220000000  0.5599440000000 1.0
C      1  0.4059760000000  0.4666320000000  0.4751610000000 1.0
C      1  0.4626450000000  0.5283350000000  0.3826620000000 1.0
C      1  0.4722450000000  0.5565180000000  0.4708310000000 1.0
C      1  0.4463720000000  0.4683200000000  0.4109020000000 1.0
C      1  0.4035120000000  0.5830440000000  0.5144000000000 1.0
C      1  0.3959630000000  0.4541190000000  0.5399700000000 1.0
C      1  0.4600950000000  0.4480540000000  0.6076580000000 1.0
C      1  0.4426570000000  0.5283780000000  0.5293410000000 1.0
C      1  0.5697000000000  0.4344870000000  0.4621560000000 1.0
C      1  0.5317940000000  0.5695710000000  0.5919350000000 1.0
C      1  0.4120140000000  0.5604480000000  0.4999500000000 1.0
C      1  0.4107190000000  0.5585400000000  0.4722620000000 1.0
C      1  0.5805400000000  0.5034410000000  0.5617980000000 1.0
C      1  0.4550040000000  0.4772260000000  0.5500880000000 1.0
C      1  0.5088980000000  0.4778000000000  0.4917510000000 1.0
C      1  0.5311790000000  0.5648950000000  0.5039520000000 1.0
C      1  0.4650000000000  0.5383190000000  0.5766000000000 1.0
C      1  0.3812060000000  0.4974700000000  0.5223290000000 1.0
C      1  0.5436410000000  0.3916770000000  0.4789890000000 1.0
C      1  0.5984760000000  0.4694110000000  0.5179000000000 1.0
C      1  0.4890050000000  0.5122550000000  0.4701310000000 1.0
C      1  0.5972120000000  0.5411590000000  0.5366180000000 1.0
C      1  0.5009260000000  0.5078390000000  0.6223450000000 1.0
C      1  0.5820540000000  0.5720710000000  0.4615890000000 1.0
C      1  0.4841620000000  0.4846440000000  0.4794620000000 1.0
C      1  0.5478820000000  0.6349610000000  0.4578720000000 1.0
C      1  0.4956760000000  0.4965790000000  0.4005540000000 1.0
C      1  0.5183820000000  0.4312530000000  0.4841680000000 1.0
C      1  0.4732340000000  0.5318750000000  0.4566940000000 1.0
C      1  0.4769890000000  0.4274550000000  0.3849940000000 1.0
C      1  0.5243060000000  0.4954790000000  0.5068890000000 1.0
C      1  0.5963330000000  0.5315890000000  0.4408290000000 1.0
C      1  0.5489680000000  0.4080700000000  0.5269590000000 1.0
C      1  0.4575710000000  0.4752600000000  0.3846290000000 1.0
C      1  0.4231350000000  0.5559920000000  0.5776410000000 1.0
C      1  0.5569940000000  0.4220080000000  0.5539410000000 1.0
C      1  0.4584880000000  0.5432520000000  0.5483800000000 1.0
C      1  0.5596140000000  0.4054090000000  0.4995940000000 1.0
C      1  0.5115110000000  0.5318270000000  0.5363760000000 1.0
C      1  0.3946820000000  0.5203040000000  0.5185920000000 1.0
C      1  0.5225370000000  0.4570870000000  0.4782530000000 1.0
C      1  0.5706950000000  0.5266120000000  0.4293200000000 1.0
C      1  0.4864480000000  0.4459960000000  0.4494920000000 1.0
C      1  0.5746660000000  0.4281280000000  0.4896030000000 1.0
C      1  0.5118750000000  0.4362800000000  0.5307270000000 1.0
C      1  0.4758810000000  0.6011710000000  0.5074990000000 1.0
C      1  0.5224100000000  0.4939700000000  0.3921810000000 1.0
C      1  0.4827600000000  0.4719530000000  0.5483070000000 1.0
C      1  0.4197280000000  0.4289290000000  0.4246290000000 1.0
C      1  0.4310530000000  0.4247270000000  0.5250260000000 1.0
C      1  0.5894210000000  0.4726980000000  0.4229390000000 1.0
C      1  0.5311110000000  0.5371080000000  0.4540770000000 1.0
C      1  0.5515460000000  0.6091560000000  0.4579110000000 1.0
C      1  0.4410810000000  0.4542520000000  0.5617780000000 1.0
C      1  0.5464950000000  0.4910990000000  0.4534000000000 1.0
C      1  0.5134620000000  0.5286770000000  0.4754170000000 1.0
C      1  0.5066340000000  0.4869870000000  0.5505680000000 1.0
C      1  0.4177220000000  0.5370410000000  0.5152600000000 1.0
C      1  0.5912510000000  0.4743840000000  0.5456610000000 1.0
C      1  0.4079390000000  0.5888760000000  0.5403080000000 1.0
C      1  0.4920500000000  0.5343190000000  0.5820020000000 1.0
C      1  0.5131330000000  0.5054680000000  0.5302210000000 1.0
C      1  0.5027580000000  0.3660150000000  0.5072380000000 1.0
C      1  0.4172150000000  0.5055200000000  0.5602090000000 1.0
C      1  0.5293990000000  0.4709820000000  0.5569900000000 1.0
C      1  0.4573100000000  0.4849170000000  0.4323560000000 1.0
C      1  0.5365700000000  0.5641470000000  0.4450500000000 1.0
C      1  0.4745110000000  0.5313730000000  0.4290420000000 1.0
C      1  0.5037220000000  0.4657190000000  0.4371930000000 1.0
C      1  0.5993840000000  0.5370470000000  0.4898940000000 1.0
C      1  0.4735780000000  0.5957870000000  0.5540560000000 1.0
C      1  0.4549820000000  0.4190320000000  0.5108590000000 1.0
C      1  0.4432210000000  0.4401560000000  0.4165110000000 1.0
C      1  0.3838490000000  0.4695230000000  0.5195980000000 1.0
C      1  0.5634230000000  0.4894030000000  0.4764410000000 1.0
C      1  0.4251020000000  0.5206530000000  0.4458640000000 1.0
C      1  0.5079600000000  0.3158690000000  0.4923840000000 1.0
C      1  0.4651730000000  0.5448720000000  0.4061190000000 1.0
C      1  0.5961230000000  0.5480440000000  0.4639610000000 1.0
C      1  0.5430610000000  0.5725680000000  0.5652850000000 1.0
C      1  0.4288070000000  0.4834870000000  0.4775960000000 1.0
C      1  0.4675490000000  0.4245870000000  0.4121130000000 1.0
C      1  0.5844810000000  0.5481250000000  0.5114420000000 1.0
C      1  0.5085260000000  0.4175940000000  0.5802530000000 1.0
C      1  0.4689170000000  0.4519800000000  0.3722960000000 1.0
C      1  0.5565160000000  0.5817080000000  0.4558450000000 1.0
C      1  0.5483220000000  0.4289700000000  0.4185370000000 1.0
C      1  0.4874340000000  0.4861740000000  0.4261390000000 1.0
C      1  0.4299600000000  0.5672090000000  0.4290710000000 1.0
C      1  0.5911160000000  0.4839110000000  0.4723480000000 1.0
C      1  0.4197000000000  0.5485010000000  0.4477860000000 1.0
C      1  0.6019530000000  0.4845020000000  0.4455620000000 1.0
C      1  0.4558080000000  0.5702040000000  0.4178120000000 1.0
C      1  0.5353230000000  0.4160830000000  0.5741190000000 1.0
C      1  0.5080170000000  0.5280220000000  0.6046640000000 1.0
C      1  0.5540340000000  0.4623010000000  0.5153640000000 1.0
C      1  0.4696020000000  0.4007730000000  0.5530670000000 1.0
C      1  0.4555540000000  0.5733330000000  0.5436300000000 1.0
C      1  0.4305060000000  0.5843880000000  0.6567840000000 1.0
C      1  0.4576920000000  0.4397420000000  0.5810300000000 1.0
C      1  0.5511220000000  0.4877490000000  0.5021690000000 1.0
C      1  0.4270620000000  0.5763220000000  0.5564580000000 1.0
C      1  0.4808410000000  0.5829140000000  0.4611490000000 1.0
C      1  0.5344730000000  0.5953720000000  0.5500820000000 1.0
C      1  0.4442190000000  0.5785990000000  0.6353930000000 1.0
C      1  0.5194910000000  0.4094590000000  0.5250050000000 1.0
C      1  0.5469550000000  0.5169700000000  0.4416560000000 1.0
C      1  0.5477660000000  0.4851370000000  0.3931640000000 1.0
C      1  0.5029140000000  0.4008220000000  0.4446350000000 1.0
C      1  0.4839130000000  0.5841830000000  0.6077100000000 1.0
C      1  0.4650770000000  0.5744910000000  0.5141350000000 1.0
C      1  0.5558940000000  0.5560380000000  0.5183230000000 1.0
C      1  0.5330330000000  0.4549390000000  0.5327940000000 1.0
C      1  0.5091390000000  0.5471610000000  0.4973140000000 1.0
C      1  0.5707560000000  0.4497430000000  0.5601110000000 1.0
C      1  0.5051590000000  0.3406220000000  0.5000650000000 1.0
C      1  0.4380450000000  0.4987950000000  0.5362710000000 1.0
C      1  0.5007750000000  0.5886160000000  0.4178350000000 1.0
C      1  0.4890650000000  0.4438400000000  0.5456900000000 1.0
C      1  0.5776840000000  0.5312880000000  0.5551090000000 1.0
C      1  0.4114360000000  0.5298900000000  0.5719680000000 1.0
C      1  0.4846400000000  0.4212150000000  0.4354380000000 1.0
C      1  0.4732710000000  0.4570800000000  0.4728690000000 1.0
C      1  0.5641750000000  0.4921970000000  0.5820290000000 1.0
C      1  0.5209700000000  0.5922980000000  0.5018240000000 1.0
C      1  0.4624310000000  0.4379480000000  0.4909800000000 1.0
C      1  0.4721160000000  0.5009420000000  0.3842540000000 1.0
C      1  0.4211620000000  0.4423920000000  0.5448300000000 1.0
C      1  0.4585000000000  0.5722030000000  0.6122730000000 1.0
C      1  0.4724530000000  0.4004160000000  0.5245180000000 1.0
C      1  0.6431660000000  0.5191710000000  0.5036900000000 1.0
C      1  0.4806350000000  0.4242330000000  0.5681460000000 1.0
C      1  0.5516840000000  0.4681540000000  0.5739930000000 1.0
C      1  0.5710620000000  0.4765630000000  0.4035310000000 1.0
C      1  0.5174860000000  0.6039510000000  0.5291000000000 1.0
C      1  0.3866770000000  0.4603730000000  0.4929230000000 1.0
C      1  0.6061380000000  0.4881080000000  0.4966740000000 1.0
C      1  0.4360190000000  0.4881470000000  0.5056360000000 1.0
C      1  0.4921990000000  0.4086240000000  0.3724620000000 1.0
C      1  0.5787250000000  0.4493930000000  0.5081310000000 1.0
C      1  0.4382720000000  0.4959640000000  0.4524950000000 1.0
C      1  0.6139470000000  0.5096250000000  0.4395040000000 1.0
C      1  0.4950240000000  0.5973680000000  0.4847430000000 1.0
C      1  0.5238850000000  0.3916520000000  0.4598030000000 1.0
C      1  0.4892390000000  0.6086680000000  0.5332750000000 1.0
C      1  0.4718620000000  0.4650140000000  0.6244710000000 1.0
END
