TITL C-3866671-3735-612 0.0217799516244717 125000 -1063.55500894246 0 0 175 (C1) n - 1
REM
REM in /home/nfs/bkarasulu/CARBON/AIRSS/Generating-Clusters/LCBOP/Only-C1/SD-CG/FIRE-CG
REM
REM
REM
REM
REM
REM ./C.cell (11c1c37f851c82e70ff6c80c92926a4b)
REM AIRSS Version 0.9.1 bugfix July 2018 build 013d7b7c2542+ Fri, 06 Jul 2018 19:26:36 +0100
REM compiler GCC version 9.2.1 20190827 (Red Hat 9.2.1-1)
REM options -cpp -mtune=generic -march=x86-64 -g -O0 -fpre-include=/usr/include/finclude/math-vector-fortran.h
REM seed 692259009 733403176 -230400700 -1714858071 -1440741508 1898074706 -623244690 -1453701680 1938046774 1562437962 -2144770869 -827274692 -302461126 -1711572918 -1117727692 -1812697033 -117210376 636058414 -1695519045 349547761 1407537349 -1774396012 -576450593 -876552650 1751183147 1564059271 2083257728 -1854194388 798426273 -1154011199 -533240200 1045981559 1373969769
REM
CELL 1.54180   50.00000   50.00000   50.00000   90.00000   90.00000   90.00000
LATT -1
SFAC C  
C      1  0.5030050000000  0.4676270000000  0.3868910000000 1.0
C      1  0.4452690000000  0.4570660000000  0.4534120000000 1.0
C      1  0.4182560000000  0.5475880000000  0.4174310000000 1.0
C      1  0.5979380000000  0.4594760000000  0.5593740000000 1.0
C      1  0.3769060000000  0.4727060000000  0.5201840000000 1.0
C      1  0.5707510000000  0.5154200000000  0.4185390000000 1.0
C      1  0.4849360000000  0.6177090000000  0.5344680000000 1.0
C      1  0.4774760000000  0.4973320000000  0.6176170000000 1.0
C      1  0.4601330000000  0.4379520000000  0.4033370000000 1.0
C      1  0.4913890000000  0.5214820000000  0.6126450000000 1.0
C      1  0.4347400000000  0.5001560000000  0.5052100000000 1.0
C      1  0.4105970000000  0.4807030000000  0.5853940000000 1.0
C      1  0.6533920000000  0.5402570000000  0.5584010000000 1.0
C      1  0.4295880000000  0.6160080000000  0.5458480000000 1.0
C      1  0.5320200000000  0.5926170000000  0.6064750000000 1.0
C      1  0.4858820000000  0.4432360000000  0.3893650000000 1.0
C      1  0.4823710000000  0.5984680000000  0.5532670000000 1.0
C      1  0.4697180000000  0.4107320000000  0.4482530000000 1.0
C      1  0.4235290000000  0.5489000000000  0.4673820000000 1.0
C      1  0.5749610000000  0.4865230000000  0.4157060000000 1.0
C      1  0.4683740000000  0.6320540000000  0.4887940000000 1.0
C      1  0.5113880000000  0.5099350000000  0.5007730000000 1.0
C      1  0.5240050000000  0.5918570000000  0.4119120000000 1.0
C      1  0.5277980000000  0.5700240000000  0.5941980000000 1.0
C      1  0.5753470000000  0.2976900000000  0.5038400000000 1.0
C      1  0.4846720000000  0.3933180000000  0.4344670000000 1.0
C      1  0.5611620000000  0.5441250000000  0.5424360000000 1.0
C      1  0.3929050000000  0.4832760000000  0.5655310000000 1.0
C      1  0.4407160000000  0.5915720000000  0.4255460000000 1.0
C      1  0.5383200000000  0.5371500000000  0.5576930000000 1.0
C      1  0.4534490000000  0.4930830000000  0.4194700000000 1.0
C      1  0.4888760000000  0.5012310000000  0.4867800000000 1.0
C      1  0.5593730000000  0.4661930000000  0.5323340000000 1.0
C      1  0.4940630000000  0.4222670000000  0.3729170000000 1.0
C      1  0.4025580000000  0.5455830000000  0.5781660000000 1.0
C      1  0.4490980000000  0.4983080000000  0.6114780000000 1.0
C      1  0.4317960000000  0.6410250000000  0.5552690000000 1.0
C      1  0.4056710000000  0.6015030000000  0.5071300000000 1.0
C      1  0.3822400000000  0.4923090000000  0.5406760000000 1.0
C      1  0.5040660000000  0.3730540000000  0.5229500000000 1.0
C      1  0.5352530000000  0.4946450000000  0.5026560000000 1.0
C      1  0.4933560000000  0.5903180000000  0.4909030000000 1.0
C      1  0.4959230000000  0.5451820000000  0.4453020000000 1.0
C      1  0.5209140000000  0.3530160000000  0.5189360000000 1.0
C      1  0.5275520000000  0.5109790000000  0.5521550000000 1.0
C      1  0.5524920000000  0.4502040000000  0.5769450000000 1.0
C      1  0.5190780000000  0.5907160000000  0.4766390000000 1.0
C      1  0.5277390000000  0.5633700000000  0.4788860000000 1.0
C      1  0.4120220000000  0.5572660000000  0.4911080000000 1.0
C      1  0.5069270000000  0.3889180000000  0.4203600000000 1.0
C      1  0.5769730000000  0.4559510000000  0.5127420000000 1.0
C      1  0.5238250000000  0.5460580000000  0.5809700000000 1.0
C      1  0.4749890000000  0.5740410000000  0.5071140000000 1.0
C      1  0.5399540000000  0.6016670000000  0.4590610000000 1.0
C      1  0.6003400000000  0.5744810000000  0.4615830000000 1.0
C      1  0.4955040000000  0.4327590000000  0.5862160000000 1.0
C      1  0.4105190000000  0.4862330000000  0.3982000000000 1.0
C      1  0.5604440000000  0.4394580000000  0.4063260000000 1.0
C      1  0.4167870000000  0.5230340000000  0.4590350000000 1.0
C      1  0.4164750000000  0.4372700000000  0.5547620000000 1.0
C      1  0.4657140000000  0.6610300000000  0.5279240000000 1.0
C      1  0.4755840000000  0.6373240000000  0.5158160000000 1.0
C      1  0.4534800000000  0.4585770000000  0.5833340000000 1.0
C      1  0.5224820000000  0.4703500000000  0.6139980000000 1.0
C      1  0.4036090000000  0.4799850000000  0.4744090000000 1.0
C      1  0.3801210000000  0.5203600000000  0.5394640000000 1.0
C      1  0.4466640000000  0.5776170000000  0.5156200000000 1.0
C      1  0.5699200000000  0.4622180000000  0.5581740000000 1.0
C      1  0.4924550000000  0.4784870000000  0.5646150000000 1.0
C      1  0.6157140000000  0.5073050000000  0.5177530000000 1.0
C      1  0.5053610000000  0.5251450000000  0.5887580000000 1.0
C      1  0.5404980000000  0.4261960000000  0.5656180000000 1.0
C      1  0.5197340000000  0.5475850000000  0.4573320000000 1.0
C      1  0.5077550000000  0.4586950000000  0.5224910000000 1.0
C      1  0.5699800000000  0.4844710000000  0.6070640000000 1.0
C      1  0.6196520000000  0.4881310000000  0.6006830000000 1.0
C      1  0.4559520000000  0.5599080000000  0.3910630000000 1.0
C      1  0.4486600000000  0.6089360000000  0.4445500000000 1.0
C      1  0.5987260000000  0.5473610000000  0.4533190000000 1.0
C      1  0.5335960000000  0.4726470000000  0.5212100000000 1.0
C      1  0.5502900000000  0.4148430000000  0.4080820000000 1.0
C      1  0.3959960000000  0.5802310000000  0.4934590000000 1.0
C      1  0.6122290000000  0.5285940000000  0.4700350000000 1.0
C      1  0.4833590000000  0.4596530000000  0.5874510000000 1.0
C      1  0.5400470000000  0.4792390000000  0.3579750000000 1.0
C      1  0.5211600000000  0.5683520000000  0.3977680000000 1.0
C      1  0.5790800000000  0.5413100000000  0.4327960000000 1.0
C      1  0.4733500000000  0.5751410000000  0.5635500000000 1.0
C      1  0.5016050000000  0.4362450000000  0.5058080000000 1.0
C      1  0.4857540000000  0.4682890000000  0.5386550000000 1.0
C      1  0.4717640000000  0.3949540000000  0.5527930000000 1.0
C      1  0.5637980000000  0.4511200000000  0.4685850000000 1.0
C      1  0.5366930000000  0.3911320000000  0.4679240000000 1.0
C      1  0.5304390000000  0.5536800000000  0.5048830000000 1.0
C      1  0.4579080000000  0.6225790000000  0.4658390000000 1.0
C      1  0.5434700000000  0.5887700000000  0.4332860000000 1.0
C      1  0.4650290000000  0.5495940000000  0.5589660000000 1.0
C      1  0.4413390000000  0.4694310000000  0.5114980000000 1.0
C      1  0.4557610000000  0.4210750000000  0.5047760000000 1.0
C      1  0.4701670000000  0.5405770000000  0.3794280000000 1.0
C      1  0.5307780000000  0.3969860000000  0.4114770000000 1.0
C      1  0.5164630000000  0.4186200000000  0.5777380000000 1.0
C      1  0.6267480000000  0.4821310000000  0.5256110000000 1.0
C      1  0.4367470000000  0.4778690000000  0.5955300000000 1.0
C      1  0.5911280000000  0.4753040000000  0.4364620000000 1.0
C      1  0.3924830000000  0.4325210000000  0.5442810000000 1.0
C      1  0.5480150000000  0.4663150000000  0.6010910000000 1.0
C      1  0.4657930000000  0.5348780000000  0.5344170000000 1.0
C      1  0.4196100000000  0.4654510000000  0.4563770000000 1.0
C      1  0.4714780000000  0.5381500000000  0.4564890000000 1.0
C      1  0.4464270000000  0.6620390000000  0.5468320000000 1.0
C      1  0.4353520000000  0.4372540000000  0.4940770000000 1.0
C      1  0.4938320000000  0.4741220000000  0.6117370000000 1.0
C      1  0.6305750000000  0.5051060000000  0.5829020000000 1.0
C      1  0.4181790000000  0.5036850000000  0.4803890000000 1.0
C      1  0.4669280000000  0.4382020000000  0.4550570000000 1.0
C      1  0.5572980000000  0.3157860000000  0.5089760000000 1.0
C      1  0.4386030000000  0.4275050000000  0.4181150000000 1.0
C      1  0.3745070000000  0.4462490000000  0.5299170000000 1.0
C      1  0.5425790000000  0.5208400000000  0.4128520000000 1.0
C      1  0.6102880000000  0.5240620000000  0.5415350000000 1.0
C      1  0.6320330000000  0.5233190000000  0.5611140000000 1.0
C      1  0.4764690000000  0.4855210000000  0.4304880000000 1.0
C      1  0.4222400000000  0.4244030000000  0.4701820000000 1.0
C      1  0.5559630000000  0.5482840000000  0.5151860000000 1.0
C      1  0.4419190000000  0.5261980000000  0.5197570000000 1.0
C      1  0.5608670000000  0.5033990000000  0.4923670000000 1.0
C      1  0.6196940000000  0.4643270000000  0.5444640000000 1.0
C      1  0.5580660000000  0.5625690000000  0.4269470000000 1.0
C      1  0.4966040000000  0.4723950000000  0.4450320000000 1.0
C      1  0.4264710000000  0.4997940000000  0.4157150000000 1.0
C      1  0.5683390000000  0.5113810000000  0.5984840000000 1.0
C      1  0.6078540000000  0.5085370000000  0.4896920000000 1.0
C      1  0.5853790000000  0.5334170000000  0.5532800000000 1.0
C      1  0.5267570000000  0.5025870000000  0.4266230000000 1.0
C      1  0.4718720000000  0.5138760000000  0.4705710000000 1.0
C      1  0.4823480000000  0.4164510000000  0.5127710000000 1.0
C      1  0.5544030000000  0.4175040000000  0.5124550000000 1.0
C      1  0.5060770000000  0.5029300000000  0.5691500000000 1.0
C      1  0.3886110000000  0.5397870000000  0.5560580000000 1.0
C      1  0.4349940000000  0.5228480000000  0.6120030000000 1.0
C      1  0.3828750000000  0.4749210000000  0.4926070000000 1.0
C      1  0.4807350000000  0.5164210000000  0.3756620000000 1.0
C      1  0.4294480000000  0.5999470000000  0.5229020000000 1.0
C      1  0.4245590000000  0.4206710000000  0.4418970000000 1.0
C      1  0.5657780000000  0.4374310000000  0.4941130000000 1.0
C      1  0.5853820000000  0.4916220000000  0.4825820000000 1.0
C      1  0.4569520000000  0.4156030000000  0.5609830000000 1.0
C      1  0.5238870000000  0.4138390000000  0.4694910000000 1.0
C      1  0.5850580000000  0.4705480000000  0.4636670000000 1.0
C      1  0.5233480000000  0.4795190000000  0.4421150000000 1.0
C      1  0.4499530000000  0.5555340000000  0.4603370000000 1.0
C      1  0.5971750000000  0.4770770000000  0.6110620000000 1.0
C      1  0.4871490000000  0.3940500000000  0.5293750000000 1.0
C      1  0.4572600000000  0.4615450000000  0.5348250000000 1.0
C      1  0.4916170000000  0.4499830000000  0.4607890000000 1.0
C      1  0.4304230000000  0.5526250000000  0.5123370000000 1.0
C      1  0.4845960000000  0.5480280000000  0.5168320000000 1.0
C      1  0.5646430000000  0.6096210000000  0.4704780000000 1.0
C      1  0.4185640000000  0.5392320000000  0.5986290000000 1.0
C      1  0.5387870000000  0.5483900000000  0.4079530000000 1.0
C      1  0.5415010000000  0.4611180000000  0.4538480000000 1.0
C      1  0.4453960000000  0.4434960000000  0.5579590000000 1.0
C      1  0.5478920000000  0.4161930000000  0.5392760000000 1.0
C      1  0.5083950000000  0.4354630000000  0.4783650000000 1.0
C      1  0.5678650000000  0.5303400000000  0.4978610000000 1.0
C      1  0.5389640000000  0.3342140000000  0.5141580000000 1.0
C      1  0.4370680000000  0.5677790000000  0.4104310000000 1.0
C      1  0.4168190000000  0.5220190000000  0.4303280000000 1.0
C      1  0.5884500000000  0.5970130000000  0.4698380000000 1.0
C      1  0.5092550000000  0.5363610000000  0.5112100000000 1.0
C      1  0.5558750000000  0.4672720000000  0.4016820000000 1.0
C      1  0.4887870000000  0.4913280000000  0.3795120000000 1.0
C      1  0.5814160000000  0.5267790000000  0.5808040000000 1.0
C      1  0.5326580000000  0.4712030000000  0.3836860000000 1.0
END
