TITL C-3866674-3872-531 -7.76531367194534e-05 125000 -509.139563652158 0 0 84 (C1) n - 1
REM
REM in /home/nfs/bkarasulu/CARBON/AIRSS/Generating-Clusters/LCBOP/Only-C1/SD-CG/FIRE-CG
REM
REM
REM
REM
REM
REM ./C.cell (11c1c37f851c82e70ff6c80c92926a4b)
REM AIRSS Version 0.9.1 bugfix July 2018 build 013d7b7c2542+ Fri, 06 Jul 2018 19:26:36 +0100
REM compiler GCC version 9.2.1 20190827 (Red Hat 9.2.1-1)
REM options -cpp -mtune=generic -march=x86-64 -g -O0 -fpre-include=/usr/include/finclude/math-vector-fortran.h
REM seed -770423578 -200208972 189471172 1916431683 -1973978204 -1360314703 -1648161036 -1521376047 1672634077 1288582666 885997693 107584535 -201719021 -565822967 -1739577092 600217087 -1672496680 -1652997758 -762667571 -442148960 -836167230 -1973602426 305696478 -820647955 -1351277876 1218682675 -924092236 -590452080 -2113276169 -1893874251 -1150092383 1290982747 -461750530
REM
CELL 1.54180   50.00000   50.00000   50.00000   90.00000   90.00000   90.00000
LATT -1
SFAC C  
C      1  0.5091870000000  0.6034380000000  0.4732640000000 1.0
C      1  0.4879280000000  0.5073690000000  0.5539800000000 1.0
C      1  0.5649200000000  0.5686590000000  0.5038520000000 1.0
C      1  0.6048380000000  0.5362090000000  0.4977360000000 1.0
C      1  0.4192530000000  0.4522830000000  0.5345060000000 1.0
C      1  0.4186660000000  0.5457970000000  0.4985400000000 1.0
C      1  0.3847350000000  0.4967020000000  0.5070380000000 1.0
C      1  0.4943030000000  0.5603640000000  0.5753090000000 1.0
C      1  0.4411710000000  0.5314170000000  0.4515920000000 1.0
C      1  0.5537050000000  0.5421260000000  0.4990090000000 1.0
C      1  0.5937340000000  0.5624080000000  0.5003830000000 1.0
C      1  0.4557800000000  0.4562960000000  0.5649990000000 1.0
C      1  0.4160440000000  0.4423230000000  0.5074590000000 1.0
C      1  0.5664510000000  0.5237150000000  0.5159760000000 1.0
C      1  0.4838270000000  0.5275060000000  0.4331560000000 1.0
C      1  0.4455170000000  0.4529990000000  0.4656180000000 1.0
C      1  0.4540700000000  0.5587200000000  0.5250430000000 1.0
C      1  0.4854250000000  0.4595770000000  0.3997310000000 1.0
C      1  0.5413610000000  0.4673590000000  0.4911080000000 1.0
C      1  0.4087280000000  0.5048710000000  0.5196790000000 1.0
C      1  0.5864210000000  0.4907590000000  0.4390330000000 1.0
C      1  0.4205950000000  0.5199110000000  0.5410040000000 1.0
C      1  0.5428230000000  0.3831210000000  0.4241050000000 1.0
C      1  0.4699230000000  0.5027050000000  0.4276960000000 1.0
C      1  0.5602370000000  0.3825850000000  0.4441440000000 1.0
C      1  0.4322140000000  0.4943570000000  0.5045260000000 1.0
C      1  0.4370600000000  0.4799220000000  0.4588400000000 1.0
C      1  0.4929260000000  0.4884250000000  0.5963080000000 1.0
C      1  0.5218930000000  0.5018840000000  0.4535440000000 1.0
C      1  0.4578570000000  0.4899810000000  0.5172130000000 1.0
C      1  0.5687960000000  0.5277010000000  0.5434630000000 1.0
C      1  0.4741940000000  0.5713280000000  0.4553450000000 1.0
C      1  0.4462990000000  0.5026730000000  0.4444060000000 1.0
C      1  0.4373310000000  0.4388690000000  0.4880020000000 1.0
C      1  0.4828910000000  0.5391070000000  0.5880710000000 1.0
C      1  0.5084560000000  0.4124520000000  0.3981270000000 1.0
C      1  0.5796010000000  0.4782310000000  0.4613450000000 1.0
C      1  0.4314100000000  0.4683580000000  0.5556170000000 1.0
C      1  0.5146680000000  0.4847370000000  0.5223450000000 1.0
C      1  0.5812610000000  0.4129550000000  0.4803890000000 1.0
C      1  0.4894950000000  0.5957700000000  0.4555410000000 1.0
C      1  0.5189790000000  0.5619210000000  0.5611110000000 1.0
C      1  0.5514370000000  0.5224760000000  0.5644160000000 1.0
C      1  0.5058620000000  0.4522340000000  0.5608910000000 1.0
C      1  0.4637690000000  0.5483470000000  0.4411210000000 1.0
C      1  0.5295480000000  0.4606170000000  0.5175240000000 1.0
C      1  0.5043560000000  0.4651220000000  0.5870760000000 1.0
C      1  0.5739220000000  0.3931230000000  0.4643210000000 1.0
C      1  0.4776320000000  0.4825490000000  0.4104190000000 1.0
C      1  0.5850790000000  0.4829530000000  0.5104710000000 1.0
C      1  0.4953300000000  0.4353500000000  0.3954380000000 1.0
C      1  0.4791020000000  0.4531370000000  0.5478960000000 1.0
C      1  0.5325820000000  0.4521230000000  0.5456610000000 1.0
C      1  0.5400540000000  0.5831830000000  0.5141800000000 1.0
C      1  0.5258850000000  0.5995590000000  0.4945210000000 1.0
C      1  0.5082740000000  0.5443400000000  0.4714410000000 1.0
C      1  0.5108590000000  0.5440570000000  0.5162150000000 1.0
C      1  0.5389140000000  0.5458280000000  0.5736420000000 1.0
C      1  0.4842310000000  0.5115410000000  0.5816840000000 1.0
C      1  0.4706860000000  0.5639080000000  0.5041990000000 1.0
C      1  0.5217870000000  0.5659530000000  0.5324210000000 1.0
C      1  0.5901250000000  0.5115570000000  0.5050490000000 1.0
C      1  0.4192440000000  0.4864050000000  0.4796760000000 1.0
C      1  0.5536420000000  0.4721490000000  0.5546890000000 1.0
C      1  0.5720390000000  0.4664870000000  0.4876910000000 1.0
C      1  0.3915410000000  0.4778120000000  0.4860950000000 1.0
C      1  0.4244760000000  0.5406880000000  0.4725810000000 1.0
C      1  0.5922990000000  0.5043330000000  0.4175690000000 1.0
C      1  0.4296500000000  0.5440900000000  0.5258330000000 1.0
C      1  0.4932520000000  0.5218290000000  0.5114610000000 1.0
C      1  0.4733440000000  0.5115230000000  0.5292380000000 1.0
C      1  0.5243150000000  0.4883210000000  0.4780960000000 1.0
C      1  0.5391800000000  0.4970190000000  0.5615490000000 1.0
C      1  0.4840340000000  0.5586700000000  0.4797360000000 1.0
C      1  0.5074020000000  0.5261070000000  0.4493860000000 1.0
C      1  0.4273790000000  0.4976880000000  0.5594000000000 1.0
C      1  0.5076050000000  0.4994620000000  0.4992920000000 1.0
C      1  0.4708010000000  0.4643510000000  0.5223250000000 1.0
C      1  0.5247330000000  0.3939480000000  0.4079730000000 1.0
C      1  0.5271470000000  0.5426500000000  0.4920200000000 1.0
C      1  0.5139760000000  0.4972970000000  0.5477230000000 1.0
C      1  0.5769420000000  0.4745930000000  0.5373900000000 1.0
C      1  0.5810100000000  0.4380770000000  0.4889540000000 1.0
C      1  0.3915840000000  0.4506520000000  0.4945840000000 1.0
END
