TITL C-3866675-3766-695 0.00271066063609554 125000 -1093.34505844824 0 0 180 (C1) n - 1
REM
REM in /home/nfs/bkarasulu/CARBON/AIRSS/Generating-Clusters/LCBOP/Only-C1/SD-CG/FIRE-CG
REM
REM
REM
REM
REM
REM ./C.cell (11c1c37f851c82e70ff6c80c92926a4b)
REM AIRSS Version 0.9.1 bugfix July 2018 build 013d7b7c2542+ Fri, 06 Jul 2018 19:26:36 +0100
REM compiler GCC version 9.2.1 20190827 (Red Hat 9.2.1-1)
REM options -cpp -mtune=generic -march=x86-64 -g -O0 -fpre-include=/usr/include/finclude/math-vector-fortran.h
REM seed 1829392598 -1904447836 1701164397 1941833033 -48055925 -145149280 -350499441 1327413789 823923459 -1767229137 -1100897237 1021796259 936312548 -1456525980 -936577794 1555749650 -1912323274 1507995242 -27428163 2055730529 967391311 -499527627 -26618486 -1058394784 1508727547 -1190812947 522057242 20250754 -370911550 1140184595 -605844651 -344408797 -34357901
REM
CELL 1.54180   50.00000   50.00000   50.00000   90.00000   90.00000   90.00000
LATT -1
SFAC C  
C      1  0.4134190000000  0.4277040000000  0.5907100000000 1.0
C      1  0.4898420000000  0.6162850000000  0.4583780000000 1.0
C      1  0.6101500000000  0.4580960000000  0.4346230000000 1.0
C      1  0.5813920000000  0.5915350000000  0.4521660000000 1.0
C      1  0.4969260000000  0.5132920000000  0.5312140000000 1.0
C      1  0.4988940000000  0.4632420000000  0.4299640000000 1.0
C      1  0.5883120000000  0.4462800000000  0.5528200000000 1.0
C      1  0.4910290000000  0.4641120000000  0.5841790000000 1.0
C      1  0.5474790000000  0.4735020000000  0.4114750000000 1.0
C      1  0.4652830000000  0.6042770000000  0.4509130000000 1.0
C      1  0.6115760000000  0.5199660000000  0.4955100000000 1.0
C      1  0.5696010000000  0.5381250000000  0.4807160000000 1.0
C      1  0.5034710000000  0.3939020000000  0.4297400000000 1.0
C      1  0.5430710000000  0.5035980000000  0.4596160000000 1.0
C      1  0.5930850000000  0.5327950000000  0.4196930000000 1.0
C      1  0.5726390000000  0.4879370000000  0.4103790000000 1.0
C      1  0.4910000000000  0.5561550000000  0.5939920000000 1.0
C      1  0.4447380000000  0.5375980000000  0.4545920000000 1.0
C      1  0.4932040000000  0.4922160000000  0.5796560000000 1.0
C      1  0.4545850000000  0.6099640000000  0.4987230000000 1.0
C      1  0.5793390000000  0.5394700000000  0.5840220000000 1.0
C      1  0.4577750000000  0.5181810000000  0.3971530000000 1.0
C      1  0.4977210000000  0.4770220000000  0.3845710000000 1.0
C      1  0.4994810000000  0.4372030000000  0.5049970000000 1.0
C      1  0.5082400000000  0.6254270000000  0.4755170000000 1.0
C      1  0.5220000000000  0.4515360000000  0.5412690000000 1.0
C      1  0.5289600000000  0.4860340000000  0.5099160000000 1.0
C      1  0.5543980000000  0.4258720000000  0.4212780000000 1.0
C      1  0.4372170000000  0.6421420000000  0.5560490000000 1.0
C      1  0.3724300000000  0.5143630000000  0.5695950000000 1.0
C      1  0.4594200000000  0.5738180000000  0.4063080000000 1.0
C      1  0.5711500000000  0.4662880000000  0.5781840000000 1.0
C      1  0.5219710000000  0.4841960000000  0.4655690000000 1.0
C      1  0.4994980000000  0.5090400000000  0.6018750000000 1.0
C      1  0.4605560000000  0.4576690000000  0.4882960000000 1.0
C      1  0.5030100000000  0.4229340000000  0.3864540000000 1.0
C      1  0.5587050000000  0.3790710000000  0.5331880000000 1.0
C      1  0.5922690000000  0.4994470000000  0.4497410000000 1.0
C      1  0.5614150000000  0.4186490000000  0.5760820000000 1.0
C      1  0.4765050000000  0.3826280000000  0.5008240000000 1.0
C      1  0.5350060000000  0.5756280000000  0.5844770000000 1.0
C      1  0.6033160000000  0.5674590000000  0.4897220000000 1.0
C      1  0.4068990000000  0.5010570000000  0.5081390000000 1.0
C      1  0.4097320000000  0.4410580000000  0.5436590000000 1.0
C      1  0.5523310000000  0.4060440000000  0.4434030000000 1.0
C      1  0.5578600000000  0.5580420000000  0.5887610000000 1.0
C      1  0.5515740000000  0.5283590000000  0.3924620000000 1.0
C      1  0.5031610000000  0.5507220000000  0.4830690000000 1.0
C      1  0.4846120000000  0.5033830000000  0.3945330000000 1.0
C      1  0.4202420000000  0.5883180000000  0.4669550000000 1.0
C      1  0.4795360000000  0.4145260000000  0.5698660000000 1.0
C      1  0.4416940000000  0.4816040000000  0.4256920000000 1.0
C      1  0.5929350000000  0.5672010000000  0.5174590000000 1.0
C      1  0.5234840000000  0.6261170000000  0.5253450000000 1.0
C      1  0.5992410000000  0.5893710000000  0.4722570000000 1.0
C      1  0.4601390000000  0.5457090000000  0.4090340000000 1.0
C      1  0.5414830000000  0.4655890000000  0.5256900000000 1.0
C      1  0.3898440000000  0.4850810000000  0.5196730000000 1.0
C      1  0.5487440000000  0.4856200000000  0.5685510000000 1.0
C      1  0.4496010000000  0.4800750000000  0.4755600000000 1.0
C      1  0.4457160000000  0.6014260000000  0.4723480000000 1.0
C      1  0.5133210000000  0.5947980000000  0.6515530000000 1.0
C      1  0.4358810000000  0.5064580000000  0.6090790000000 1.0
C      1  0.5202730000000  0.6301780000000  0.4989490000000 1.0
C      1  0.4594490000000  0.5051360000000  0.4878680000000 1.0
C      1  0.5056430000000  0.4845860000000  0.4906870000000 1.0
C      1  0.4928960000000  0.5300950000000  0.4366050000000 1.0
C      1  0.5992770000000  0.5398980000000  0.4756800000000 1.0
C      1  0.4750560000000  0.4475040000000  0.4292610000000 1.0
C      1  0.4808660000000  0.5628010000000  0.5689210000000 1.0
C      1  0.5355900000000  0.3659250000000  0.5349060000000 1.0
C      1  0.5167160000000  0.4477060000000  0.3875830000000 1.0
C      1  0.4228220000000  0.5724630000000  0.5359680000000 1.0
C      1  0.5445090000000  0.5744090000000  0.5380260000000 1.0
C      1  0.5360910000000  0.5306110000000  0.4520380000000 1.0
C      1  0.3859980000000  0.4635060000000  0.4642900000000 1.0
C      1  0.4855620000000  0.3808410000000  0.5278310000000 1.0
C      1  0.5754620000000  0.4073800000000  0.4976580000000 1.0
C      1  0.3701160000000  0.4444230000000  0.4722180000000 1.0
C      1  0.4821820000000  0.5314990000000  0.6051450000000 1.0
C      1  0.3593750000000  0.5361520000000  0.5637280000000 1.0
C      1  0.4406940000000  0.5500080000000  0.5324170000000 1.0
C      1  0.5717730000000  0.4680700000000  0.4773950000000 1.0
C      1  0.4176190000000  0.4102500000000  0.4325110000000 1.0
C      1  0.4768920000000  0.3968990000000  0.5496290000000 1.0
C      1  0.5591690000000  0.4423620000000  0.5925710000000 1.0
C      1  0.5724040000000  0.4033570000000  0.5271580000000 1.0
C      1  0.4238130000000  0.4389230000000  0.5207120000000 1.0
C      1  0.4132690000000  0.5212840000000  0.4237640000000 1.0
C      1  0.3878450000000  0.4932160000000  0.5738150000000 1.0
C      1  0.5464600000000  0.5335780000000  0.4944310000000 1.0
C      1  0.4634420000000  0.6129400000000  0.5261540000000 1.0
C      1  0.5845540000000  0.5137530000000  0.5956730000000 1.0
C      1  0.5504410000000  0.5522520000000  0.4408580000000 1.0
C      1  0.5954740000000  0.5451110000000  0.5615450000000 1.0
C      1  0.4071260000000  0.5813500000000  0.5145700000000 1.0
C      1  0.4672980000000  0.4231760000000  0.4431980000000 1.0
C      1  0.5316560000000  0.5895090000000  0.5586920000000 1.0
C      1  0.5944900000000  0.4804130000000  0.4281170000000 1.0
C      1  0.6003410000000  0.5272360000000  0.4472920000000 1.0
C      1  0.4429570000000  0.6175360000000  0.5459170000000 1.0
C      1  0.4070870000000  0.4747210000000  0.5819800000000 1.0
C      1  0.3828650000000  0.5615850000000  0.4801380000000 1.0
C      1  0.5321190000000  0.4006810000000  0.4855090000000 1.0
C      1  0.4552980000000  0.5248660000000  0.6107640000000 1.0
C      1  0.4217980000000  0.4292250000000  0.3883660000000 1.0
C      1  0.5692890000000  0.5807080000000  0.5257840000000 1.0
C      1  0.5762860000000  0.4203410000000  0.5510760000000 1.0
C      1  0.4617170000000  0.5937750000000  0.4246580000000 1.0
C      1  0.4807580000000  0.5721160000000  0.5428150000000 1.0
C      1  0.5698180000000  0.4743760000000  0.5246140000000 1.0
C      1  0.5260090000000  0.5523800000000  0.4996540000000 1.0
C      1  0.5725850000000  0.5027320000000  0.5214290000000 1.0
C      1  0.4240370000000  0.4813430000000  0.6047150000000 1.0
C      1  0.5444860000000  0.5117130000000  0.5140520000000 1.0
C      1  0.5580790000000  0.4043180000000  0.4733300000000 1.0
C      1  0.4550560000000  0.5016230000000  0.5514800000000 1.0
C      1  0.4950820000000  0.4455140000000  0.5323110000000 1.0
C      1  0.5880060000000  0.4866620000000  0.5927460000000 1.0
C      1  0.5627360000000  0.5760240000000  0.4407380000000 1.0
C      1  0.6117340000000  0.4528850000000  0.5092050000000 1.0
C      1  0.4132940000000  0.5214690000000  0.4900640000000 1.0
C      1  0.4528150000000  0.4735270000000  0.5499470000000 1.0
C      1  0.3943790000000  0.5038190000000  0.4365150000000 1.0
C      1  0.4668320000000  0.4535050000000  0.5353230000000 1.0
C      1  0.5139000000000  0.4151400000000  0.4979030000000 1.0
C      1  0.5130260000000  0.6080980000000  0.5446990000000 1.0
C      1  0.5132030000000  0.5840480000000  0.6278140000000 1.0
C      1  0.3908550000000  0.5359790000000  0.4810490000000 1.0
C      1  0.5211210000000  0.4781580000000  0.4229120000000 1.0
C      1  0.5377040000000  0.5092130000000  0.5607240000000 1.0
C      1  0.4666110000000  0.5388470000000  0.4369220000000 1.0
C      1  0.4082150000000  0.4476810000000  0.5710560000000 1.0
C      1  0.5195830000000  0.5037430000000  0.6195670000000 1.0
C      1  0.5742620000000  0.5166600000000  0.4040530000000 1.0
C      1  0.5254720000000  0.5302500000000  0.3975880000000 1.0
C      1  0.6198270000000  0.4477480000000  0.4575810000000 1.0
C      1  0.5130410000000  0.5720790000000  0.6026620000000 1.0
C      1  0.4396340000000  0.5240940000000  0.5441610000000 1.0
C      1  0.4295200000000  0.5936980000000  0.5536320000000 1.0
C      1  0.5090580000000  0.3658790000000  0.5324330000000 1.0
C      1  0.4295350000000  0.4592820000000  0.6218320000000 1.0
C      1  0.4864230000000  0.5993290000000  0.5376930000000 1.0
C      1  0.5927480000000  0.4589470000000  0.5289260000000 1.0
C      1  0.4241140000000  0.4335740000000  0.6149760000000 1.0
C      1  0.5538610000000  0.4490380000000  0.4718600000000 1.0
C      1  0.5280750000000  0.5535230000000  0.5286060000000 1.0
C      1  0.5435590000000  0.4460100000000  0.4024460000000 1.0
C      1  0.6205310000000  0.4475180000000  0.4844280000000 1.0
C      1  0.4099030000000  0.4136960000000  0.4069360000000 1.0
C      1  0.5261310000000  0.5239720000000  0.5367910000000 1.0
C      1  0.4154510000000  0.5723670000000  0.4431320000000 1.0
C      1  0.4842790000000  0.4010460000000  0.4497780000000 1.0
C      1  0.5959420000000  0.5190660000000  0.5196270000000 1.0
C      1  0.5698330000000  0.4934650000000  0.4654730000000 1.0
C      1  0.4418000000000  0.4469010000000  0.3917180000000 1.0
C      1  0.4496210000000  0.4467040000000  0.5124330000000 1.0
C      1  0.4666720000000  0.5579400000000  0.5225360000000 1.0
C      1  0.5977510000000  0.5437890000000  0.5338200000000 1.0
C      1  0.5025790000000  0.5206520000000  0.4106810000000 1.0
C      1  0.5482940000000  0.4432430000000  0.6174710000000 1.0
C      1  0.6356300000000  0.5078750000000  0.4917290000000 1.0
C      1  0.4788180000000  0.5556760000000  0.4969230000000 1.0
C      1  0.4832880000000  0.5051240000000  0.5554480000000 1.0
C      1  0.5089930000000  0.5375390000000  0.4579270000000 1.0
C      1  0.4987590000000  0.4020920000000  0.4029650000000 1.0
C      1  0.5301060000000  0.4567730000000  0.4618800000000 1.0
C      1  0.4403680000000  0.5251970000000  0.4799350000000 1.0
C      1  0.4354570000000  0.5057120000000  0.4111910000000 1.0
C      1  0.4855210000000  0.5045690000000  0.5033990000000 1.0
C      1  0.4792300000000  0.3874200000000  0.4743440000000 1.0
C      1  0.4319110000000  0.4794150000000  0.4527960000000 1.0
C      1  0.4539360000000  0.4593040000000  0.4138140000000 1.0
C      1  0.4893670000000  0.4579050000000  0.4888100000000 1.0
C      1  0.4853220000000  0.4378210000000  0.5822100000000 1.0
C      1  0.4210670000000  0.5447590000000  0.4392470000000 1.0
C      1  0.5302660000000  0.3884130000000  0.4367010000000 1.0
C      1  0.4031900000000  0.4821620000000  0.4530770000000 1.0
C      1  0.4011250000000  0.5819470000000  0.4874560000000 1.0
C      1  0.4396400000000  0.4174660000000  0.4460040000000 1.0
END
