TITL C-3866671-3735-530 0.0938871325289029 125000 -955.495912143623 0 0 157 (C1) n - 1
REM
REM in /home/nfs/bkarasulu/CARBON/AIRSS/Generating-Clusters/LCBOP/Only-C1/SD-CG/FIRE-CG
REM
REM
REM
REM
REM
REM ./C.cell (11c1c37f851c82e70ff6c80c92926a4b)
REM AIRSS Version 0.9.1 bugfix July 2018 build 013d7b7c2542+ Fri, 06 Jul 2018 19:26:36 +0100
REM compiler GCC version 9.2.1 20190827 (Red Hat 9.2.1-1)
REM options -cpp -mtune=generic -march=x86-64 -g -O0 -fpre-include=/usr/include/finclude/math-vector-fortran.h
REM seed 1857833133 -299616888 2071593517 -187540448 2059868628 -686366269 1517976183 643026902 1814777197 -450941616 50417346 1079284759 -1010365590 -464230248 -1760091681 -40437195 1368929106 207708707 -1893846541 -888372898 647740756 -995232027 802321243 1955057682 1324135862 -461514730 1328266472 2091142430 -34584583 -1768079006 -1940701619 -1797460967 -1724429338
REM
CELL 1.54180   50.00000   50.00000   50.00000   90.00000   90.00000   90.00000
LATT -1
SFAC C  
C      1  0.5488280000000  0.5944090000000  0.5019220000000 1.0
C      1  0.3973030000000  0.5228930000000  0.4859750000000 1.0
C      1  0.4492910000000  0.5103410000000  0.6099580000000 1.0
C      1  0.5296530000000  0.4275100000000  0.5136310000000 1.0
C      1  0.5131840000000  0.5354030000000  0.3610720000000 1.0
C      1  0.4463750000000  0.5391140000000  0.6039790000000 1.0
C      1  0.5140910000000  0.5843120000000  0.5938140000000 1.0
C      1  0.4888570000000  0.5806960000000  0.5419940000000 1.0
C      1  0.4471550000000  0.4751250000000  0.5187970000000 1.0
C      1  0.4469130000000  0.5127690000000  0.3995610000000 1.0
C      1  0.4372740000000  0.4522020000000  0.5034270000000 1.0
C      1  0.5258840000000  0.5455180000000  0.4401500000000 1.0
C      1  0.4440710000000  0.4949990000000  0.4526890000000 1.0
C      1  0.5167380000000  0.5150160000000  0.5125270000000 1.0
C      1  0.4409520000000  0.5275880000000  0.3762360000000 1.0
C      1  0.3903150000000  0.5205700000000  0.5633750000000 1.0
C      1  0.5466870000000  0.4552500000000  0.4432780000000 1.0
C      1  0.5448350000000  0.4447860000000  0.4960410000000 1.0
C      1  0.4464320000000  0.5164220000000  0.3511930000000 1.0
C      1  0.4067130000000  0.5473520000000  0.4727000000000 1.0
C      1  0.5539390000000  0.5527280000000  0.4370250000000 1.0
C      1  0.5410300000000  0.4905670000000  0.5781060000000 1.0
C      1  0.5596710000000  0.4329130000000  0.5587540000000 1.0
C      1  0.4307810000000  0.4910550000000  0.4077790000000 1.0
C      1  0.5856580000000  0.4950510000000  0.5866720000000 1.0
C      1  0.4816160000000  0.4257390000000  0.4260110000000 1.0
C      1  0.3749410000000  0.5009350000000  0.4484770000000 1.0
C      1  0.4895950000000  0.5363370000000  0.4094530000000 1.0
C      1  0.3904490000000  0.5066360000000  0.5387790000000 1.0
C      1  0.5008990000000  0.4933700000000  0.5068090000000 1.0
C      1  0.5270190000000  0.5198350000000  0.4524470000000 1.0
C      1  0.4524450000000  0.5057130000000  0.3282080000000 1.0
C      1  0.3977200000000  0.4737660000000  0.4815750000000 1.0
C      1  0.4908550000000  0.5677750000000  0.5924020000000 1.0
C      1  0.6143300000000  0.4046780000000  0.4798450000000 1.0
C      1  0.5004490000000  0.4275800000000  0.5148720000000 1.0
C      1  0.4837230000000  0.5136450000000  0.4671210000000 1.0
C      1  0.4993420000000  0.4137300000000  0.5653090000000 1.0
C      1  0.5206120000000  0.5432430000000  0.5467500000000 1.0
C      1  0.4260640000000  0.5599300000000  0.5588170000000 1.0
C      1  0.5464150000000  0.3764400000000  0.5070770000000 1.0
C      1  0.5153660000000  0.5256180000000  0.6002660000000 1.0
C      1  0.5922500000000  0.4791060000000  0.5633260000000 1.0
C      1  0.5786130000000  0.5189580000000  0.4984100000000 1.0
C      1  0.5167250000000  0.3518570000000  0.4504080000000 1.0
C      1  0.5614840000000  0.5676940000000  0.5516220000000 1.0
C      1  0.6619070000000  0.5704370000000  0.4312790000000 1.0
C      1  0.4343900000000  0.4776340000000  0.4324640000000 1.0
C      1  0.6364810000000  0.5778560000000  0.4322800000000 1.0
C      1  0.4769440000000  0.3951170000000  0.4714220000000 1.0
C      1  0.4669200000000  0.5103280000000  0.4445870000000 1.0
C      1  0.5216800000000  0.3764370000000  0.4630740000000 1.0
C      1  0.4555720000000  0.5967310000000  0.4991500000000 1.0
C      1  0.5560290000000  0.4772220000000  0.4267140000000 1.0
C      1  0.4457530000000  0.5011140000000  0.5070740000000 1.0
C      1  0.4972550000000  0.4335180000000  0.5870750000000 1.0
C      1  0.5702530000000  0.3821490000000  0.4661820000000 1.0
C      1  0.5733160000000  0.6129170000000  0.4206650000000 1.0
C      1  0.5056530000000  0.6020180000000  0.5355460000000 1.0
C      1  0.5651570000000  0.5025510000000  0.4213590000000 1.0
C      1  0.5171470000000  0.4624190000000  0.5375420000000 1.0
C      1  0.5415800000000  0.4961490000000  0.5503130000000 1.0
C      1  0.3885700000000  0.3591970000000  0.4769290000000 1.0
C      1  0.5215120000000  0.4774600000000  0.5948160000000 1.0
C      1  0.4382450000000  0.4995800000000  0.4797430000000 1.0
C      1  0.5665210000000  0.5752290000000  0.4510120000000 1.0
C      1  0.4680590000000  0.4723090000000  0.5392660000000 1.0
C      1  0.5775860000000  0.4734700000000  0.4777080000000 1.0
C      1  0.4156620000000  0.4743090000000  0.5882850000000 1.0
C      1  0.5604430000000  0.4609100000000  0.5162540000000 1.0
C      1  0.5519950000000  0.3895890000000  0.5300490000000 1.0
C      1  0.4676770000000  0.5817540000000  0.5832020000000 1.0
C      1  0.5450690000000  0.5322230000000  0.5930750000000 1.0
C      1  0.6869150000000  0.5631380000000  0.4302950000000 1.0
C      1  0.5441900000000  0.4353320000000  0.5827310000000 1.0
C      1  0.4949900000000  0.4756830000000  0.5273510000000 1.0
C      1  0.5024350000000  0.6130270000000  0.5101030000000 1.0
C      1  0.4840660000000  0.4400350000000  0.4939060000000 1.0
C      1  0.4095270000000  0.5220410000000  0.5837820000000 1.0
C      1  0.5289110000000  0.5995720000000  0.5769990000000 1.0
C      1  0.4531930000000  0.4061750000000  0.4826520000000 1.0
C      1  0.4562170000000  0.4323410000000  0.4937710000000 1.0
C      1  0.5513380000000  0.5885730000000  0.5326550000000 1.0
C      1  0.5956160000000  0.3900510000000  0.4678080000000 1.0
C      1  0.5305770000000  0.6020970000000  0.5486990000000 1.0
C      1  0.4758360000000  0.6144960000000  0.5004310000000 1.0
C      1  0.4538560000000  0.4279130000000  0.4222340000000 1.0
C      1  0.5053130000000  0.4187200000000  0.4397060000000 1.0
C      1  0.4041950000000  0.4663350000000  0.5650820000000 1.0
C      1  0.4317660000000  0.5532730000000  0.4591920000000 1.0
C      1  0.5209620000000  0.4484140000000  0.5926740000000 1.0
C      1  0.4297700000000  0.5524830000000  0.3782110000000 1.0
C      1  0.5471510000000  0.4171190000000  0.5360380000000 1.0
C      1  0.3899270000000  0.4991150000000  0.4713050000000 1.0
C      1  0.4400360000000  0.4503040000000  0.4320340000000 1.0
C      1  0.5024730000000  0.3972540000000  0.4588770000000 1.0
C      1  0.5118610000000  0.3291800000000  0.4385250000000 1.0
C      1  0.4547740000000  0.5643930000000  0.4491570000000 1.0
C      1  0.4497160000000  0.5716730000000  0.5112890000000 1.0
C      1  0.5838480000000  0.5912720000000  0.4348070000000 1.0
C      1  0.5699610000000  0.5006360000000  0.4781620000000 1.0
C      1  0.5619620000000  0.6327870000000  0.4081970000000 1.0
C      1  0.5603560000000  0.5070120000000  0.5916420000000 1.0
C      1  0.4089900000000  0.3751550000000  0.4797500000000 1.0
C      1  0.4950550000000  0.5949850000000  0.4513300000000 1.0
C      1  0.4427460000000  0.5735790000000  0.5404580000000 1.0
C      1  0.4745280000000  0.5325920000000  0.5410770000000 1.0
C      1  0.5454400000000  0.3783130000000  0.4788450000000 1.0
C      1  0.6089390000000  0.4477900000000  0.5058440000000 1.0
C      1  0.5126960000000  0.5383480000000  0.4962990000000 1.0
C      1  0.5280380000000  0.4351940000000  0.4363050000000 1.0
C      1  0.5299270000000  0.5184120000000  0.5375450000000 1.0
C      1  0.4872940000000  0.4237510000000  0.5407520000000 1.0
C      1  0.5948260000000  0.5107240000000  0.5199900000000 1.0
C      1  0.4683650000000  0.5194350000000  0.4174760000000 1.0
C      1  0.4095580000000  0.4521740000000  0.4956540000000 1.0
C      1  0.3941340000000  0.4788010000000  0.5431920000000 1.0
C      1  0.6195840000000  0.4256190000000  0.4954810000000 1.0
C      1  0.4644840000000  0.5851850000000  0.5552840000000 1.0
C      1  0.3934380000000  0.4314110000000  0.5035360000000 1.0
C      1  0.4923860000000  0.4890080000000  0.4803910000000 1.0
C      1  0.4294530000000  0.3917620000000  0.4825100000000 1.0
C      1  0.4757500000000  0.5190160000000  0.5652690000000 1.0
C      1  0.5006570000000  0.5358400000000  0.3839190000000 1.0
C      1  0.4902790000000  0.4612390000000  0.4757530000000 1.0
C      1  0.4625420000000  0.5473000000000  0.5001830000000 1.0
C      1  0.4822590000000  0.5714260000000  0.4427020000000 1.0
C      1  0.4747290000000  0.4942760000000  0.6090590000000 1.0
C      1  0.6110260000000  0.5851010000000  0.4333140000000 1.0
C      1  0.6003200000000  0.4948410000000  0.5409760000000 1.0
C      1  0.4682810000000  0.4914780000000  0.5634710000000 1.0
C      1  0.4580770000000  0.5248250000000  0.5184580000000 1.0
C      1  0.4689250000000  0.4443820000000  0.5518030000000 1.0
C      1  0.5558680000000  0.5531390000000  0.5748500000000 1.0
C      1  0.5377140000000  0.5505590000000  0.4936880000000 1.0
C      1  0.4931870000000  0.5392350000000  0.5880020000000 1.0
C      1  0.4233530000000  0.4998760000000  0.5975970000000 1.0
C      1  0.5048700000000  0.4982860000000  0.6077500000000 1.0
C      1  0.3931920000000  0.5202540000000  0.5141230000000 1.0
C      1  0.5555730000000  0.4546890000000  0.4703610000000 1.0
C      1  0.5238800000000  0.6074590000000  0.4923510000000 1.0
C      1  0.5638310000000  0.5843420000000  0.4787210000000 1.0
C      1  0.5678410000000  0.5297190000000  0.4251800000000 1.0
C      1  0.4950780000000  0.5532470000000  0.5401930000000 1.0
C      1  0.4402570000000  0.4081200000000  0.4091130000000 1.0
C      1  0.5451200000000  0.5060920000000  0.4662520000000 1.0
C      1  0.5862040000000  0.4635190000000  0.5035170000000 1.0
C      1  0.3885860000000  0.5683350000000  0.4730790000000 1.0
C      1  0.4863940000000  0.5381440000000  0.4838900000000 1.0
C      1  0.4695570000000  0.4754700000000  0.5876040000000 1.0
C      1  0.5822100000000  0.4518550000000  0.5593910000000 1.0
C      1  0.5003870000000  0.5530540000000  0.4297570000000 1.0
C      1  0.5434400000000  0.4727690000000  0.5349800000000 1.0
C      1  0.4732700000000  0.4483920000000  0.5810350000000 1.0
C      1  0.5629780000000  0.5423740000000  0.4992310000000 1.0
C      1  0.4265220000000  0.5453730000000  0.5832470000000 1.0
C      1  0.5153090000000  0.6054940000000  0.4654480000000 1.0
END
