TITL C-3866672-3872-531 2.81061099311185e-07 125000 -602.790541929174 0 0 99 (C1) n - 1
REM
REM in /home/nfs/bkarasulu/CARBON/AIRSS/Generating-Clusters/LCBOP/Only-C1/SD-CG/FIRE-CG
REM
REM
REM
REM
REM
REM ./C.cell (11c1c37f851c82e70ff6c80c92926a4b)
REM AIRSS Version 0.9.1 bugfix July 2018 build 013d7b7c2542+ Fri, 06 Jul 2018 19:26:36 +0100
REM compiler GCC version 9.2.1 20190827 (Red Hat 9.2.1-1)
REM options -cpp -mtune=generic -march=x86-64 -g -O0 -fpre-include=/usr/include/finclude/math-vector-fortran.h
REM seed 414240656 1875898861 2027754628 -159672035 -678195027 1007478865 1430836235 1145269849 1797204585 -1618126677 -1616584083 1529514075 730072689 1736342671 334850538 1646273007 -1602107251 -378929367 -636325113 315859245 -1058174569 226674004 -400436430 -2071367159 -121648743 567261410 1652355871 491712349 -1816704632 -1279704995 1479337793 1101409967 1064484002
REM
CELL 1.54180   50.00000   50.00000   50.00000   90.00000   90.00000   90.00000
LATT -1
SFAC C  
C      1  0.5144070000000  0.4651990000000  0.4620680000000 1.0
C      1  0.4967760000000  0.5024310000000  0.4250350000000 1.0
C      1  0.4445930000000  0.5279160000000  0.5713630000000 1.0
C      1  0.4180970000000  0.4760580000000  0.5506480000000 1.0
C      1  0.5717040000000  0.5621920000000  0.5007190000000 1.0
C      1  0.5269010000000  0.5153580000000  0.4705840000000 1.0
C      1  0.4526420000000  0.4765940000000  0.5230030000000 1.0
C      1  0.5692540000000  0.4334130000000  0.4878310000000 1.0
C      1  0.4760590000000  0.4529050000000  0.4863890000000 1.0
C      1  0.5090190000000  0.4158440000000  0.5398430000000 1.0
C      1  0.4621790000000  0.5743180000000  0.4540260000000 1.0
C      1  0.5839080000000  0.5175060000000  0.4638860000000 1.0
C      1  0.5372720000000  0.5593720000000  0.4471770000000 1.0
C      1  0.5640270000000  0.5665860000000  0.4531440000000 1.0
C      1  0.4461690000000  0.5001060000000  0.4836020000000 1.0
C      1  0.4724850000000  0.5382170000000  0.5697630000000 1.0
C      1  0.5278820000000  0.4866010000000  0.4782140000000 1.0
C      1  0.4104100000000  0.5014760000000  0.5373770000000 1.0
C      1  0.5413980000000  0.4696310000000  0.4243200000000 1.0
C      1  0.5639530000000  0.5043140000000  0.5993520000000 1.0
C      1  0.4261020000000  0.5516910000000  0.4826520000000 1.0
C      1  0.5249570000000  0.5478680000000  0.5062010000000 1.0
C      1  0.5419810000000  0.4590220000000  0.5483220000000 1.0
C      1  0.4831260000000  0.4660400000000  0.4586940000000 1.0
C      1  0.4208600000000  0.4848600000000  0.4864330000000 1.0
C      1  0.5459600000000  0.5153130000000  0.4286010000000 1.0
C      1  0.4453750000000  0.4650430000000  0.5479620000000 1.0
C      1  0.4860360000000  0.4296840000000  0.5524040000000 1.0
C      1  0.5236260000000  0.4073760000000  0.4653450000000 1.0
C      1  0.4642480000000  0.4266350000000  0.4880060000000 1.0
C      1  0.5119200000000  0.4628270000000  0.5867520000000 1.0
C      1  0.5376350000000  0.4138810000000  0.5477010000000 1.0
C      1  0.5268020000000  0.5271330000000  0.5752560000000 1.0
C      1  0.5944960000000  0.5160890000000  0.5103440000000 1.0
C      1  0.5088830000000  0.4935290000000  0.5384710000000 1.0
C      1  0.5284330000000  0.4511900000000  0.4414640000000 1.0
C      1  0.4152420000000  0.5175550000000  0.4498330000000 1.0
C      1  0.4183600000000  0.4897590000000  0.4412740000000 1.0
C      1  0.4513230000000  0.5064520000000  0.5131320000000 1.0
C      1  0.5646090000000  0.4199860000000  0.5431960000000 1.0
C      1  0.4331360000000  0.4467920000000  0.4582310000000 1.0
C      1  0.4543380000000  0.5309910000000  0.4180630000000 1.0
C      1  0.4786120000000  0.5203000000000  0.4113910000000 1.0
C      1  0.5437640000000  0.4326060000000  0.5000840000000 1.0
C      1  0.5370970000000  0.4799380000000  0.5048660000000 1.0
C      1  0.5575900000000  0.5065170000000  0.5390660000000 1.0
C      1  0.5848990000000  0.4346150000000  0.5303320000000 1.0
C      1  0.4398730000000  0.5551060000000  0.5075590000000 1.0
C      1  0.4870870000000  0.4717780000000  0.5752450000000 1.0
C      1  0.5890630000000  0.4472020000000  0.5035240000000 1.0
C      1  0.5424440000000  0.5503590000000  0.5646960000000 1.0
C      1  0.5734560000000  0.5761960000000  0.5268080000000 1.0
C      1  0.4398020000000  0.5576930000000  0.4575240000000 1.0
C      1  0.4763020000000  0.5626520000000  0.5561770000000 1.0
C      1  0.5705900000000  0.5237970000000  0.5225650000000 1.0
C      1  0.4816380000000  0.5704860000000  0.5296560000000 1.0
C      1  0.4969220000000  0.5226800000000  0.5732190000000 1.0
C      1  0.4932620000000  0.4901550000000  0.5161790000000 1.0
C      1  0.5342430000000  0.5312830000000  0.4479300000000 1.0
C      1  0.4559950000000  0.4577460000000  0.4422030000000 1.0
C      1  0.4686450000000  0.5113970000000  0.4685000000000 1.0
C      1  0.4397200000000  0.5319790000000  0.5236240000000 1.0
C      1  0.4796250000000  0.5140350000000  0.5110480000000 1.0
C      1  0.5259840000000  0.4951430000000  0.4196870000000 1.0
C      1  0.5717050000000  0.5047240000000  0.4392410000000 1.0
C      1  0.5118850000000  0.5327620000000  0.4864640000000 1.0
C      1  0.5527490000000  0.5419150000000  0.5090610000000 1.0
C      1  0.5942490000000  0.5009160000000  0.4862550000000 1.0
C      1  0.4826220000000  0.4952680000000  0.4499570000000 1.0
C      1  0.4052370000000  0.5048580000000  0.5012960000000 1.0
C      1  0.4698240000000  0.4530800000000  0.5611900000000 1.0
C      1  0.5786640000000  0.5522150000000  0.4729850000000 1.0
C      1  0.5246360000000  0.4132080000000  0.4930200000000 1.0
C      1  0.5396820000000  0.4543730000000  0.5182030000000 1.0
C      1  0.5356530000000  0.4732180000000  0.5737690000000 1.0
C      1  0.5042340000000  0.4080030000000  0.5122480000000 1.0
C      1  0.5691290000000  0.4768780000000  0.4310510000000 1.0
C      1  0.4396190000000  0.4251090000000  0.4747060000000 1.0
C      1  0.4155830000000  0.4694870000000  0.4632130000000 1.0
C      1  0.4273610000000  0.5239010000000  0.5478860000000 1.0
C      1  0.4532540000000  0.6024420000000  0.5057140000000 1.0
C      1  0.5344520000000  0.4966990000000  0.5281970000000 1.0
C      1  0.4344050000000  0.5221070000000  0.5963080000000 1.0
C      1  0.4346620000000  0.5368420000000  0.4379820000000 1.0
C      1  0.4942920000000  0.4963840000000  0.5623680000000 1.0
C      1  0.4779960000000  0.4069920000000  0.5022180000000 1.0
C      1  0.5592190000000  0.5672490000000  0.5499030000000 1.0
C      1  0.4414870000000  0.4786410000000  0.4265130000000 1.0
C      1  0.4851760000000  0.5266640000000  0.4867400000000 1.0
C      1  0.4584820000000  0.5761590000000  0.5135290000000 1.0
C      1  0.5078620000000  0.5660180000000  0.5196970000000 1.0
C      1  0.5142650000000  0.5753560000000  0.4461140000000 1.0
C      1  0.5422910000000  0.5013380000000  0.5823800000000 1.0
C      1  0.4484090000000  0.6269880000000  0.4984260000000 1.0
C      1  0.4771950000000  0.4679190000000  0.5099440000000 1.0
C      1  0.5279670000000  0.4232220000000  0.4438330000000 1.0
C      1  0.5969420000000  0.4725030000000  0.4919070000000 1.0
C      1  0.4880120000000  0.5795100000000  0.4493210000000 1.0
C      1  0.4076060000000  0.5276360000000  0.4797970000000 1.0
END
