TITL C-3866669-3764-313 -0.106666603202839 125000 -544.065679697335 0 0 90 (C1) n - 1
REM
REM in /home/nfs/bkarasulu/CARBON/AIRSS/Generating-Clusters/LCBOP/Only-C1/SD-CG/FIRE-CG
REM
REM
REM
REM
REM
REM ./C.cell (11c1c37f851c82e70ff6c80c92926a4b)
REM AIRSS Version 0.9.1 bugfix July 2018 build 013d7b7c2542+ Fri, 06 Jul 2018 19:26:36 +0100
REM compiler GCC version 9.2.1 20190827 (Red Hat 9.2.1-1)
REM options -cpp -mtune=generic -march=x86-64 -g -O0 -fpre-include=/usr/include/finclude/math-vector-fortran.h
REM seed -1342084182 1992653956 -374371505 -989472331 -2099168021 -1304155921 -43108838 -1599858400 1034508808 -736481980 -585962031 -795966698 -1450018292 -1162356600 -1829310896 -1984969194 -485893634 129628070 -1323187605 -320841692 1959389103 850199726 -1565781634 -985406263 -800301635 551824299 1842516340 2136916810 308232592 869837928 475477823 823014418 349495087
REM
CELL 1.54180   50.00000   50.00000   50.00000   90.00000   90.00000   90.00000
LATT -1
SFAC C  
C      1  0.4748040000000  0.3384500000000  0.5118180000000 1.0
C      1  0.4744810000000  0.5933900000000  0.4931270000000 1.0
C      1  0.4497210000000  0.4824590000000  0.4670360000000 1.0
C      1  0.5548580000000  0.5145100000000  0.5232980000000 1.0
C      1  0.3662380000000  0.3905930000000  0.4471400000000 1.0
C      1  0.5220070000000  0.5005360000000  0.5991300000000 1.0
C      1  0.5596220000000  0.5999750000000  0.4896030000000 1.0
C      1  0.5736560000000  0.4409840000000  0.4928160000000 1.0
C      1  0.5619840000000  0.5367110000000  0.5071480000000 1.0
C      1  0.4505090000000  0.5472420000000  0.5465800000000 1.0
C      1  0.5975880000000  0.5605130000000  0.5312230000000 1.0
C      1  0.3087170000000  0.3380310000000  0.4313370000000 1.0
C      1  0.4885330000000  0.4732580000000  0.4862250000000 1.0
C      1  0.5031500000000  0.4885360000000  0.5822030000000 1.0
C      1  0.5036880000000  0.3985990000000  0.5492660000000 1.0
C      1  0.4359920000000  0.5281040000000  0.5318610000000 1.0
C      1  0.5133140000000  0.5745480000000  0.5597240000000 1.0
C      1  0.5681150000000  0.5163160000000  0.6044850000000 1.0
C      1  0.5550010000000  0.5334770000000  0.4798050000000 1.0
C      1  0.5326470000000  0.4761890000000  0.5462760000000 1.0
C      1  0.5602760000000  0.4631510000000  0.4843950000000 1.0
C      1  0.5762080000000  0.5898580000000  0.4403560000000 1.0
C      1  0.4629530000000  0.3867070000000  0.4934390000000 1.0
C      1  0.4422070000000  0.4547850000000  0.5340890000000 1.0
C      1  0.4838470000000  0.5250920000000  0.4657610000000 1.0
C      1  0.4769060000000  0.5287630000000  0.5804900000000 1.0
C      1  0.5389410000000  0.5393350000000  0.3940760000000 1.0
C      1  0.4273370000000  0.4773740000000  0.5281530000000 1.0
C      1  0.4574460000000  0.4113100000000  0.4853290000000 1.0
C      1  0.5848410000000  0.4982380000000  0.4616160000000 1.0
C      1  0.3854110000000  0.4081110000000  0.4524070000000 1.0
C      1  0.5777570000000  0.5251910000000  0.4642290000000 1.0
C      1  0.6057820000000  0.5370100000000  0.5765460000000 1.0
C      1  0.5795260000000  0.5783850000000  0.4875750000000 1.0
C      1  0.6072530000000  0.5514790000000  0.5542800000000 1.0
C      1  0.5324980000000  0.5479410000000  0.6000520000000 1.0
C      1  0.4965340000000  0.4235730000000  0.5513110000000 1.0
C      1  0.4685390000000  0.3623110000000  0.5021420000000 1.0
C      1  0.3470660000000  0.3730740000000  0.4418730000000 1.0
C      1  0.4995010000000  0.5538780000000  0.5456990000000 1.0
C      1  0.5292290000000  0.5454710000000  0.4680460000000 1.0
C      1  0.5108870000000  0.4694170000000  0.5625210000000 1.0
C      1  0.5463080000000  0.6073330000000  0.5128780000000 1.0
C      1  0.4250960000000  0.4717120000000  0.4577310000000 1.0
C      1  0.5439230000000  0.6059240000000  0.4664640000000 1.0
C      1  0.5611410000000  0.5310430000000  0.3795750000000 1.0
C      1  0.5662900000000  0.4771940000000  0.4601130000000 1.0
C      1  0.5770510000000  0.5436780000000  0.4214200000000 1.0
C      1  0.5799600000000  0.5592090000000  0.5096730000000 1.0
C      1  0.5405540000000  0.5211890000000  0.6032970000000 1.0
C      1  0.4813020000000  0.3147790000000  0.5218200000000 1.0
C      1  0.4603200000000  0.4896390000000  0.5578900000000 1.0
C      1  0.5135930000000  0.5988300000000  0.5459350000000 1.0
C      1  0.4649450000000  0.4612830000000  0.5504780000000 1.0
C      1  0.4812920000000  0.5496050000000  0.4791270000000 1.0
C      1  0.5918400000000  0.5232050000000  0.5945230000000 1.0
C      1  0.5028810000000  0.5884750000000  0.4984950000000 1.0
C      1  0.2898560000000  0.3207960000000  0.4261550000000 1.0
C      1  0.4780510000000  0.5010750000000  0.5770310000000 1.0
C      1  0.5087050000000  0.5463730000000  0.5196660000000 1.0
C      1  0.5252290000000  0.5679690000000  0.5840390000000 1.0
C      1  0.5879530000000  0.5455560000000  0.4477830000000 1.0
C      1  0.4907820000000  0.4505800000000  0.5545850000000 1.0
C      1  0.4265230000000  0.5384210000000  0.5073560000000 1.0
C      1  0.4499690000000  0.4365540000000  0.4768920000000 1.0
C      1  0.5473380000000  0.5896540000000  0.4438910000000 1.0
C      1  0.3278940000000  0.3555550000000  0.4366060000000 1.0
C      1  0.5114290000000  0.5211050000000  0.4585140000000 1.0
C      1  0.5211260000000  0.4946410000000  0.4585430000000 1.0
C      1  0.5427790000000  0.4886450000000  0.5233500000000 1.0
C      1  0.4755930000000  0.5459210000000  0.5583790000000 1.0
C      1  0.4388680000000  0.5011310000000  0.5402170000000 1.0
C      1  0.5149740000000  0.4800370000000  0.4827190000000 1.0
C      1  0.4051340000000  0.4855480000000  0.4456290000000 1.0
C      1  0.5839700000000  0.5336140000000  0.3951970000000 1.0
C      1  0.5193280000000  0.6016180000000  0.5185400000000 1.0
C      1  0.4046230000000  0.4255530000000  0.4577100000000 1.0
C      1  0.4624170000000  0.6177150000000  0.4948830000000 1.0
C      1  0.5382310000000  0.4749170000000  0.4986780000000 1.0
C      1  0.4877150000000  0.2915160000000  0.5316870000000 1.0
C      1  0.5469690000000  0.5481730000000  0.4204370000000 1.0
C      1  0.4250310000000  0.4432870000000  0.4636270000000 1.0
C      1  0.5093370000000  0.5585260000000  0.4911600000000 1.0
C      1  0.4613700000000  0.5687900000000  0.4855000000000 1.0
C      1  0.5431040000000  0.4836600000000  0.4446430000000 1.0
C      1  0.4674070000000  0.5032600000000  0.4689990000000 1.0
C      1  0.4652670000000  0.4603810000000  0.4795150000000 1.0
C      1  0.5362470000000  0.5628670000000  0.4426990000000 1.0
C      1  0.5886590000000  0.5721900000000  0.4596390000000 1.0
C      1  0.4360560000000  0.5584040000000  0.4918270000000 1.0
END
