TITL C-3866670-4165-542 4.74665287707809 125000 -497.787265222274 0 0 83 (C1) n - 1
REM
REM in /home/nfs/bkarasulu/CARBON/AIRSS/Generating-Clusters/LCBOP/Only-C1/SD-CG/FIRE-CG
REM
REM
REM
REM
REM
REM ./C.cell (11c1c37f851c82e70ff6c80c92926a4b)
REM AIRSS Version 0.9.1 bugfix July 2018 build 013d7b7c2542+ Fri, 06 Jul 2018 19:26:36 +0100
REM compiler GCC version 9.2.1 20190827 (Red Hat 9.2.1-1)
REM options -cpp -mtune=generic -march=x86-64 -g -O0 -fpre-include=/usr/include/finclude/math-vector-fortran.h
REM seed 473528997 -991868552 -1491357594 362252656 -620147911 -2061086316 389427637 154288822 -1016989832 1863502242 1090240323 1679554535 -398920041 171882975 649075968 -240723633 -1041932686 -1768810373 65306912 -287513927 1060915527 -1984366122 165996661 -2146675297 2123703721 -1618470395 1944637034 -351368186 -1236029367 658673290 -1520542140 1202934599 -2013267600
REM
CELL 1.54180   50.00000   50.00000   50.00000   90.00000   90.00000   90.00000
LATT -1
SFAC C  
C      1  0.4646920000000  0.6218690000000  0.5542770000000 1.0
C      1  0.4658980000000  0.5387010000000  0.5674690000000 1.0
C      1  0.5848180000000  0.4855060000000  0.5930270000000 1.0
C      1  0.4462940000000  0.4707260000000  0.4133710000000 1.0
C      1  0.4881980000000  0.5606070000000  0.5302690000000 1.0
C      1  0.3994430000000  0.5165560000000  0.4744040000000 1.0
C      1  0.6078710000000  0.4947960000000  0.5271530000000 1.0
C      1  0.5321010000000  0.5376340000000  0.5310000000000 1.0
C      1  0.4392910000000  0.4969850000000  0.4204570000000 1.0
C      1  0.5552180000000  0.6029270000000  0.4655910000000 1.0
C      1  0.4031340000000  0.4708560000000  0.5292410000000 1.0
C      1  0.5621990000000  0.5782630000000  0.4727370000000 1.0
C      1  0.3474120000000  0.4988290000000  0.3904750000000 1.0
C      1  0.5832010000000  0.4222380000000  0.5700610000000 1.0
C      1  0.4640210000000  0.4502690000000  0.4579190000000 1.0
C      1  0.4113930000000  0.5067750000000  0.4976280000000 1.0
C      1  0.6247390000000  0.4670490000000  0.4907600000000 1.0
C      1  0.4421510000000  0.4844620000000  0.5542970000000 1.0
C      1  0.4567760000000  0.4561000000000  0.4842860000000 1.0
C      1  0.6500420000000  0.4559890000000  0.4839100000000 1.0
C      1  0.5377550000000  0.6227380000000  0.4689840000000 1.0
C      1  0.4617670000000  0.4935640000000  0.5361000000000 1.0
C      1  0.4174660000000  0.4740470000000  0.5518830000000 1.0
C      1  0.5144780000000  0.5576920000000  0.5411870000000 1.0
C      1  0.6467820000000  0.4251290000000  0.5200070000000 1.0
C      1  0.4947380000000  0.6241090000000  0.4966870000000 1.0
C      1  0.3641590000000  0.4807470000000  0.3771640000000 1.0
C      1  0.4839810000000  0.5781880000000  0.5081820000000 1.0
C      1  0.4725760000000  0.5203080000000  0.4951090000000 1.0
C      1  0.5465170000000  0.5433740000000  0.5076720000000 1.0
C      1  0.5229380000000  0.5744770000000  0.5611260000000 1.0
C      1  0.5060680000000  0.4739380000000  0.5424360000000 1.0
C      1  0.4814390000000  0.5236990000000  0.5835590000000 1.0
C      1  0.4678540000000  0.5425630000000  0.5394420000000 1.0
C      1  0.3215940000000  0.5037810000000  0.3811450000000 1.0
C      1  0.5302290000000  0.4896640000000  0.4707820000000 1.0
C      1  0.4334970000000  0.4595260000000  0.3911600000000 1.0
C      1  0.5349160000000  0.4298880000000  0.5544400000000 1.0
C      1  0.5156620000000  0.4974510000000  0.5555890000000 1.0
C      1  0.5675790000000  0.4761870000000  0.5074350000000 1.0
C      1  0.5577480000000  0.4190780000000  0.5627610000000 1.0
C      1  0.6074990000000  0.4477850000000  0.5045950000000 1.0
C      1  0.4219110000000  0.5134170000000  0.4320250000000 1.0
C      1  0.4806320000000  0.5393910000000  0.4780170000000 1.0
C      1  0.5972020000000  0.4617020000000  0.5937020000000 1.0
C      1  0.5166680000000  0.4935140000000  0.4488550000000 1.0
C      1  0.5210670000000  0.3990710000000  0.4845530000000 1.0
C      1  0.4289500000000  0.5225470000000  0.5133060000000 1.0
C      1  0.5632970000000  0.4285750000000  0.4961350000000 1.0
C      1  0.2974720000000  0.5084090000000  0.3724290000000 1.0
C      1  0.6208740000000  0.4931010000000  0.5016140000000 1.0
C      1  0.6204220000000  0.4795210000000  0.5477560000000 1.0
C      1  0.3570570000000  0.5118500000000  0.4133240000000 1.0
C      1  0.5790810000000  0.4937030000000  0.5271060000000 1.0
C      1  0.5153300000000  0.6303920000000  0.4811030000000 1.0
C      1  0.3982630000000  0.5176700000000  0.4464830000000 1.0
C      1  0.4759030000000  0.4603760000000  0.5044920000000 1.0
C      1  0.4791580000000  0.6059160000000  0.5111520000000 1.0
C      1  0.5185260000000  0.4492910000000  0.5467160000000 1.0
C      1  0.4842800000000  0.5656110000000  0.4829140000000 1.0
C      1  0.5018290000000  0.5070920000000  0.5781810000000 1.0
C      1  0.4329120000000  0.6169040000000  0.5190890000000 1.0
C      1  0.5793480000000  0.4503600000000  0.5028660000000 1.0
C      1  0.4298040000000  0.4623430000000  0.4897620000000 1.0
C      1  0.4585820000000  0.6150840000000  0.5284570000000 1.0
C      1  0.5467820000000  0.4846840000000  0.4908610000000 1.0
C      1  0.4821120000000  0.4756290000000  0.5272770000000 1.0
C      1  0.3740440000000  0.5186370000000  0.4325720000000 1.0
C      1  0.5635520000000  0.5039800000000  0.5487020000000 1.0
C      1  0.5435570000000  0.4120900000000  0.4897780000000 1.0
C      1  0.5368690000000  0.5131030000000  0.5447240000000 1.0
C      1  0.6022850000000  0.4424750000000  0.5736110000000 1.0
C      1  0.4113890000000  0.4786970000000  0.5033720000000 1.0
C      1  0.6215540000000  0.4361920000000  0.5274120000000 1.0
C      1  0.3861590000000  0.4667000000000  0.3722360000000 1.0
C      1  0.6604590000000  0.4354370000000  0.4986640000000 1.0
C      1  0.4980080000000  0.3878630000000  0.4798350000000 1.0
C      1  0.4604780000000  0.4554780000000  0.4320400000000 1.0
C      1  0.4110970000000  0.4586810000000  0.3767990000000 1.0
C      1  0.6179050000000  0.4511790000000  0.5515290000000 1.0
C      1  0.4579080000000  0.5199600000000  0.5216800000000 1.0
C      1  0.5581200000000  0.5569150000000  0.4880300000000 1.0
C      1  0.5730210000000  0.5013890000000  0.5750630000000 1.0
END
