TITL C-3866671-3735-660 2.97845618427566 125000 -369.22655814529 0 0 64 (C1) n - 1
REM
REM in /home/nfs/bkarasulu/CARBON/AIRSS/Generating-Clusters/LCBOP/Only-C1/SD-CG/FIRE-CG
REM
REM
REM
REM
REM
REM ./C.cell (11c1c37f851c82e70ff6c80c92926a4b)
REM AIRSS Version 0.9.1 bugfix July 2018 build 013d7b7c2542+ Fri, 06 Jul 2018 19:26:36 +0100
REM compiler GCC version 9.2.1 20190827 (Red Hat 9.2.1-1)
REM options -cpp -mtune=generic -march=x86-64 -g -O0 -fpre-include=/usr/include/finclude/math-vector-fortran.h
REM seed -2141230031 1085959598 375489918 1614510921 -482855531 894912147 1432298406 -317267874 -811761960 -1569614878 1683616941 897966526 -24210442 546389633 -1443705342 -1933062488 97742075 842352469 28192345 -1031809736 1980521172 1002906522 -2082136126 -2070921238 -773362070 -1481577910 770546858 1858886911 -1901235529 34322187 251985184 -311767871 -81899310
REM
CELL 1.54180   50.00000   50.00000   50.00000   90.00000   90.00000   90.00000
LATT -1
SFAC C  
C      1  0.4522960000000  0.5711020000000  0.5301240000000 1.0
C      1  0.4624660000000  0.4719020000000  0.5160160000000 1.0
C      1  0.5195120000000  0.5397730000000  0.5151550000000 1.0
C      1  0.4337850000000  0.5385270000000  0.5623580000000 1.0
C      1  0.6453280000000  0.5405300000000  0.4334030000000 1.0
C      1  0.4156220000000  0.5393680000000  0.4661270000000 1.0
C      1  0.4512280000000  0.4905380000000  0.5912440000000 1.0
C      1  0.3937420000000  0.4895070000000  0.5199000000000 1.0
C      1  0.6336880000000  0.4740600000000  0.4598160000000 1.0
C      1  0.4157260000000  0.4518120000000  0.5416100000000 1.0
C      1  0.3928970000000  0.5079810000000  0.4971380000000 1.0
C      1  0.3992000000000  0.5136080000000  0.4674280000000 1.0
C      1  0.5100850000000  0.4824620000000  0.5206290000000 1.0
C      1  0.4777430000000  0.5590320000000  0.5340410000000 1.0
C      1  0.5257320000000  0.4637680000000  0.5911500000000 1.0
C      1  0.4529040000000  0.5261640000000  0.4905690000000 1.0
C      1  0.4452420000000  0.5242270000000  0.4271790000000 1.0
C      1  0.4355420000000  0.4531940000000  0.5616350000000 1.0
C      1  0.5296990000000  0.5309710000000  0.4886020000000 1.0
C      1  0.5285840000000  0.5302710000000  0.5409130000000 1.0
C      1  0.6331480000000  0.5205130000000  0.4457670000000 1.0
C      1  0.4133340000000  0.5193300000000  0.5599540000000 1.0
C      1  0.3983980000000  0.4613620000000  0.5210810000000 1.0
C      1  0.6349190000000  0.4142870000000  0.4165250000000 1.0
C      1  0.4036990000000  0.5328130000000  0.5092150000000 1.0
C      1  0.5033900000000  0.4714290000000  0.5772580000000 1.0
C      1  0.4861200000000  0.4518160000000  0.5664030000000 1.0
C      1  0.6514540000000  0.4078260000000  0.4373490000000 1.0
C      1  0.3982000000000  0.5029160000000  0.5450280000000 1.0
C      1  0.4456430000000  0.4743630000000  0.4949980000000 1.0
C      1  0.3865340000000  0.4441950000000  0.5034540000000 1.0
C      1  0.5336430000000  0.4871110000000  0.5080450000000 1.0
C      1  0.4255830000000  0.5035410000000  0.4257150000000 1.0
C      1  0.4608540000000  0.5333930000000  0.5719880000000 1.0
C      1  0.5172140000000  0.5162720000000  0.5614890000000 1.0
C      1  0.4631160000000  0.5433240000000  0.4656500000000 1.0
C      1  0.6207380000000  0.4990000000000  0.4585420000000 1.0
C      1  0.5954610000000  0.5021790000000  0.4699850000000 1.0
C      1  0.4935530000000  0.5064890000000  0.4797530000000 1.0
C      1  0.6573590000000  0.5601900000000  0.4212240000000 1.0
C      1  0.6231250000000  0.4403010000000  0.4178600000000 1.0
C      1  0.5714370000000  0.5045760000000  0.4808460000000 1.0
C      1  0.4318930000000  0.5621760000000  0.5460670000000 1.0
C      1  0.6547160000000  0.4267980000000  0.4567700000000 1.0
C      1  0.6618770000000  0.4412720000000  0.4788510000000 1.0
C      1  0.4260840000000  0.5413760000000  0.4943360000000 1.0
C      1  0.6511380000000  0.4663440000000  0.4811150000000 1.0
C      1  0.5461810000000  0.5072050000000  0.4920150000000 1.0
C      1  0.4783840000000  0.5167100000000  0.5047520000000 1.0
C      1  0.4974700000000  0.4995010000000  0.5741420000000 1.0
C      1  0.4422540000000  0.4978030000000  0.4821560000000 1.0
C      1  0.4382390000000  0.5431020000000  0.4487140000000 1.0
C      1  0.4826250000000  0.4911900000000  0.5210590000000 1.0
C      1  0.6062080000000  0.4502070000000  0.3990480000000 1.0
C      1  0.6313120000000  0.4538330000000  0.4408240000000 1.0
C      1  0.4875950000000  0.5379810000000  0.4499190000000 1.0
C      1  0.4801740000000  0.5515620000000  0.5615500000000 1.0
C      1  0.4338050000000  0.4718230000000  0.5828840000000 1.0
C      1  0.5087350000000  0.5275200000000  0.4671300000000 1.0
C      1  0.4051070000000  0.4985470000000  0.4435640000000 1.0
C      1  0.4909560000000  0.5417450000000  0.5159230000000 1.0
C      1  0.4748910000000  0.5261460000000  0.4256650000000 1.0
C      1  0.4706160000000  0.5083540000000  0.5811090000000 1.0
C      1  0.4617940000000  0.4427800000000  0.5592420000000 1.0
END
