TITL C-3866672-3872-68 -0.25553699959826 125000 -236.777368046432 0 0 41 (C1) n - 1
REM
REM in /home/nfs/bkarasulu/CARBON/AIRSS/Generating-Clusters/LCBOP/Only-C1/SD-CG/HFTN-CG/FIRE-CG
REM
REM
REM
REM
REM
REM ./C.cell (11c1c37f851c82e70ff6c80c92926a4b)
REM AIRSS Version 0.9.1 bugfix July 2018 build 013d7b7c2542+ Fri, 06 Jul 2018 19:26:36 +0100
REM compiler GCC version 9.2.1 20190827 (Red Hat 9.2.1-1)
REM options -cpp -mtune=generic -march=x86-64 -g -O0 -fpre-include=/usr/include/finclude/math-vector-fortran.h
REM seed 849418268 -1058623050 1186668767 1052595714 1846189710 -668048593 -1040865527 1171281943 -262527347 -1721895973 2054340157 -276472566 1522113086 954392260 -108393999 -1933157925 969039481 441370625 2028564473 393722937 405304569 -1872438651 1820119593 -1588917914 -2069200499 -1750297867 -1678916667 -701901800 2031252889 -1414190753 -771772286 13834911 -415039011
REM
CELL 1.54180   50.00000   50.00000   50.00000   90.00000   90.00000   90.00000
LATT -1
SFAC C  
C      1  0.4814590000000  0.4373680000000  0.5021100000000 1.0
C      1  0.5085900000000  0.5582720000000  0.5212500000000 1.0
C      1  0.4737340000000  0.5190540000000  0.4896540000000 1.0
C      1  0.5064700000000  0.4744650000000  0.4800920000000 1.0
C      1  0.4606730000000  0.5740270000000  0.4411110000000 1.0
C      1  0.4606860000000  0.4886690000000  0.4154120000000 1.0
C      1  0.5732730000000  0.4633050000000  0.4805570000000 1.0
C      1  0.5371440000000  0.5053510000000  0.5541100000000 1.0
C      1  0.5252160000000  0.4489380000000  0.5168400000000 1.0
C      1  0.5616480000000  0.5037300000000  0.5391790000000 1.0
C      1  0.5312270000000  0.5518210000000  0.5359570000000 1.0
C      1  0.5220870000000  0.4809440000000  0.5567120000000 1.0
C      1  0.4145080000000  0.5336560000000  0.4230780000000 1.0
C      1  0.4955530000000  0.5339220000000  0.5578020000000 1.0
C      1  0.4693580000000  0.4717030000000  0.5583440000000 1.0
C      1  0.4516990000000  0.4921550000000  0.5505620000000 1.0
C      1  0.5051110000000  0.4518070000000  0.4973050000000 1.0
C      1  0.4956450000000  0.4784970000000  0.5663780000000 1.0
C      1  0.5289320000000  0.4769230000000  0.4625960000000 1.0
C      1  0.4640150000000  0.5349380000000  0.4688680000000 1.0
C      1  0.4639210000000  0.4460950000000  0.5479230000000 1.0
C      1  0.5263470000000  0.4735100000000  0.4356120000000 1.0
C      1  0.4814300000000  0.5338760000000  0.5810420000000 1.0
C      1  0.5540280000000  0.4830640000000  0.4744540000000 1.0
C      1  0.4502320000000  0.5113200000000  0.5319570000000 1.0
C      1  0.4665170000000  0.4339280000000  0.5241570000000 1.0
C      1  0.4571990000000  0.5149330000000  0.4084680000000 1.0
C      1  0.4683810000000  0.5264190000000  0.5166710000000 1.0
C      1  0.4422730000000  0.5320640000000  0.4255660000000 1.0
C      1  0.3885930000000  0.5351550000000  0.4207780000000 1.0
C      1  0.5247470000000  0.5308160000000  0.5552860000000 1.0
C      1  0.5882100000000  0.4567520000000  0.5019360000000 1.0
C      1  0.5573290000000  0.5075990000000  0.4879730000000 1.0
C      1  0.5917520000000  0.4650350000000  0.5272600000000 1.0
C      1  0.4859790000000  0.5430790000000  0.5311500000000 1.0
C      1  0.5307910000000  0.4592090000000  0.5408770000000 1.0
C      1  0.4678700000000  0.5249450000000  0.3853170000000 1.0
C      1  0.4557640000000  0.5474440000000  0.4452920000000 1.0
C      1  0.4886940000000  0.4959580000000  0.4837200000000 1.0
C      1  0.5615160000000  0.5152480000000  0.5132990000000 1.0
C      1  0.5814010000000  0.4840040000000  0.5433460000000 1.0
END
