TITL C-3866671-3735-531 -1.62690042507415e-07 125000 -159.121763885704 0 0 28 (C1) n - 1
REM
REM in /home/nfs/bkarasulu/CARBON/AIRSS/Generating-Clusters/LCBOP/Only-C1/SD-CG/FIRE-CG
REM
REM
REM
REM
REM
REM ./C.cell (11c1c37f851c82e70ff6c80c92926a4b)
REM AIRSS Version 0.9.1 bugfix July 2018 build 013d7b7c2542+ Fri, 06 Jul 2018 19:26:36 +0100
REM compiler GCC version 9.2.1 20190827 (Red Hat 9.2.1-1)
REM options -cpp -mtune=generic -march=x86-64 -g -O0 -fpre-include=/usr/include/finclude/math-vector-fortran.h
REM seed -898606308 -871286741 2060057155 708297142 -483304745 492945246 -444011941 -1841983744 1074830663 427212245 408650948 -1186160428 -1918604076 -1911843975 2009995926 2084665138 1908109967 516649963 -1394411813 2092498663 683987796 306300218 -1285915204 -392351081 1943410191 -1496000272 -1190472795 -1812003581 1693016749 1380017535 924971252 -224820265 -786627838
REM
CELL 1.54180   50.00000   50.00000   50.00000   90.00000   90.00000   90.00000
LATT -1
SFAC C  
C      1  0.5287760000000  0.5313110000000  0.5158330000000 1.0
C      1  0.4908430000000  0.4764970000000  0.4505490000000 1.0
C      1  0.5576290000000  0.5623500000000  0.4387680000000 1.0
C      1  0.4465430000000  0.4881590000000  0.5188080000000 1.0
C      1  0.5534270000000  0.5298230000000  0.4747010000000 1.0
C      1  0.4886850000000  0.4873190000000  0.5723320000000 1.0
C      1  0.4765100000000  0.4869920000000  0.5234570000000 1.0
C      1  0.4368400000000  0.4727700000000  0.4972250000000 1.0
C      1  0.4908070000000  0.5138030000000  0.5614780000000 1.0
C      1  0.4893540000000  0.5472480000000  0.4945720000000 1.0
C      1  0.4795490000000  0.4697950000000  0.4751360000000 1.0
C      1  0.5339930000000  0.4194110000000  0.5193800000000 1.0
C      1  0.5005120000000  0.5333070000000  0.5162940000000 1.0
C      1  0.5060830000000  0.5213860000000  0.4325800000000 1.0
C      1  0.4986860000000  0.4958050000000  0.4339960000000 1.0
C      1  0.5279090000000  0.4434190000000  0.5112730000000 1.0
C      1  0.4925640000000  0.4793180000000  0.5978810000000 1.0
C      1  0.4521520000000  0.4635410000000  0.4770970000000 1.0
C      1  0.5203510000000  0.4690630000000  0.5032750000000 1.0
C      1  0.4925990000000  0.4754180000000  0.5001810000000 1.0
C      1  0.5443010000000  0.5163740000000  0.4975680000000 1.0
C      1  0.5144630000000  0.5420900000000  0.4495500000000 1.0
C      1  0.4964140000000  0.5516220000000  0.4690270000000 1.0
C      1  0.5425410000000  0.5453360000000  0.4538120000000 1.0
C      1  0.4871280000000  0.5149480000000  0.5327890000000 1.0
C      1  0.4814130000000  0.4710110000000  0.5495840000000 1.0
C      1  0.4301400000000  0.5031780000000  0.5346720000000 1.0
C      1  0.5397850000000  0.4887050000000  0.4981820000000 1.0
END
