TITL C-3866676-3738-534 0.142167435683982 125000 -915.272915456064 0 0 153 (C1) n - 1
REM
REM in /home/nfs/bkarasulu/CARBON/AIRSS/Generating-Clusters/LCBOP/Only-C1/SD-CG/FIRE-CG
REM
REM
REM
REM
REM
REM ./C.cell (11c1c37f851c82e70ff6c80c92926a4b)
REM AIRSS Version 0.9.1 bugfix July 2018 build 013d7b7c2542+ Fri, 06 Jul 2018 19:26:36 +0100
REM compiler GCC version 9.2.1 20190827 (Red Hat 9.2.1-1)
REM options -cpp -mtune=generic -march=x86-64 -g -O0 -fpre-include=/usr/include/finclude/math-vector-fortran.h
REM seed -491195846 1333292375 -1957966676 -499535116 -215668911 -339135869 -786983318 -185428813 808445785 -1153802612 -828221000 1345661604 1784871133 724006037 448831549 45744210 494557051 -1886857771 1040404347 362885833 796989891 980192707 -2020237015 -1332690189 445004804 245500397 -1891393213 554148590 150897087 1288173320 -928653105 -1176154708 -1942290999
REM
CELL 1.54180   50.00000   50.00000   50.00000   90.00000   90.00000   90.00000
LATT -1
SFAC C  
C      1  0.5606460000000  0.4167900000000  0.4999450000000 1.0
C      1  0.4952340000000  0.4100880000000  0.5119970000000 1.0
C      1  0.5499110000000  0.4389020000000  0.5638990000000 1.0
C      1  0.4205620000000  0.4404110000000  0.4505860000000 1.0
C      1  0.6223050000000  0.4651080000000  0.5336880000000 1.0
C      1  0.5653840000000  0.4974890000000  0.4865770000000 1.0
C      1  0.5255550000000  0.5423100000000  0.4040670000000 1.0
C      1  0.4906140000000  0.4028030000000  0.4649770000000 1.0
C      1  0.5542840000000  0.5411040000000  0.4045540000000 1.0
C      1  0.5082770000000  0.4732290000000  0.5682700000000 1.0
C      1  0.4405090000000  0.5143220000000  0.5298100000000 1.0
C      1  0.5088070000000  0.4923160000000  0.4550020000000 1.0
C      1  0.5439300000000  0.5757360000000  0.5329180000000 1.0
C      1  0.5578130000000  0.4543630000000  0.4542950000000 1.0
C      1  0.4321500000000  0.5172430000000  0.5848430000000 1.0
C      1  0.5679750000000  0.5380220000000  0.3803460000000 1.0
C      1  0.5560170000000  0.5586080000000  0.4502660000000 1.0
C      1  0.4110120000000  0.4533240000000  0.4967680000000 1.0
C      1  0.5349640000000  0.5388790000000  0.5092550000000 1.0
C      1  0.5447080000000  0.5378370000000  0.4654880000000 1.0
C      1  0.6010090000000  0.5541490000000  0.5897130000000 1.0
C      1  0.4357290000000  0.5889160000000  0.5370250000000 1.0
C      1  0.4661090000000  0.5495860000000  0.5129520000000 1.0
C      1  0.4330400000000  0.4109240000000  0.5140880000000 1.0
C      1  0.5844230000000  0.4289650000000  0.4874410000000 1.0
C      1  0.4784440000000  0.4871690000000  0.5133320000000 1.0
C      1  0.4822000000000  0.5315700000000  0.5741830000000 1.0
C      1  0.5197090000000  0.5025990000000  0.5341180000000 1.0
C      1  0.5733300000000  0.4736760000000  0.5904350000000 1.0
C      1  0.5060590000000  0.6020620000000  0.5186260000000 1.0
C      1  0.4609540000000  0.5365330000000  0.4503020000000 1.0
C      1  0.5248880000000  0.5433590000000  0.4841320000000 1.0
C      1  0.5539800000000  0.4906930000000  0.6028450000000 1.0
C      1  0.4477070000000  0.4076870000000  0.4887960000000 1.0
C      1  0.5471700000000  0.5956140000000  0.4858230000000 1.0
C      1  0.5923120000000  0.5788910000000  0.5222070000000 1.0
C      1  0.5104280000000  0.5326220000000  0.5522430000000 1.0
C      1  0.5994670000000  0.4476370000000  0.4731240000000 1.0
C      1  0.3955700000000  0.5222490000000  0.5312620000000 1.0
C      1  0.4817480000000  0.4355200000000  0.5649500000000 1.0
C      1  0.6097930000000  0.4749660000000  0.4666570000000 1.0
C      1  0.5049720000000  0.4827260000000  0.5950980000000 1.0
C      1  0.4259380000000  0.5668670000000  0.5969810000000 1.0
C      1  0.5003980000000  0.5318400000000  0.4782470000000 1.0
C      1  0.4626490000000  0.4923530000000  0.4905500000000 1.0
C      1  0.4244950000000  0.5389720000000  0.6007230000000 1.0
C      1  0.5162080000000  0.4601510000000  0.5059700000000 1.0
C      1  0.4716060000000  0.4810530000000  0.5400330000000 1.0
C      1  0.4559780000000  0.5021480000000  0.5492750000000 1.0
C      1  0.5422830000000  0.3850850000000  0.4262000000000 1.0
C      1  0.5891750000000  0.5205770000000  0.4371570000000 1.0
C      1  0.5276140000000  0.5009400000000  0.5984570000000 1.0
C      1  0.5976320000000  0.4657510000000  0.5470970000000 1.0
C      1  0.4979600000000  0.4920830000000  0.4090370000000 1.0
C      1  0.5698860000000  0.5430080000000  0.4291310000000 1.0
C      1  0.4171500000000  0.5559690000000  0.4722400000000 1.0
C      1  0.4363760000000  0.5961700000000  0.5095540000000 1.0
C      1  0.5178300000000  0.4030910000000  0.5550200000000 1.0
C      1  0.5757400000000  0.5137400000000  0.5094660000000 1.0
C      1  0.4528870000000  0.4698430000000  0.5957870000000 1.0
C      1  0.4211270000000  0.4767090000000  0.4845610000000 1.0
C      1  0.5726420000000  0.6081070000000  0.4898120000000 1.0
C      1  0.4280520000000  0.5123960000000  0.4229360000000 1.0
C      1  0.5697300000000  0.5631530000000  0.5270670000000 1.0
C      1  0.4092440000000  0.5773830000000  0.5766650000000 1.0
C      1  0.5318170000000  0.5920380000000  0.5114050000000 1.0
C      1  0.5580010000000  0.4270420000000  0.4464890000000 1.0
C      1  0.4426260000000  0.4192860000000  0.4600230000000 1.0
C      1  0.5258220000000  0.5230370000000  0.5812870000000 1.0
C      1  0.4305670000000  0.4688220000000  0.5762730000000 1.0
C      1  0.5642190000000  0.4463940000000  0.5872130000000 1.0
C      1  0.5336100000000  0.4180330000000  0.4886530000000 1.0
C      1  0.4536640000000  0.4630840000000  0.4130740000000 1.0
C      1  0.5075250000000  0.4901400000000  0.5072940000000 1.0
C      1  0.5398140000000  0.4052630000000  0.4442630000000 1.0
C      1  0.4550670000000  0.5896180000000  0.4909840000000 1.0
C      1  0.5439620000000  0.5843630000000  0.4584330000000 1.0
C      1  0.5001550000000  0.4226660000000  0.4052720000000 1.0
C      1  0.4842820000000  0.6022180000000  0.5347190000000 1.0
C      1  0.4612830000000  0.5950300000000  0.5503150000000 1.0
C      1  0.5373590000000  0.4582810000000  0.4109910000000 1.0
C      1  0.4709550000000  0.4603480000000  0.3907010000000 1.0
C      1  0.4985720000000  0.5412410000000  0.4015670000000 1.0
C      1  0.4379100000000  0.4334590000000  0.5323780000000 1.0
C      1  0.4418630000000  0.5355650000000  0.5120590000000 1.0
C      1  0.5284960000000  0.4813550000000  0.5500890000000 1.0
C      1  0.4699480000000  0.4484010000000  0.4938890000000 1.0
C      1  0.4138110000000  0.5732400000000  0.5489000000000 1.0
C      1  0.5371690000000  0.6145090000000  0.4214350000000 1.0
C      1  0.3898140000000  0.4467870000000  0.5119310000000 1.0
C      1  0.3991450000000  0.4960970000000  0.4834400000000 1.0
C      1  0.5932080000000  0.5999610000000  0.5053210000000 1.0
C      1  0.5622210000000  0.5383070000000  0.5152910000000 1.0
C      1  0.5485570000000  0.4615520000000  0.5455720000000 1.0
C      1  0.4907190000000  0.4783490000000  0.3870110000000 1.0
C      1  0.4523940000000  0.5283250000000  0.4246390000000 1.0
C      1  0.4722410000000  0.5350130000000  0.4049710000000 1.0
C      1  0.4635100000000  0.5922040000000  0.5782710000000 1.0
C      1  0.5214680000000  0.4385870000000  0.4020350000000 1.0
C      1  0.4990860000000  0.4159550000000  0.5719050000000 1.0
C      1  0.4504760000000  0.5807340000000  0.5988790000000 1.0
C      1  0.4625580000000  0.4757680000000  0.4390650000000 1.0
C      1  0.5959990000000  0.5093210000000  0.5598890000000 1.0
C      1  0.3855100000000  0.4856980000000  0.4605480000000 1.0
C      1  0.5048280000000  0.3928160000000  0.5321010000000 1.0
C      1  0.5598540000000  0.4086010000000  0.5276330000000 1.0
C      1  0.4787890000000  0.4147340000000  0.4194340000000 1.0
C      1  0.4584520000000  0.5176500000000  0.5728630000000 1.0
C      1  0.4198130000000  0.5381380000000  0.4938670000000 1.0
C      1  0.4694260000000  0.4114340000000  0.4457070000000 1.0
C      1  0.3755390000000  0.4578050000000  0.5317250000000 1.0
C      1  0.6341850000000  0.4743600000000  0.5114610000000 1.0
C      1  0.5143010000000  0.4317080000000  0.5050180000000 1.0
C      1  0.4979810000000  0.5946960000000  0.4406900000000 1.0
C      1  0.5045170000000  0.5037320000000  0.4801570000000 1.0
C      1  0.5518200000000  0.5108030000000  0.4640950000000 1.0
C      1  0.4782000000000  0.5467970000000  0.4697810000000 1.0
C      1  0.4002610000000  0.5499000000000  0.5390470000000 1.0
C      1  0.4713350000000  0.5936090000000  0.4374810000000 1.0
C      1  0.5261330000000  0.5978060000000  0.4402540000000 1.0
C      1  0.4575220000000  0.4476040000000  0.5174740000000 1.0
C      1  0.5205270000000  0.4058240000000  0.4652200000000 1.0
C      1  0.4273530000000  0.4685010000000  0.4051250000000 1.0
C      1  0.6004330000000  0.5317160000000  0.5756340000000 1.0
C      1  0.4851990000000  0.4621630000000  0.5564900000000 1.0
C      1  0.5733800000000  0.4632330000000  0.5323630000000 1.0
C      1  0.6297830000000  0.4818580000000  0.4859780000000 1.0
C      1  0.4024690000000  0.4702580000000  0.4429620000000 1.0
C      1  0.5937550000000  0.5101970000000  0.5312720000000 1.0
C      1  0.3777110000000  0.4795370000000  0.5472120000000 1.0
C      1  0.4890960000000  0.4875760000000  0.4358140000000 1.0
C      1  0.6003500000000  0.5768840000000  0.6024490000000 1.0
C      1  0.4144480000000  0.4866060000000  0.4221670000000 1.0
C      1  0.5809730000000  0.5346220000000  0.3580160000000 1.0
C      1  0.3997560000000  0.5181580000000  0.5015390000000 1.0
C      1  0.4162760000000  0.4953930000000  0.5729950000000 1.0
C      1  0.5270710000000  0.5596300000000  0.5497630000000 1.0
C      1  0.5926870000000  0.4827170000000  0.5705800000000 1.0
C      1  0.3961090000000  0.5006420000000  0.5517460000000 1.0
C      1  0.5624250000000  0.4692570000000  0.4793860000000 1.0
C      1  0.4871060000000  0.5422980000000  0.5298990000000 1.0
C      1  0.4462880000000  0.4817970000000  0.4699830000000 1.0
C      1  0.4257100000000  0.5732490000000  0.4533910000000 1.0
C      1  0.6002820000000  0.4972550000000  0.4486010000000 1.0
C      1  0.5359210000000  0.4941400000000  0.4466700000000 1.0
C      1  0.4694730000000  0.5655250000000  0.4895060000000 1.0
C      1  0.4780580000000  0.4774450000000  0.6044290000000 1.0
C      1  0.5461600000000  0.4710880000000  0.4343880000000 1.0
C      1  0.4772860000000  0.4020900000000  0.4911720000000 1.0
C      1  0.4455360000000  0.5867130000000  0.4409770000000 1.0
C      1  0.4291770000000  0.4469770000000  0.5565980000000 1.0
C      1  0.4841490000000  0.4501410000000  0.4720460000000 1.0
C      1  0.5443940000000  0.4138440000000  0.5514920000000 1.0
END
