TITL C-3866675-3766-757 -5.62664196343831e-07 125000 -833.093080115121 0 0 134 (C1) n - 1
REM
REM in /home/nfs/bkarasulu/CARBON/AIRSS/Generating-Clusters/LCBOP/Only-C1/SD-CG/FIRE-CG
REM
REM
REM
REM
REM
REM ./C.cell (11c1c37f851c82e70ff6c80c92926a4b)
REM AIRSS Version 0.9.1 bugfix July 2018 build 013d7b7c2542+ Fri, 06 Jul 2018 19:26:36 +0100
REM compiler GCC version 9.2.1 20190827 (Red Hat 9.2.1-1)
REM options -cpp -mtune=generic -march=x86-64 -g -O0 -fpre-include=/usr/include/finclude/math-vector-fortran.h
REM seed 2108929016 -364469273 -1666043355 -1986230651 -2107063417 -578238428 988998718 1786839055 -179739826 2029014046 -1572071546 1238269689 -232867280 -2118062856 -1798918537 1759594629 -586791088 -983477718 -290678607 429885569 569575957 694910939 -1482372214 118279313 2057835072 1629723725 -1897499301 602912380 1686235997 409592905 -2091906348 959546306 1787648969
REM
CELL 1.54180   50.00000   50.00000   50.00000   90.00000   90.00000   90.00000
LATT -1
SFAC C  
C      1  0.4857810000000  0.4917340000000  0.5974080000000 1.0
C      1  0.4133410000000  0.5494530000000  0.5720360000000 1.0
C      1  0.6121480000000  0.4927250000000  0.4999250000000 1.0
C      1  0.5126570000000  0.3944070000000  0.5562100000000 1.0
C      1  0.4822910000000  0.4173470000000  0.4543200000000 1.0
C      1  0.4473460000000  0.5729800000000  0.4255070000000 1.0
C      1  0.4916260000000  0.3873890000000  0.5145750000000 1.0
C      1  0.4638180000000  0.5528080000000  0.5891820000000 1.0
C      1  0.5024130000000  0.3949860000000  0.4912110000000 1.0
C      1  0.5444040000000  0.5041100000000  0.5905160000000 1.0
C      1  0.4880470000000  0.3946510000000  0.5417900000000 1.0
C      1  0.4963540000000  0.5430960000000  0.5497330000000 1.0
C      1  0.5981470000000  0.4692130000000  0.5089020000000 1.0
C      1  0.5288270000000  0.4527930000000  0.5280720000000 1.0
C      1  0.4326470000000  0.4680750000000  0.4523330000000 1.0
C      1  0.4377330000000  0.4960950000000  0.4460700000000 1.0
C      1  0.5268090000000  0.6060210000000  0.4505920000000 1.0
C      1  0.4522250000000  0.5158020000000  0.4624360000000 1.0
C      1  0.5800730000000  0.4318620000000  0.5470700000000 1.0
C      1  0.4717270000000  0.5317460000000  0.4469120000000 1.0
C      1  0.5621630000000  0.5939580000000  0.4835450000000 1.0
C      1  0.5231340000000  0.6181770000000  0.4969770000000 1.0
C      1  0.5168930000000  0.5317070000000  0.4971480000000 1.0
C      1  0.4889680000000  0.6379720000000  0.4585150000000 1.0
C      1  0.5107640000000  0.5615020000000  0.5000180000000 1.0
C      1  0.5719890000000  0.4982470000000  0.4356840000000 1.0
C      1  0.5559490000000  0.4176080000000  0.5103400000000 1.0
C      1  0.5391980000000  0.3988940000000  0.5532620000000 1.0
C      1  0.3773000000000  0.5126250000000  0.5500660000000 1.0
C      1  0.4696400000000  0.5623430000000  0.4093210000000 1.0
C      1  0.5591190000000  0.5741800000000  0.5035170000000 1.0
C      1  0.5208450000000  0.4567500000000  0.4047960000000 1.0
C      1  0.5113470000000  0.5014380000000  0.3948870000000 1.0
C      1  0.4844820000000  0.6017310000000  0.4277730000000 1.0
C      1  0.4829000000000  0.4953730000000  0.5074360000000 1.0
C      1  0.5290540000000  0.5342250000000  0.4511290000000 1.0
C      1  0.4037450000000  0.4783980000000  0.5664270000000 1.0
C      1  0.5711870000000  0.4515150000000  0.5666350000000 1.0
C      1  0.5563290000000  0.5152980000000  0.4172140000000 1.0
C      1  0.5437510000000  0.4962080000000  0.5170310000000 1.0
C      1  0.5458940000000  0.4592230000000  0.4149770000000 1.0
C      1  0.4598380000000  0.4508230000000  0.4132500000000 1.0
C      1  0.4886740000000  0.5442080000000  0.6005870000000 1.0
C      1  0.3836300000000  0.4649650000000  0.5257650000000 1.0
C      1  0.5770130000000  0.5583680000000  0.5190280000000 1.0
C      1  0.5719800000000  0.5635280000000  0.5477720000000 1.0
C      1  0.4418360000000  0.5428770000000  0.5745620000000 1.0
C      1  0.4566250000000  0.5023800000000  0.5450760000000 1.0
C      1  0.5778910000000  0.4449890000000  0.4757250000000 1.0
C      1  0.5269440000000  0.5782900000000  0.5419980000000 1.0
C      1  0.4622810000000  0.4536970000000  0.5374180000000 1.0
C      1  0.4481590000000  0.5190900000000  0.4915850000000 1.0
C      1  0.4077310000000  0.4379940000000  0.5943150000000 1.0
C      1  0.4175170000000  0.4609300000000  0.4754820000000 1.0
C      1  0.5396290000000  0.5050300000000  0.3964220000000 1.0
C      1  0.5100960000000  0.4453380000000  0.5470730000000 1.0
C      1  0.5749970000000  0.4697800000000  0.4903060000000 1.0
C      1  0.4634350000000  0.4074990000000  0.5498010000000 1.0
C      1  0.3968060000000  0.5261290000000  0.5668230000000 1.0
C      1  0.4896700000000  0.5826840000000  0.4924460000000 1.0
C      1  0.4679680000000  0.4766480000000  0.5533340000000 1.0
C      1  0.4519750000000  0.4943890000000  0.3994670000000 1.0
C      1  0.5218300000000  0.4644600000000  0.4650940000000 1.0
C      1  0.4191560000000  0.4375160000000  0.5460020000000 1.0
C      1  0.5304970000000  0.5145860000000  0.5701130000000 1.0
C      1  0.5860020000000  0.5106370000000  0.4601470000000 1.0
C      1  0.4853770000000  0.4731400000000  0.5763860000000 1.0
C      1  0.5788510000000  0.4491750000000  0.4482570000000 1.0
C      1  0.4731350000000  0.5765090000000  0.4689830000000 1.0
C      1  0.5855520000000  0.4975250000000  0.5515480000000 1.0
C      1  0.5272260000000  0.4458490000000  0.5907510000000 1.0
C      1  0.4064390000000  0.4256280000000  0.6172170000000 1.0
C      1  0.5475660000000  0.5714090000000  0.5609730000000 1.0
C      1  0.4100720000000  0.4510840000000  0.5699090000000 1.0
C      1  0.4472390000000  0.4310910000000  0.5467270000000 1.0
C      1  0.4418160000000  0.5150270000000  0.5653720000000 1.0
C      1  0.4115140000000  0.4401050000000  0.4941870000000 1.0
C      1  0.4467120000000  0.4464440000000  0.4378470000000 1.0
C      1  0.4343360000000  0.4074280000000  0.4643690000000 1.0
C      1  0.5938980000000  0.5179630000000  0.5365290000000 1.0
C      1  0.5135340000000  0.5584850000000  0.5992690000000 1.0
C      1  0.5676920000000  0.4760220000000  0.5520150000000 1.0
C      1  0.5453590000000  0.5390950000000  0.4275980000000 1.0
C      1  0.4623380000000  0.5898760000000  0.4450200000000 1.0
C      1  0.4954480000000  0.6109930000000  0.4971460000000 1.0
C      1  0.4162170000000  0.5032940000000  0.5721130000000 1.0
C      1  0.5945570000000  0.4418090000000  0.5215750000000 1.0
C      1  0.5366690000000  0.5660140000000  0.5869090000000 1.0
C      1  0.4766440000000  0.4715920000000  0.4667230000000 1.0
C      1  0.4209840000000  0.5307870000000  0.4166430000000 1.0
C      1  0.4166400000000  0.4142950000000  0.4836540000000 1.0
C      1  0.5895740000000  0.5330410000000  0.5121930000000 1.0
C      1  0.4940400000000  0.5219930000000  0.4016070000000 1.0
C      1  0.5542230000000  0.4552690000000  0.5903920000000 1.0
C      1  0.4243340000000  0.5568690000000  0.4233960000000 1.0
C      1  0.5342610000000  0.4360190000000  0.5054730000000 1.0
C      1  0.5002880000000  0.4751550000000  0.3975500000000 1.0
C      1  0.3829700000000  0.4843090000000  0.5462340000000 1.0
C      1  0.5326210000000  0.5737440000000  0.5146150000000 1.0
C      1  0.5377580000000  0.5660860000000  0.4171740000000 1.0
C      1  0.5258990000000  0.5177690000000  0.5209840000000 1.0
C      1  0.4712610000000  0.4730240000000  0.4003170000000 1.0
C      1  0.5133300000000  0.5576270000000  0.4538440000000 1.0
C      1  0.4637500000000  0.4260470000000  0.4996920000000 1.0
C      1  0.5282080000000  0.5792770000000  0.4420430000000 1.0
C      1  0.4772670000000  0.4715530000000  0.4944710000000 1.0
C      1  0.5173980000000  0.5743000000000  0.3983850000000 1.0
C      1  0.4042760000000  0.4451950000000  0.5214200000000 1.0
C      1  0.4979480000000  0.4684550000000  0.4509870000000 1.0
C      1  0.5164100000000  0.5232800000000  0.5472430000000 1.0
C      1  0.5404880000000  0.6108270000000  0.4755380000000 1.0
C      1  0.5007920000000  0.5698650000000  0.5492350000000 1.0
C      1  0.4764850000000  0.5358520000000  0.4179760000000 1.0
C      1  0.5535640000000  0.4873610000000  0.4921730000000 1.0
C      1  0.5969320000000  0.5158800000000  0.4881510000000 1.0
C      1  0.4544150000000  0.4219250000000  0.4507300000000 1.0
C      1  0.5218720000000  0.4387370000000  0.4796610000000 1.0
C      1  0.5557300000000  0.4818900000000  0.6009660000000 1.0
C      1  0.5672190000000  0.4690380000000  0.4315590000000 1.0
C      1  0.4908620000000  0.5822460000000  0.4062280000000 1.0
C      1  0.5023870000000  0.6192390000000  0.4417560000000 1.0
C      1  0.5041290000000  0.4163950000000  0.4724990000000 1.0
C      1  0.4339710000000  0.5055830000000  0.4188050000000 1.0
C      1  0.5242220000000  0.5169030000000  0.4723370000000 1.0
C      1  0.5450580000000  0.4753210000000  0.5351380000000 1.0
C      1  0.4803920000000  0.6309880000000  0.4835100000000 1.0
C      1  0.5598370000000  0.4116630000000  0.5388790000000 1.0
C      1  0.5337260000000  0.4896280000000  0.4727920000000 1.0
C      1  0.4891100000000  0.5165510000000  0.6068520000000 1.0
C      1  0.4688850000000  0.4504610000000  0.5102330000000 1.0
C      1  0.4604560000000  0.5102590000000  0.5169900000000 1.0
C      1  0.5055950000000  0.4529140000000  0.5737230000000 1.0
C      1  0.5809070000000  0.4264410000000  0.4980320000000 1.0
C      1  0.4860940000000  0.5528860000000  0.4594070000000 1.0
END
