TITL C-3866676-3738-245 0.0852778607068255 125000 -204.661554183731 0 0 35 (C1) n - 1
REM
REM in /home/nfs/bkarasulu/CARBON/AIRSS/Generating-Clusters/LCBOP/Only-C1/SD-CG/HFTN-CG/FIRE-CG
REM
REM
REM
REM
REM
REM ./C.cell (11c1c37f851c82e70ff6c80c92926a4b)
REM AIRSS Version 0.9.1 bugfix July 2018 build 013d7b7c2542+ Fri, 06 Jul 2018 19:26:36 +0100
REM compiler GCC version 9.2.1 20190827 (Red Hat 9.2.1-1)
REM options -cpp -mtune=generic -march=x86-64 -g -O0 -fpre-include=/usr/include/finclude/math-vector-fortran.h
REM seed 2060453504 -1525726553 -712092970 -436412187 1145420766 1065824400 1940270500 129816207 954993538 -1790170451 -843030709 821369910 1327634806 -1350759325 1673848378 -573693487 -938671334 -405194828 -154490240 1755103570 300211084 -280816561 2121647240 1622571224 1044964629 1359779054 -1545706886 1423056582 2093515761 249325767 1805446960 649701873 1830795844
REM
CELL 1.54180   50.00000   50.00000   50.00000   90.00000   90.00000   90.00000
LATT -1
SFAC C  
C      1  0.5347020000000  0.5106480000000  0.4425920000000 1.0
C      1  0.4766000000000  0.5017390000000  0.4246100000000 1.0
C      1  0.4764230000000  0.5189870000000  0.5229470000000 1.0
C      1  0.4175850000000  0.4672080000000  0.5333790000000 1.0
C      1  0.4688250000000  0.4977540000000  0.3996060000000 1.0
C      1  0.4650940000000  0.4572970000000  0.6021780000000 1.0
C      1  0.4532100000000  0.4469540000000  0.6229390000000 1.0
C      1  0.5124560000000  0.5101810000000  0.4590260000000 1.0
C      1  0.5839790000000  0.5299480000000  0.5071980000000 1.0
C      1  0.6017320000000  0.5130310000000  0.4007440000000 1.0
C      1  0.4850940000000  0.5129520000000  0.4969120000000 1.0
C      1  0.5053620000000  0.4700280000000  0.5783420000000 1.0
C      1  0.4851270000000  0.5058450000000  0.4505990000000 1.0
C      1  0.5666880000000  0.5034770000000  0.5416250000000 1.0
C      1  0.5125310000000  0.5139960000000  0.4877060000000 1.0
C      1  0.5296250000000  0.4772570000000  0.5704840000000 1.0
C      1  0.6045730000000  0.5250370000000  0.5251630000000 1.0
C      1  0.4774740000000  0.4683740000000  0.5797540000000 1.0
C      1  0.5948770000000  0.5093040000000  0.5458840000000 1.0
C      1  0.4415600000000  0.4994330000000  0.4754560000000 1.0
C      1  0.5350010000000  0.5169830000000  0.5035530000000 1.0
C      1  0.4611190000000  0.4937650000000  0.3745610000000 1.0
C      1  0.4716840000000  0.5456030000000  0.5300630000000 1.0
C      1  0.4620620000000  0.4784850000000  0.5581760000000 1.0
C      1  0.4535390000000  0.4898420000000  0.3499280000000 1.0
C      1  0.5569670000000  0.5113770000000  0.4282670000000 1.0
C      1  0.4682890000000  0.5066380000000  0.4740820000000 1.0
C      1  0.4113830000000  0.4749610000000  0.5086360000000 1.0
C      1  0.5499460000000  0.4886560000000  0.5578630000000 1.0
C      1  0.4367750000000  0.4682260000000  0.5518400000000 1.0
C      1  0.5795210000000  0.5122050000000  0.4143700000000 1.0
C      1  0.4208500000000  0.4875590000000  0.4871600000000 1.0
C      1  0.5595410000000  0.5169720000000  0.5162380000000 1.0
C      1  0.4674040000000  0.5705330000000  0.5363300000000 1.0
C      1  0.4724050000000  0.4987450000000  0.5417870000000 1.0
END
