TITL C-3866674-3872-274 -0.000499054777615234 125000 -523.483986083726 0 0 85 (C1) n - 1
REM
REM in /home/nfs/bkarasulu/CARBON/AIRSS/Generating-Clusters/LCBOP/Only-C1/SD-CG/FIRE-CG
REM
REM
REM
REM
REM
REM ./C.cell (11c1c37f851c82e70ff6c80c92926a4b)
REM AIRSS Version 0.9.1 bugfix July 2018 build 013d7b7c2542+ Fri, 06 Jul 2018 19:26:36 +0100
REM compiler GCC version 9.2.1 20190827 (Red Hat 9.2.1-1)
REM options -cpp -mtune=generic -march=x86-64 -g -O0 -fpre-include=/usr/include/finclude/math-vector-fortran.h
REM seed -569229256 1591314314 1874148343 -1837663691 1534772677 -209445108 175179562 1722719181 -742223803 59111755 -2104956353 344548806 -1785306545 -1798550376 1634770917 43891409 1680314834 1267858815 -1064980703 815097569 351462744 -1557640671 216865098 -345613390 1193882171 -1547988216 -565222488 691292822 2064531709 1469653110 1548515445 32103619 2119370458
REM
CELL 1.54180   50.00000   50.00000   50.00000   90.00000   90.00000   90.00000
LATT -1
SFAC C  
C      1  0.4980390000000  0.4458460000000  0.5864260000000 1.0
C      1  0.5308660000000  0.4702850000000  0.5566950000000 1.0
C      1  0.5170910000000  0.4962550000000  0.5565860000000 1.0
C      1  0.5226390000000  0.5483130000000  0.5226580000000 1.0
C      1  0.4934760000000  0.5943570000000  0.4847740000000 1.0
C      1  0.4926470000000  0.4268590000000  0.4723580000000 1.0
C      1  0.5070230000000  0.4323500000000  0.4483910000000 1.0
C      1  0.4811920000000  0.4851020000000  0.6068970000000 1.0
C      1  0.5023440000000  0.5032850000000  0.5324170000000 1.0
C      1  0.5233600000000  0.4490750000000  0.5751940000000 1.0
C      1  0.5096670000000  0.5145670000000  0.5778000000000 1.0
C      1  0.4715150000000  0.5470040000000  0.4381500000000 1.0
C      1  0.5604700000000  0.5129360000000  0.4333540000000 1.0
C      1  0.5644760000000  0.5089950000000  0.5247050000000 1.0
C      1  0.4873240000000  0.4735540000000  0.4206520000000 1.0
C      1  0.5302630000000  0.4877440000000  0.4026610000000 1.0
C      1  0.5438770000000  0.4292780000000  0.5761020000000 1.0
C      1  0.5269610000000  0.4733690000000  0.5041370000000 1.0
C      1  0.4852840000000  0.5088660000000  0.5927980000000 1.0
C      1  0.5228980000000  0.5533470000000  0.5502750000000 1.0
C      1  0.5199470000000  0.5895490000000  0.4927550000000 1.0
C      1  0.5901970000000  0.5482460000000  0.4971640000000 1.0
C      1  0.4637980000000  0.5243130000000  0.5794430000000 1.0
C      1  0.4634630000000  0.4646760000000  0.4773930000000 1.0
C      1  0.4729070000000  0.5890800000000  0.5043830000000 1.0
C      1  0.5763150000000  0.5296170000000  0.5098980000000 1.0
C      1  0.4755690000000  0.4044560000000  0.4744410000000 1.0
C      1  0.5558310000000  0.5058880000000  0.4601790000000 1.0
C      1  0.4656610000000  0.5273850000000  0.4180810000000 1.0
C      1  0.5734850000000  0.5054800000000  0.5509820000000 1.0
C      1  0.4326170000000  0.4268600000000  0.4722180000000 1.0
C      1  0.5308430000000  0.5687590000000  0.5055020000000 1.0
C      1  0.5624710000000  0.4318410000000  0.5562100000000 1.0
C      1  0.4808720000000  0.5736420000000  0.4379000000000 1.0
C      1  0.4876030000000  0.5915830000000  0.4570200000000 1.0
C      1  0.4818970000000  0.5140320000000  0.4738790000000 1.0
C      1  0.4505200000000  0.5525280000000  0.4808530000000 1.0
C      1  0.4503730000000  0.5760750000000  0.4934440000000 1.0
C      1  0.4852300000000  0.4824080000000  0.5232190000000 1.0
C      1  0.5838340000000  0.5046480000000  0.5748920000000 1.0
C      1  0.4852250000000  0.4495780000000  0.4880130000000 1.0
C      1  0.5095050000000  0.5243890000000  0.5139320000000 1.0
C      1  0.5448430000000  0.4918780000000  0.5132070000000 1.0
C      1  0.5001420000000  0.4645510000000  0.5064620000000 1.0
C      1  0.5784840000000  0.4700420000000  0.4936300000000 1.0
C      1  0.4538570000000  0.4570760000000  0.5500660000000 1.0
C      1  0.4426450000000  0.5028150000000  0.5391090000000 1.0
C      1  0.4379530000000  0.4542240000000  0.4684910000000 1.0
C      1  0.5020640000000  0.4922830000000  0.4045710000000 1.0
C      1  0.4174900000000  0.5144710000000  0.4686150000000 1.0
C      1  0.6021370000000  0.5668760000000  0.4825780000000 1.0
C      1  0.4186440000000  0.5146930000000  0.4955990000000 1.0
C      1  0.4359270000000  0.5630780000000  0.5471040000000 1.0
C      1  0.5054300000000  0.5425260000000  0.5690410000000 1.0
C      1  0.5728880000000  0.4877630000000  0.4739160000000 1.0
C      1  0.4428260000000  0.5083070000000  0.5680570000000 1.0
C      1  0.5571690000000  0.4527140000000  0.5376910000000 1.0
C      1  0.5497360000000  0.4224550000000  0.4695990000000 1.0
C      1  0.5581370000000  0.4276040000000  0.4945830000000 1.0
C      1  0.4214960000000  0.5450560000000  0.5334160000000 1.0
C      1  0.4485520000000  0.4052190000000  0.4743620000000 1.0
C      1  0.4674700000000  0.5370450000000  0.4649780000000 1.0
C      1  0.4253130000000  0.4992970000000  0.4458580000000 1.0
C      1  0.4267920000000  0.5195890000000  0.5222090000000 1.0
C      1  0.5464140000000  0.4421430000000  0.4235460000000 1.0
C      1  0.4483000000000  0.5056830000000  0.4283880000000 1.0
C      1  0.4725050000000  0.4884510000000  0.4648630000000 1.0
C      1  0.4588540000000  0.4795760000000  0.5328790000000 1.0
C      1  0.4352640000000  0.4849450000000  0.5831250000000 1.0
C      1  0.6133560000000  0.5852420000000  0.4678670000000 1.0
C      1  0.4753710000000  0.4604580000000  0.5939850000000 1.0
C      1  0.5664890000000  0.4498830000000  0.5101940000000 1.0
C      1  0.4875420000000  0.5172080000000  0.4016780000000 1.0
C      1  0.5312580000000  0.5149600000000  0.4710400000000 1.0
C      1  0.4684890000000  0.4865230000000  0.4369010000000 1.0
C      1  0.4759300000000  0.5848530000000  0.5324220000000 1.0
C      1  0.4636200000000  0.5673860000000  0.5514020000000 1.0
C      1  0.4514260000000  0.4615220000000  0.5782170000000 1.0
C      1  0.5408710000000  0.4615330000000  0.4056930000000 1.0
C      1  0.4943650000000  0.4473860000000  0.4279330000000 1.0
C      1  0.5481550000000  0.5082560000000  0.4099690000000 1.0
C      1  0.4767210000000  0.5482740000000  0.5680070000000 1.0
C      1  0.4226600000000  0.4710590000000  0.4513540000000 1.0
C      1  0.5354140000000  0.4302300000000  0.4467270000000 1.0
C      1  0.5074290000000  0.5184480000000  0.4858440000000 1.0
END
