TITL C-627110-360-1660 4.51110837685929e-07 125000 -461.133986674921 0 0 77 (C1) n - 1
REM
REM in /home/nfs/bkarasulu/CARBON/AIRSS/Generating-Clusters/LCBOP/Only-C1/SD-CG/FIRE-CG
REM
REM
REM
REM
REM
REM ./C.cell (11c1c37f851c82e70ff6c80c92926a4b)
REM AIRSS Version 0.9.1 bugfix July 2018 build 013d7b7c2542+ Fri, 06 Jul 2018 19:26:36 +0100
REM compiler GCC version 9.2.1 20190827 (Red Hat 9.2.1-1)
REM options -cpp -mtune=generic -march=x86-64 -g -O0 -fpre-include=/usr/include/finclude/math-vector-fortran.h
REM seed 94827298 1740842473 730574824 1722650130 1226700972 24765269 1640024920 185754242 875934206 1235614374 -2073885645 1783378731 1399845377 645029770 505011663 1095098588 -283246677 -1516628987 254776870 -1380295289 -1921506441 -1945381686 1241563122 -1075221610 -1066683070 -1414175928 161478754 -1685594070 -413665033 -794929060 887329696 1647441662 -1151372394
REM
CELL 1.54180   50.00000   50.00000   50.00000   90.00000   90.00000   90.00000
LATT -1
SFAC C  
C      1  0.5761540000000  0.4707300000000  0.4586550000000 1.0
C      1  0.5078140000000  0.4381890000000  0.4126690000000 1.0
C      1  0.5276270000000  0.5016840000000  0.5827650000000 1.0
C      1  0.4997900000000  0.5889730000000  0.4629920000000 1.0
C      1  0.4310580000000  0.4508550000000  0.5601620000000 1.0
C      1  0.4821890000000  0.5221230000000  0.5703930000000 1.0
C      1  0.4992860000000  0.4636490000000  0.5764930000000 1.0
C      1  0.5130130000000  0.5248360000000  0.5743290000000 1.0
C      1  0.5250610000000  0.4818530000000  0.4732470000000 1.0
C      1  0.4994400000000  0.5488390000000  0.5384850000000 1.0
C      1  0.4259660000000  0.4783260000000  0.4737670000000 1.0
C      1  0.4748400000000  0.5471300000000  0.5551640000000 1.0
C      1  0.4901020000000  0.5540940000000  0.4306350000000 1.0
C      1  0.4638350000000  0.4228150000000  0.5365680000000 1.0
C      1  0.5305520000000  0.5767100000000  0.4977880000000 1.0
C      1  0.5203560000000  0.4546730000000  0.4291770000000 1.0
C      1  0.5329000000000  0.4721560000000  0.4464030000000 1.0
C      1  0.4958600000000  0.5266260000000  0.5201410000000 1.0
C      1  0.4498610000000  0.4267650000000  0.4644050000000 1.0
C      1  0.5193780000000  0.5965630000000  0.4815050000000 1.0
C      1  0.4374040000000  0.4306360000000  0.4897700000000 1.0
C      1  0.5581960000000  0.4875440000000  0.4428890000000 1.0
C      1  0.5289110000000  0.4874970000000  0.5379580000000 1.0
C      1  0.5629370000000  0.4569990000000  0.4806660000000 1.0
C      1  0.5093850000000  0.5044100000000  0.4672860000000 1.0
C      1  0.5494950000000  0.5161330000000  0.4457330000000 1.0
C      1  0.4828540000000  0.4657750000000  0.5105940000000 1.0
C      1  0.5502970000000  0.4817800000000  0.5207320000000 1.0
C      1  0.4919630000000  0.4227660000000  0.5309000000000 1.0
C      1  0.4987630000000  0.4410460000000  0.5097670000000 1.0
C      1  0.4463640000000  0.4199620000000  0.5142740000000 1.0
C      1  0.5238450000000  0.5438390000000  0.5534450000000 1.0
C      1  0.5199030000000  0.5190840000000  0.4449970000000 1.0
C      1  0.4508020000000  0.5514700000000  0.5395230000000 1.0
C      1  0.5815830000000  0.5525720000000  0.4476110000000 1.0
C      1  0.5210440000000  0.4329280000000  0.4935990000000 1.0
C      1  0.5627960000000  0.5386310000000  0.4900540000000 1.0
C      1  0.4979570000000  0.5271130000000  0.4279170000000 1.0
C      1  0.4420450000000  0.4744140000000  0.4492100000000 1.0
C      1  0.4489580000000  0.5733340000000  0.5205520000000 1.0
C      1  0.4554320000000  0.4936470000000  0.4328280000000 1.0
C      1  0.4763850000000  0.5083140000000  0.4236140000000 1.0
C      1  0.5971060000000  0.5692530000000  0.4349650000000 1.0
C      1  0.5060550000000  0.5010110000000  0.5280530000000 1.0
C      1  0.5264850000000  0.4757670000000  0.5669580000000 1.0
C      1  0.4537230000000  0.5723070000000  0.4935650000000 1.0
C      1  0.4833090000000  0.5681970000000  0.4540190000000 1.0
C      1  0.4823120000000  0.5033520000000  0.4734210000000 1.0
C      1  0.5727060000000  0.5332330000000  0.5359720000000 1.0
C      1  0.4752040000000  0.4790360000000  0.4866890000000 1.0
C      1  0.5431360000000  0.4507540000000  0.5680950000000 1.0
C      1  0.4248330000000  0.5097340000000  0.5165990000000 1.0
C      1  0.4163740000000  0.4714980000000  0.5517440000000 1.0
C      1  0.4770690000000  0.4486810000000  0.5756190000000 1.0
C      1  0.4501360000000  0.4469050000000  0.4459470000000 1.0
C      1  0.5275490000000  0.6231240000000  0.4836560000000 1.0
C      1  0.4698690000000  0.5282540000000  0.4805560000000 1.0
C      1  0.5133920000000  0.4151160000000  0.5476440000000 1.0
C      1  0.4455110000000  0.5277010000000  0.5232850000000 1.0
C      1  0.4827420000000  0.4838050000000  0.5338150000000 1.0
C      1  0.5346650000000  0.4261710000000  0.5600700000000 1.0
C      1  0.5469240000000  0.4332610000000  0.4843260000000 1.0
C      1  0.4661490000000  0.5559050000000  0.4732080000000 1.0
C      1  0.4950190000000  0.4221290000000  0.3966080000000 1.0
C      1  0.5467800000000  0.5462150000000  0.5363940000000 1.0
C      1  0.4699320000000  0.5258750000000  0.5085360000000 1.0
C      1  0.5353660000000  0.6479030000000  0.4856880000000 1.0
C      1  0.5438330000000  0.5540620000000  0.5071570000000 1.0
C      1  0.5814940000000  0.5285710000000  0.5100050000000 1.0
C      1  0.4217240000000  0.5015720000000  0.4893680000000 1.0
C      1  0.5643600000000  0.5353650000000  0.4615620000000 1.0
C      1  0.5451310000000  0.4772040000000  0.4934050000000 1.0
C      1  0.4721370000000  0.4971830000000  0.5579540000000 1.0
C      1  0.4138440000000  0.4933570000000  0.5366430000000 1.0
C      1  0.4561620000000  0.4382610000000  0.5595840000000 1.0
C      1  0.5755320000000  0.4778220000000  0.5307120000000 1.0
C      1  0.4210370000000  0.4539320000000  0.4885130000000 1.0
END
