TITL C-627112-676-738 -1.9465330832768e-06 125000 -617.815370505738 0 0 102 (C1) n - 1
REM
REM in /home/nfs/bkarasulu/CARBON/AIRSS/Generating-Clusters/LCBOP/Only-C1/SD-CG/FIRE-CG
REM
REM
REM
REM
REM
REM ./C.cell (11c1c37f851c82e70ff6c80c92926a4b)
REM AIRSS Version 0.9.1 bugfix July 2018 build 013d7b7c2542+ Fri, 06 Jul 2018 19:26:36 +0100
REM compiler GCC version 9.2.1 20190827 (Red Hat 9.2.1-1)
REM options -cpp -mtune=generic -march=x86-64 -g -O0 -fpre-include=/usr/include/finclude/math-vector-fortran.h
REM seed -1591069274 -1652077037 1712068649 -312897973 -1900200881 -2137545089 31954464 397133703 1000605074 -380117889 -1327424502 2139416758 2126491716 1129041797 -1033233283 276947866 -1493059049 2055909332 -656437918 -1294147765 1878170864 1517325584 1107290611 -530885680 1654033511 690413267 -232353943 -358174816 1125764174 2022724432 1917903350 -2126216127 -1907894277
REM
CELL 1.54180   50.00000   50.00000   50.00000   90.00000   90.00000   90.00000
LATT -1
SFAC C  
C      1  0.4517810000000  0.5009610000000  0.4174050000000 1.0
C      1  0.4885110000000  0.5654790000000  0.4672160000000 1.0
C      1  0.5210190000000  0.5081640000000  0.4423070000000 1.0
C      1  0.4456400000000  0.4046490000000  0.5079980000000 1.0
C      1  0.5777700000000  0.5895650000000  0.3901540000000 1.0
C      1  0.5493680000000  0.5583330000000  0.5563740000000 1.0
C      1  0.4830280000000  0.5550440000000  0.5389380000000 1.0
C      1  0.4864360000000  0.5280370000000  0.4983610000000 1.0
C      1  0.4502860000000  0.5261630000000  0.4703350000000 1.0
C      1  0.5248660000000  0.4660570000000  0.5216220000000 1.0
C      1  0.5023460000000  0.5757230000000  0.5468350000000 1.0
C      1  0.5110850000000  0.4902320000000  0.5956760000000 1.0
C      1  0.5229010000000  0.5007490000000  0.4143800000000 1.0
C      1  0.4917530000000  0.5045430000000  0.5476230000000 1.0
C      1  0.5622300000000  0.5303220000000  0.5538740000000 1.0
C      1  0.4865900000000  0.5384500000000  0.4262230000000 1.0
C      1  0.5218660000000  0.5618870000000  0.5670460000000 1.0
C      1  0.4456520000000  0.5032300000000  0.5126960000000 1.0
C      1  0.4934760000000  0.4468740000000  0.5561190000000 1.0
C      1  0.4193110000000  0.4448560000000  0.4753030000000 1.0
C      1  0.4295090000000  0.5451070000000  0.4727010000000 1.0
C      1  0.4523960000000  0.4357440000000  0.4413730000000 1.0
C      1  0.4054540000000  0.5184640000000  0.5291940000000 1.0
C      1  0.5084380000000  0.4176720000000  0.5222530000000 1.0
C      1  0.4966200000000  0.5018430000000  0.5018150000000 1.0
C      1  0.4455460000000  0.4027280000000  0.5372350000000 1.0
C      1  0.5741320000000  0.5304590000000  0.5248610000000 1.0
C      1  0.3892930000000  0.4970630000000  0.5195290000000 1.0
C      1  0.4996950000000  0.4806320000000  0.4826370000000 1.0
C      1  0.4500220000000  0.4148110000000  0.5614900000000 1.0
C      1  0.5115580000000  0.5382590000000  0.5841370000000 1.0
C      1  0.4326620000000  0.5112280000000  0.5365330000000 1.0
C      1  0.5386330000000  0.5918570000000  0.5201920000000 1.0
C      1  0.4795530000000  0.5342220000000  0.4703800000000 1.0
C      1  0.5671410000000  0.4609670000000  0.5466410000000 1.0
C      1  0.5335630000000  0.5791460000000  0.4073100000000 1.0
C      1  0.5596430000000  0.5195180000000  0.3836420000000 1.0
C      1  0.5738140000000  0.5584760000000  0.5156100000000 1.0
C      1  0.4385370000000  0.4596470000000  0.4539140000000 1.0
C      1  0.5577460000000  0.5469170000000  0.3782540000000 1.0
C      1  0.4687910000000  0.3949570000000  0.4662290000000 1.0
C      1  0.4932920000000  0.5754180000000  0.4962380000000 1.0
C      1  0.5556930000000  0.5970390000000  0.4045030000000 1.0
C      1  0.5241800000000  0.5342510000000  0.5313220000000 1.0
C      1  0.4380620000000  0.4809040000000  0.4302970000000 1.0
C      1  0.5349310000000  0.4204320000000  0.5331930000000 1.0
C      1  0.4434870000000  0.5045440000000  0.5627500000000 1.0
C      1  0.4721480000000  0.4516130000000  0.5114780000000 1.0
C      1  0.4842690000000  0.4810280000000  0.5875710000000 1.0
C      1  0.5425280000000  0.5591950000000  0.4504200000000 1.0
C      1  0.4119580000000  0.5521790000000  0.4918410000000 1.0
C      1  0.4439490000000  0.4487870000000  0.5162480000000 1.0
C      1  0.5604430000000  0.4333100000000  0.5377070000000 1.0
C      1  0.4306220000000  0.4581790000000  0.5656750000000 1.0
C      1  0.5236870000000  0.5708570000000  0.4324510000000 1.0
C      1  0.5275010000000  0.4766710000000  0.4762260000000 1.0
C      1  0.5573220000000  0.5744170000000  0.5328130000000 1.0
C      1  0.6033860000000  0.4444980000000  0.4841180000000 1.0
C      1  0.5793850000000  0.5654450000000  0.3773380000000 1.0
C      1  0.5339460000000  0.5098820000000  0.5260630000000 1.0
C      1  0.4794290000000  0.5535780000000  0.5109710000000 1.0
C      1  0.4328910000000  0.4296420000000  0.4973110000000 1.0
C      1  0.4649940000000  0.5468030000000  0.6016010000000 1.0
C      1  0.4545610000000  0.4758300000000  0.4737440000000 1.0
C      1  0.4275800000000  0.4561620000000  0.5376700000000 1.0
C      1  0.4986290000000  0.5320470000000  0.5433550000000 1.0
C      1  0.4950590000000  0.3976590000000  0.5073480000000 1.0
C      1  0.4774310000000  0.4641080000000  0.4858740000000 1.0
C      1  0.5582980000000  0.5459190000000  0.4695650000000 1.0
C      1  0.4965560000000  0.5218570000000  0.4488330000000 1.0
C      1  0.5734300000000  0.5617840000000  0.4876650000000 1.0
C      1  0.4977620000000  0.5013070000000  0.4003850000000 1.0
C      1  0.5272640000000  0.5130740000000  0.5866050000000 1.0
C      1  0.4466950000000  0.5010680000000  0.4843360000000 1.0
C      1  0.5995010000000  0.4712280000000  0.4841360000000 1.0
C      1  0.4627460000000  0.4116320000000  0.4462200000000 1.0
C      1  0.4027370000000  0.5431700000000  0.5155070000000 1.0
C      1  0.3962950000000  0.4594940000000  0.4836340000000 1.0
C      1  0.3868200000000  0.4776090000000  0.5011160000000 1.0
C      1  0.5877900000000  0.4869110000000  0.5044160000000 1.0
C      1  0.4909780000000  0.4393060000000  0.5293000000000 1.0
C      1  0.5376710000000  0.4615320000000  0.4977280000000 1.0
C      1  0.5572540000000  0.4801110000000  0.5655030000000 1.0
C      1  0.5573990000000  0.5177050000000  0.4770680000000 1.0
C      1  0.5332820000000  0.5596270000000  0.3863510000000 1.0
C      1  0.4728370000000  0.5051200000000  0.5715120000000 1.0
C      1  0.4284800000000  0.4841960000000  0.5760590000000 1.0
C      1  0.4770410000000  0.4547050000000  0.5774740000000 1.0
C      1  0.5465880000000  0.5023000000000  0.3995220000000 1.0
C      1  0.4750110000000  0.5166920000000  0.4096020000000 1.0
C      1  0.5386510000000  0.4996230000000  0.4634160000000 1.0
C      1  0.4514180000000  0.4407940000000  0.5747990000000 1.0
C      1  0.5817250000000  0.4209440000000  0.5230650000000 1.0
C      1  0.4696430000000  0.3954860000000  0.4943310000000 1.0
C      1  0.5966790000000  0.4246950000000  0.5010570000000 1.0
C      1  0.5512140000000  0.5080770000000  0.5704550000000 1.0
C      1  0.5857000000000  0.4737590000000  0.5292130000000 1.0
C      1  0.4824020000000  0.5319890000000  0.5868560000000 1.0
C      1  0.5105240000000  0.5870380000000  0.5195580000000 1.0
C      1  0.4957580000000  0.5652150000000  0.4374520000000 1.0
C      1  0.5734980000000  0.5113900000000  0.5017320000000 1.0
C      1  0.5103350000000  0.4911290000000  0.5269860000000 1.0
END
