TITL C-627107-135-26 0.0113932593102603 125000 -317.948239564934 0 0 54 (C1) n - 1
REM
REM in /home/nfs/bkarasulu/CARBON/AIRSS/Generating-Clusters/LCBOP/Only-C1/SD-CG/FIRE-CG
REM
REM
REM
REM
REM
REM ./C.cell (11c1c37f851c82e70ff6c80c92926a4b)
REM AIRSS Version 0.9.1 bugfix July 2018 build 013d7b7c2542+ Fri, 06 Jul 2018 19:26:36 +0100
REM compiler GCC version 9.2.1 20190827 (Red Hat 9.2.1-1)
REM options -cpp -mtune=generic -march=x86-64 -g -O0 -fpre-include=/usr/include/finclude/math-vector-fortran.h
REM seed -460099881 1038997846 293108762 -1079974552 1408941912 297875001 -653688438 1811415893 171338309 149000743 1925124230 -1201064497 60436220 -793166492 -1049027774 492560097 -1769458348 1324460037 -228229886 552679179 -1726198496 -1329244100 1200041814 1630185100 -1762729264 873586728 -1588833231 -1862319552 -1705526445 -1251306144 666324717 -197030958 610517813
REM
CELL 1.54180   50.00000   50.00000   50.00000   90.00000   90.00000   90.00000
LATT -1
SFAC C  
C      1  0.5695690000000  0.5376650000000  0.5032290000000 1.0
C      1  0.4823730000000  0.5475430000000  0.5500700000000 1.0
C      1  0.5734710000000  0.4711510000000  0.5388520000000 1.0
C      1  0.5369280000000  0.4344460000000  0.5391170000000 1.0
C      1  0.5371500000000  0.4947250000000  0.5008770000000 1.0
C      1  0.4809530000000  0.4888270000000  0.5672700000000 1.0
C      1  0.5522320000000  0.4802290000000  0.4818680000000 1.0
C      1  0.5591180000000  0.5369190000000  0.5672190000000 1.0
C      1  0.4445880000000  0.5380290000000  0.4874480000000 1.0
C      1  0.3952260000000  0.4277690000000  0.4068700000000 1.0
C      1  0.5108680000000  0.4298640000000  0.5363740000000 1.0
C      1  0.4921080000000  0.5505730000000  0.5019010000000 1.0
C      1  0.5449270000000  0.5487460000000  0.5470820000000 1.0
C      1  0.4794740000000  0.5589240000000  0.5256590000000 1.0
C      1  0.4825940000000  0.6210610000000  0.3997790000000 1.0
C      1  0.4813270000000  0.6048130000000  0.4206820000000 1.0
C      1  0.4698970000000  0.4791030000000  0.5909850000000 1.0
C      1  0.5306000000000  0.5663580000000  0.4795500000000 1.0
C      1  0.5220080000000  0.5156900000000  0.5119550000000 1.0
C      1  0.4884260000000  0.5085640000000  0.4760860000000 1.0
C      1  0.4678320000000  0.4834500000000  0.5420630000000 1.0
C      1  0.4137780000000  0.4258280000000  0.4250820000000 1.0
C      1  0.5048640000000  0.5042280000000  0.5678520000000 1.0
C      1  0.4710680000000  0.4571720000000  0.5326120000000 1.0
C      1  0.4819630000000  0.4248400000000  0.4569140000000 1.0
C      1  0.4596910000000  0.4695860000000  0.6129930000000 1.0
C      1  0.4505510000000  0.4197920000000  0.4908930000000 1.0
C      1  0.4327010000000  0.4239620000000  0.4435300000000 1.0
C      1  0.4559310000000  0.5564100000000  0.4709220000000 1.0
C      1  0.5579110000000  0.5083570000000  0.5658880000000 1.0
C      1  0.4530780000000  0.4230310000000  0.4621460000000 1.0
C      1  0.4805110000000  0.4710640000000  0.4419070000000 1.0
C      1  0.4445490000000  0.5193650000000  0.5071590000000 1.0
C      1  0.5792830000000  0.4839340000000  0.4793790000000 1.0
C      1  0.4801100000000  0.5885790000000  0.4415750000000 1.0
C      1  0.4838400000000  0.6370420000000  0.3792190000000 1.0
C      1  0.4941810000000  0.4145820000000  0.4813030000000 1.0
C      1  0.5720820000000  0.4989200000000  0.5422920000000 1.0
C      1  0.5769950000000  0.5183810000000  0.5212310000000 1.0
C      1  0.4534140000000  0.5023700000000  0.5262880000000 1.0
C      1  0.4793990000000  0.5715370000000  0.4634630000000 1.0
C      1  0.5223760000000  0.4499140000000  0.4486180000000 1.0
C      1  0.4765010000000  0.4185020000000  0.5040350000000 1.0
C      1  0.5596170000000  0.4483630000000  0.5388350000000 1.0
C      1  0.4946620000000  0.4469380000000  0.4448590000000 1.0
C      1  0.5322580000000  0.4970140000000  0.5737000000000 1.0
C      1  0.5247570000000  0.5323170000000  0.5355170000000 1.0
C      1  0.4851680000000  0.4339050000000  0.5258500000000 1.0
C      1  0.4991070000000  0.5233180000000  0.4971440000000 1.0
C      1  0.5029020000000  0.5288190000000  0.5540000000000 1.0
C      1  0.4798030000000  0.4939330000000  0.4556680000000 1.0
C      1  0.5400440000000  0.4620950000000  0.4643410000000 1.0
C      1  0.5532670000000  0.5542680000000  0.4889180000000 1.0
C      1  0.5019650000000  0.5671880000000  0.4809330000000 1.0
END
