TITL C-627107-135-654 2.79934936639263 125000 -875.010699627096 0 0 143 (C1) n - 1
REM
REM in /home/nfs/bkarasulu/CARBON/AIRSS/Generating-Clusters/LCBOP/Only-C1/SD-CG/FIRE-CG
REM
REM
REM
REM
REM
REM ./C.cell (11c1c37f851c82e70ff6c80c92926a4b)
REM AIRSS Version 0.9.1 bugfix July 2018 build 013d7b7c2542+ Fri, 06 Jul 2018 19:26:36 +0100
REM compiler GCC version 9.2.1 20190827 (Red Hat 9.2.1-1)
REM options -cpp -mtune=generic -march=x86-64 -g -O0 -fpre-include=/usr/include/finclude/math-vector-fortran.h
REM seed 648867465 -1716213378 1451329548 -740303702 188133008 64874146 -985720039 -1678545890 -95238946 -1152568745 115565524 1053838729 -1621765246 -1213215759 1583066971 1224854218 2106311308 -1493470123 -949741658 -801728797 -1725763792 -1531440394 -1135531785 -1085372766 1169208492 171649722 514453351 -757463220 -682599228 597031759 -17639497 -1661604013 -676049873
REM
CELL 1.54180   50.00000   50.00000   50.00000   90.00000   90.00000   90.00000
LATT -1
SFAC C  
C      1  0.4641840000000  0.5659450000000  0.5965340000000 1.0
C      1  0.5687390000000  0.4759700000000  0.4310600000000 1.0
C      1  0.4645300000000  0.5413570000000  0.4886340000000 1.0
C      1  0.4711810000000  0.5635830000000  0.5328880000000 1.0
C      1  0.6018150000000  0.5177510000000  0.5064840000000 1.0
C      1  0.4767960000000  0.6097870000000  0.5237930000000 1.0
C      1  0.4951280000000  0.4860030000000  0.6137580000000 1.0
C      1  0.5643820000000  0.4176950000000  0.5046950000000 1.0
C      1  0.4842450000000  0.4718150000000  0.5353520000000 1.0
C      1  0.4796700000000  0.5506840000000  0.4187630000000 1.0
C      1  0.6150600000000  0.5006470000000  0.4864500000000 1.0
C      1  0.5532490000000  0.6544280000000  0.4565610000000 1.0
C      1  0.5535590000000  0.4648770000000  0.4527050000000 1.0
C      1  0.4676200000000  0.4764300000000  0.5599600000000 1.0
C      1  0.5546460000000  0.5198540000000  0.4644130000000 1.0
C      1  0.4820050000000  0.5552270000000  0.4470290000000 1.0
C      1  0.4526070000000  0.3944000000000  0.4632830000000 1.0
C      1  0.5607760000000  0.5481740000000  0.5719490000000 1.0
C      1  0.4835040000000  0.4165660000000  0.5516010000000 1.0
C      1  0.4045100000000  0.5286630000000  0.4400380000000 1.0
C      1  0.3834980000000  0.4717720000000  0.5364940000000 1.0
C      1  0.4964860000000  0.4122810000000  0.4134520000000 1.0
C      1  0.5042850000000  0.4787930000000  0.3804020000000 1.0
C      1  0.4894120000000  0.3875740000000  0.5509270000000 1.0
C      1  0.4732520000000  0.4280850000000  0.4100570000000 1.0
C      1  0.4380950000000  0.4043670000000  0.5455440000000 1.0
C      1  0.5584260000000  0.4075110000000  0.4361580000000 1.0
C      1  0.4365430000000  0.5219360000000  0.5545360000000 1.0
C      1  0.4332180000000  0.4546970000000  0.5866170000000 1.0
C      1  0.4768330000000  0.4674380000000  0.6066490000000 1.0
C      1  0.4997850000000  0.3783430000000  0.5746320000000 1.0
C      1  0.4567290000000  0.5108360000000  0.4457830000000 1.0
C      1  0.4480630000000  0.4461530000000  0.4908900000000 1.0
C      1  0.4582080000000  0.4223170000000  0.5382670000000 1.0
C      1  0.5382130000000  0.6340750000000  0.4676480000000 1.0
C      1  0.5095920000000  0.5057190000000  0.5994520000000 1.0
C      1  0.5646850000000  0.5010160000000  0.4817020000000 1.0
C      1  0.5595070000000  0.5020130000000  0.5281030000000 1.0
C      1  0.5063720000000  0.5367370000000  0.5134220000000 1.0
C      1  0.5717240000000  0.4101220000000  0.5309150000000 1.0
C      1  0.5953220000000  0.4820190000000  0.4417530000000 1.0
C      1  0.4236680000000  0.5415430000000  0.5712620000000 1.0
C      1  0.4214460000000  0.4423390000000  0.4792410000000 1.0
C      1  0.4806420000000  0.5465890000000  0.5821740000000 1.0
C      1  0.4561880000000  0.4824250000000  0.4530670000000 1.0
C      1  0.3963610000000  0.5441760000000  0.5693130000000 1.0
C      1  0.4660680000000  0.5351150000000  0.4611370000000 1.0
C      1  0.4117700000000  0.5561440000000  0.4372880000000 1.0
C      1  0.5759690000000  0.4149910000000  0.5567890000000 1.0
C      1  0.5623760000000  0.6225770000000  0.5129000000000 1.0
C      1  0.5319800000000  0.4705000000000  0.5747090000000 1.0
C      1  0.4220040000000  0.4538100000000  0.4338540000000 1.0
C      1  0.4804630000000  0.5906110000000  0.5914010000000 1.0
C      1  0.5434630000000  0.5190070000000  0.5429960000000 1.0
C      1  0.4607000000000  0.4614530000000  0.5841230000000 1.0
C      1  0.5260260000000  0.5273740000000  0.4654210000000 1.0
C      1  0.3882050000000  0.4671150000000  0.5628750000000 1.0
C      1  0.5312300000000  0.4681360000000  0.5466790000000 1.0
C      1  0.5012550000000  0.4259070000000  0.5756450000000 1.0
C      1  0.4750580000000  0.4769410000000  0.3870030000000 1.0
C      1  0.5642400000000  0.5685120000000  0.5503510000000 1.0
C      1  0.4498660000000  0.4138430000000  0.4184620000000 1.0
C      1  0.5049710000000  0.6056080000000  0.5236730000000 1.0
C      1  0.5395780000000  0.4202430000000  0.4512090000000 1.0
C      1  0.5507330000000  0.4756480000000  0.5280520000000 1.0
C      1  0.5272260000000  0.5564040000000  0.4603440000000 1.0
C      1  0.4075580000000  0.4593960000000  0.5799910000000 1.0
C      1  0.5169440000000  0.5956550000000  0.5486730000000 1.0
C      1  0.4994860000000  0.4946550000000  0.4928990000000 1.0
C      1  0.5686620000000  0.4233380000000  0.5811260000000 1.0
C      1  0.3996080000000  0.4702490000000  0.4391710000000 1.0
C      1  0.4271340000000  0.4583580000000  0.5281960000000 1.0
C      1  0.5684930000000  0.6736830000000  0.4466210000000 1.0
C      1  0.5233010000000  0.4434510000000  0.5083510000000 1.0
C      1  0.4362980000000  0.5188970000000  0.5261700000000 1.0
C      1  0.5062930000000  0.4831320000000  0.4678860000000 1.0
C      1  0.5835550000000  0.5802880000000  0.5035840000000 1.0
C      1  0.4539920000000  0.5033230000000  0.5125320000000 1.0
C      1  0.4989030000000  0.5161630000000  0.5553530000000 1.0
C      1  0.5735490000000  0.5702140000000  0.4794080000000 1.0
C      1  0.6006250000000  0.4524100000000  0.4808810000000 1.0
C      1  0.5852550000000  0.6084180000000  0.5043520000000 1.0
C      1  0.5031750000000  0.3951840000000  0.4333390000000 1.0
C      1  0.4482090000000  0.4654720000000  0.4301540000000 1.0
C      1  0.5347280000000  0.4981320000000  0.5862030000000 1.0
C      1  0.4801690000000  0.5480280000000  0.5113790000000 1.0
C      1  0.4387280000000  0.4101570000000  0.4444440000000 1.0
C      1  0.5030270000000  0.3945030000000  0.4621770000000 1.0
C      1  0.4573490000000  0.4992910000000  0.3937450000000 1.0
C      1  0.5063810000000  0.5975020000000  0.4710620000000 1.0
C      1  0.4026050000000  0.4673080000000  0.5161960000000 1.0
C      1  0.5576100000000  0.6173730000000  0.5403780000000 1.0
C      1  0.4774230000000  0.3901750000000  0.4729240000000 1.0
C      1  0.4488720000000  0.4420000000000  0.5193950000000 1.0
C      1  0.5173760000000  0.6190290000000  0.4543900000000 1.0
C      1  0.5313220000000  0.4042750000000  0.6062720000000 1.0
C      1  0.5129260000000  0.5207260000000  0.4919820000000 1.0
C      1  0.5835650000000  0.6926080000000  0.4369100000000 1.0
C      1  0.4532150000000  0.5012410000000  0.5639800000000 1.0
C      1  0.6028450000000  0.5411710000000  0.5232460000000 1.0
C      1  0.5087380000000  0.4563730000000  0.5320080000000 1.0
C      1  0.4311860000000  0.5666700000000  0.4211960000000 1.0
C      1  0.5075050000000  0.4000580000000  0.5913920000000 1.0
C      1  0.5306480000000  0.4788200000000  0.3898490000000 1.0
C      1  0.4374310000000  0.5584940000000  0.5900570000000 1.0
C      1  0.5324990000000  0.4472040000000  0.4481810000000 1.0
C      1  0.5525960000000  0.5680040000000  0.4631240000000 1.0
C      1  0.5846650000000  0.4321750000000  0.4898140000000 1.0
C      1  0.4942470000000  0.5225130000000  0.5825440000000 1.0
C      1  0.4930150000000  0.5260460000000  0.4108300000000 1.0
C      1  0.4851950000000  0.5617450000000  0.5574040000000 1.0
C      1  0.4450630000000  0.5106410000000  0.4175990000000 1.0
C      1  0.5242670000000  0.4444650000000  0.5847480000000 1.0
C      1  0.4598290000000  0.5889060000000  0.5271190000000 1.0
C      1  0.5170750000000  0.5264310000000  0.5370410000000 1.0
C      1  0.5492390000000  0.5209900000000  0.5713810000000 1.0
C      1  0.4553610000000  0.5623410000000  0.4093250000000 1.0
C      1  0.5129200000000  0.5060880000000  0.4496270000000 1.0
C      1  0.3962760000000  0.4831100000000  0.4649110000000 1.0
C      1  0.4226190000000  0.4318870000000  0.4526570000000 1.0
C      1  0.5552720000000  0.4747010000000  0.4791060000000 1.0
C      1  0.5076340000000  0.4603450000000  0.4500060000000 1.0
C      1  0.4975670000000  0.5865900000000  0.5674150000000 1.0
C      1  0.5352060000000  0.4187080000000  0.4983330000000 1.0
C      1  0.5009750000000  0.5014650000000  0.4241470000000 1.0
C      1  0.4169200000000  0.5145920000000  0.4183090000000 1.0
C      1  0.5530680000000  0.4791610000000  0.4063400000000 1.0
C      1  0.5749920000000  0.5087010000000  0.5063130000000 1.0
C      1  0.4790140000000  0.4895130000000  0.5126640000000 1.0
C      1  0.5459790000000  0.5927490000000  0.5495400000000 1.0
C      1  0.5259450000000  0.4077480000000  0.4733500000000 1.0
C      1  0.5029880000000  0.5710920000000  0.4594800000000 1.0
C      1  0.5453750000000  0.4272350000000  0.5962640000000 1.0
C      1  0.5844760000000  0.5636220000000  0.5274590000000 1.0
C      1  0.4028670000000  0.4646820000000  0.4872570000000 1.0
C      1  0.5404370000000  0.6237780000000  0.4946480000000 1.0
C      1  0.3960050000000  0.5117800000000  0.4617860000000 1.0
C      1  0.5447000000000  0.4636380000000  0.5026730000000 1.0
C      1  0.5172980000000  0.6056260000000  0.4981990000000 1.0
C      1  0.4609600000000  0.4667760000000  0.4762530000000 1.0
C      1  0.6067870000000  0.4782390000000  0.4688030000000 1.0
C      1  0.4955280000000  0.4713580000000  0.4265070000000 1.0
C      1  0.4725110000000  0.4584720000000  0.4116490000000 1.0
END
