TITL C-627113-6568-608 0.208331158049513 125000 -950.689839713418 0 0 154 (C1) n - 1
REM
REM in /home/nfs/bkarasulu/CARBON/AIRSS/Generating-Clusters/LCBOP/Only-C1/SD-CG/FIRE-CG
REM
REM
REM
REM
REM
REM ./C.cell (11c1c37f851c82e70ff6c80c92926a4b)
REM AIRSS Version 0.9.1 bugfix July 2018 build 013d7b7c2542+ Fri, 06 Jul 2018 19:26:36 +0100
REM compiler GCC version 9.2.1 20190827 (Red Hat 9.2.1-1)
REM options -cpp -mtune=generic -march=x86-64 -g -O0 -fpre-include=/usr/include/finclude/math-vector-fortran.h
REM seed -157699494 405632425 -825414876 -837534513 676223877 1917848034 -262957693 578851188 -213139046 1125610658 1755322962 -1270569928 405900173 -1084422196 1124986730 -1126718218 980424790 1014646429 -1078115415 -1505470670 1228849876 991844638 1895438224 1525839223 965097384 1929272601 -604126630 -1244385717 -1815517620 46750492 1890330729 -917779510 1126077002
REM
CELL 1.54180   50.00000   50.00000   50.00000   90.00000   90.00000   90.00000
LATT -1
SFAC C  
C      1  0.4754120000000  0.5365720000000  0.4782660000000 1.0
C      1  0.5087850000000  0.3942350000000  0.5333370000000 1.0
C      1  0.5734440000000  0.3691500000000  0.4329310000000 1.0
C      1  0.5776270000000  0.5900120000000  0.5318670000000 1.0
C      1  0.4822110000000  0.4014320000000  0.5231880000000 1.0
C      1  0.6023200000000  0.5461740000000  0.5765740000000 1.0
C      1  0.4877860000000  0.4187700000000  0.5685620000000 1.0
C      1  0.4684490000000  0.4661830000000  0.5331910000000 1.0
C      1  0.5543970000000  0.3778850000000  0.4512110000000 1.0
C      1  0.5394700000000  0.5170480000000  0.6193080000000 1.0
C      1  0.4024310000000  0.4967020000000  0.4637000000000 1.0
C      1  0.4609450000000  0.5611600000000  0.4788720000000 1.0
C      1  0.6434910000000  0.3435250000000  0.3582370000000 1.0
C      1  0.5244580000000  0.4938190000000  0.4771940000000 1.0
C      1  0.4666890000000  0.4713780000000  0.4426290000000 1.0
C      1  0.5125050000000  0.4065770000000  0.5606650000000 1.0
C      1  0.5641670000000  0.5316590000000  0.4406710000000 1.0
C      1  0.4484800000000  0.4903310000000  0.5979480000000 1.0
C      1  0.4838260000000  0.6059270000000  0.5354210000000 1.0
C      1  0.5837430000000  0.5896880000000  0.4828290000000 1.0
C      1  0.4174890000000  0.4789820000000  0.5593030000000 1.0
C      1  0.5749160000000  0.5398780000000  0.5783670000000 1.0
C      1  0.5354130000000  0.3910700000000  0.5227310000000 1.0
C      1  0.3963620000000  0.5233840000000  0.5538050000000 1.0
C      1  0.3536120000000  0.5166100000000  0.5217830000000 1.0
C      1  0.4915610000000  0.5014550000000  0.5523770000000 1.0
C      1  0.4912070000000  0.5489890000000  0.6019560000000 1.0
C      1  0.6262320000000  0.3497570000000  0.3767550000000 1.0
C      1  0.5185580000000  0.5511780000000  0.5366160000000 1.0
C      1  0.4174140000000  0.5026450000000  0.4156840000000 1.0
C      1  0.4505650000000  0.4299200000000  0.4621330000000 1.0
C      1  0.4983630000000  0.5928400000000  0.4627770000000 1.0
C      1  0.4416560000000  0.5624300000000  0.4997970000000 1.0
C      1  0.5377770000000  0.5554170000000  0.5161130000000 1.0
C      1  0.3981800000000  0.5237690000000  0.4696160000000 1.0
C      1  0.5550150000000  0.4606630000000  0.5092100000000 1.0
C      1  0.4047140000000  0.4673220000000  0.5100360000000 1.0
C      1  0.5122520000000  0.5109240000000  0.4978380000000 1.0
C      1  0.6020150000000  0.5521940000000  0.5060580000000 1.0
C      1  0.5138080000000  0.6655580000000  0.4659490000000 1.0
C      1  0.4718040000000  0.5871540000000  0.4717960000000 1.0
C      1  0.6157610000000  0.5423670000000  0.5532240000000 1.0
C      1  0.5537070000000  0.4076860000000  0.5381740000000 1.0
C      1  0.4949190000000  0.4584810000000  0.5248360000000 1.0
C      1  0.4920790000000  0.5462780000000  0.5259280000000 1.0
C      1  0.5100760000000  0.5058730000000  0.3931240000000 1.0
C      1  0.5208220000000  0.4742440000000  0.5972940000000 1.0
C      1  0.5438530000000  0.4796100000000  0.4919550000000 1.0
C      1  0.5911090000000  0.5794990000000  0.5086520000000 1.0
C      1  0.4836450000000  0.5843880000000  0.5564080000000 1.0
C      1  0.5003780000000  0.4480000000000  0.5000170000000 1.0
C      1  0.4700800000000  0.5416730000000  0.4320750000000 1.0
C      1  0.4862370000000  0.5193580000000  0.3849410000000 1.0
C      1  0.4385350000000  0.5175690000000  0.4039540000000 1.0
C      1  0.4518170000000  0.4599680000000  0.3956710000000 1.0
C      1  0.4374570000000  0.4338560000000  0.4367260000000 1.0
C      1  0.5457570000000  0.4442240000000  0.4367440000000 1.0
C      1  0.3860480000000  0.5751440000000  0.4728180000000 1.0
C      1  0.4949120000000  0.5197200000000  0.6008950000000 1.0
C      1  0.5448570000000  0.3747200000000  0.5024400000000 1.0
C      1  0.5489140000000  0.4337460000000  0.5820070000000 1.0
C      1  0.4133440000000  0.4220080000000  0.4282220000000 1.0
C      1  0.5301010000000  0.5446420000000  0.5620750000000 1.0
C      1  0.3905020000000  0.5490890000000  0.4709220000000 1.0
C      1  0.4694110000000  0.5600520000000  0.5415070000000 1.0
C      1  0.4787160000000  0.4405260000000  0.5858310000000 1.0
C      1  0.5664700000000  0.5165900000000  0.5609910000000 1.0
C      1  0.3883640000000  0.4661010000000  0.4285540000000 1.0
C      1  0.4076580000000  0.4643760000000  0.5368310000000 1.0
C      1  0.4520150000000  0.4114160000000  0.4833200000000 1.0
C      1  0.4443490000000  0.5516360000000  0.5829410000000 1.0
C      1  0.4045030000000  0.4784040000000  0.4854500000000 1.0
C      1  0.3853260000000  0.6014430000000  0.4760480000000 1.0
C      1  0.5359000000000  0.4211530000000  0.3989840000000 1.0
C      1  0.4739140000000  0.3981250000000  0.4959760000000 1.0
C      1  0.5374530000000  0.5356270000000  0.4269260000000 1.0
C      1  0.5486510000000  0.4635360000000  0.4148050000000 1.0
C      1  0.4817490000000  0.4955450000000  0.4478150000000 1.0
C      1  0.5379140000000  0.5630430000000  0.6045080000000 1.0
C      1  0.4527150000000  0.4491950000000  0.5746910000000 1.0
C      1  0.5510540000000  0.5561100000000  0.5800300000000 1.0
C      1  0.5171960000000  0.4576930000000  0.5418840000000 1.0
C      1  0.3862380000000  0.6272270000000  0.4797820000000 1.0
C      1  0.5787390000000  0.5475830000000  0.4593520000000 1.0
C      1  0.5355640000000  0.5144740000000  0.5672860000000 1.0
C      1  0.5108830000000  0.5696770000000  0.5963720000000 1.0
C      1  0.5981390000000  0.5404300000000  0.4795710000000 1.0
C      1  0.5549300000000  0.3703960000000  0.4782160000000 1.0
C      1  0.5679660000000  0.5735260000000  0.4651590000000 1.0
C      1  0.5564240000000  0.5967110000000  0.5477200000000 1.0
C      1  0.5911290000000  0.3624520000000  0.4143880000000 1.0
C      1  0.4699930000000  0.4180540000000  0.5437330000000 1.0
C      1  0.5869970000000  0.4366170000000  0.4813030000000 1.0
C      1  0.4168350000000  0.5550940000000  0.5863480000000 1.0
C      1  0.4895300000000  0.5472860000000  0.3902620000000 1.0
C      1  0.5083230000000  0.5860610000000  0.5723240000000 1.0
C      1  0.5318540000000  0.5109910000000  0.4105510000000 1.0
C      1  0.3749480000000  0.5200970000000  0.5363370000000 1.0
C      1  0.5405190000000  0.5736520000000  0.4706480000000 1.0
C      1  0.5730670000000  0.4391360000000  0.5046880000000 1.0
C      1  0.4618390000000  0.6021800000000  0.5177220000000 1.0
C      1  0.5106070000000  0.6136230000000  0.4795540000000 1.0
C      1  0.4456240000000  0.5406150000000  0.4184950000000 1.0
C      1  0.5521040000000  0.4910280000000  0.4170880000000 1.0
C      1  0.5328350000000  0.3949930000000  0.4436500000000 1.0
C      1  0.5170700000000  0.5557540000000  0.4314740000000 1.0
C      1  0.5233300000000  0.5052670000000  0.5960000000000 1.0
C      1  0.6019070000000  0.5356520000000  0.5294610000000 1.0
C      1  0.6015170000000  0.4137660000000  0.5349600000000 1.0
C      1  0.6086840000000  0.3560940000000  0.3955830000000 1.0
C      1  0.4462140000000  0.5147690000000  0.5481830000000 1.0
C      1  0.5422910000000  0.5436470000000  0.6247300000000 1.0
C      1  0.4559490000000  0.4435900000000  0.5460980000000 1.0
C      1  0.5258210000000  0.5017540000000  0.5201890000000 1.0
C      1  0.4920570000000  0.3870550000000  0.4773220000000 1.0
C      1  0.4111610000000  0.3953840000000  0.4228540000000 1.0
C      1  0.4709720000000  0.4504400000000  0.4621100000000 1.0
C      1  0.5282880000000  0.5995350000000  0.5531710000000 1.0
C      1  0.5186780000000  0.5025210000000  0.5465040000000 1.0
C      1  0.4566960000000  0.4804160000000  0.3790860000000 1.0
C      1  0.5082610000000  0.3899450000000  0.4563330000000 1.0
C      1  0.5763310000000  0.4199620000000  0.5260650000000 1.0
C      1  0.5435170000000  0.4575010000000  0.5934650000000 1.0
C      1  0.5212130000000  0.6022370000000  0.5037110000000 1.0
C      1  0.4710690000000  0.5039560000000  0.6038970000000 1.0
C      1  0.4920410000000  0.5531290000000  0.4179660000000 1.0
C      1  0.4618850000000  0.6077360000000  0.4898710000000 1.0
C      1  0.5183440000000  0.5744280000000  0.4529040000000 1.0
C      1  0.4535890000000  0.5409770000000  0.5578840000000 1.0
C      1  0.4918730000000  0.5306370000000  0.5007260000000 1.0
C      1  0.4024940000000  0.4892610000000  0.4358670000000 1.0
C      1  0.4193310000000  0.5067100000000  0.5530000000000 1.0
C      1  0.5571330000000  0.5350360000000  0.5157160000000 1.0
C      1  0.5373230000000  0.4175840000000  0.4277850000000 1.0
C      1  0.5718630000000  0.5047170000000  0.4329160000000 1.0
C      1  0.5403220000000  0.4148020000000  0.5632160000000 1.0
C      1  0.5091480000000  0.4906900000000  0.4542320000000 1.0
C      1  0.4963040000000  0.4593770000000  0.5976090000000 1.0
C      1  0.4506840000000  0.5757090000000  0.5230010000000 1.0
C      1  0.4662140000000  0.4940690000000  0.5426580000000 1.0
C      1  0.5758740000000  0.5231830000000  0.5336080000000 1.0
C      1  0.4361070000000  0.4712010000000  0.5805960000000 1.0
C      1  0.4742390000000  0.5230480000000  0.4532250000000 1.0
C      1  0.4596700000000  0.5074560000000  0.3863240000000 1.0
C      1  0.4949430000000  0.4458960000000  0.4745310000000 1.0
C      1  0.5121810000000  0.6086550000000  0.5298400000000 1.0
C      1  0.5124720000000  0.6403340000000  0.4723520000000 1.0
C      1  0.5341500000000  0.5770240000000  0.4983950000000 1.0
C      1  0.4500240000000  0.4567120000000  0.4232620000000 1.0
C      1  0.4640690000000  0.5569830000000  0.6020310000000 1.0
C      1  0.3917760000000  0.4397930000000  0.4255370000000 1.0
C      1  0.5425730000000  0.4471010000000  0.3916150000000 1.0
C      1  0.5430310000000  0.4598380000000  0.5348490000000 1.0
C      1  0.3964130000000  0.5436920000000  0.5732430000000 1.0
END
