TITL C-627107-135-873 0.00144714953569735 125000 -272.785801654657 0 0 46 (C1) n - 1
REM
REM in /home/nfs/bkarasulu/CARBON/AIRSS/Generating-Clusters/LCBOP/Only-C1/SD-CG/FIRE-CG
REM
REM
REM
REM
REM
REM ./C.cell (11c1c37f851c82e70ff6c80c92926a4b)
REM AIRSS Version 0.9.1 bugfix July 2018 build 013d7b7c2542+ Fri, 06 Jul 2018 19:26:36 +0100
REM compiler GCC version 9.2.1 20190827 (Red Hat 9.2.1-1)
REM options -cpp -mtune=generic -march=x86-64 -g -O0 -fpre-include=/usr/include/finclude/math-vector-fortran.h
REM seed 552693434 1907315736 2010751949 164496042 1359697325 211818365 1692181461 -811135682 77436435 1583359177 1052061584 -660350616 2016072876 -683464774 1724283717 1536950613 -126332049 1816667567 1492264025 1517118981 1836521919 530555134 -1145695212 -1168934799 -1156577130 -1150513026 -1617297847 -1353505543 1219289418 -1390939776 -1790172511 640120892 -1465770693
REM
CELL 1.54180   50.00000   50.00000   50.00000   90.00000   90.00000   90.00000
LATT -1
SFAC C  
C      1  0.5347550000000  0.4457770000000  0.5689870000000 1.0
C      1  0.5571590000000  0.5073370000000  0.4734140000000 1.0
C      1  0.4323100000000  0.4906830000000  0.6129220000000 1.0
C      1  0.4682430000000  0.4371410000000  0.4797200000000 1.0
C      1  0.5059130000000  0.4322240000000  0.5147040000000 1.0
C      1  0.5269620000000  0.4966680000000  0.6193600000000 1.0
C      1  0.5244890000000  0.5191800000000  0.5080420000000 1.0
C      1  0.4822150000000  0.5135830000000  0.5660850000000 1.0
C      1  0.5202470000000  0.4844610000000  0.4207700000000 1.0
C      1  0.5502850000000  0.4933480000000  0.6305230000000 1.0
C      1  0.4872850000000  0.5463780000000  0.4259300000000 1.0
C      1  0.5171530000000  0.5374610000000  0.4625630000000 1.0
C      1  0.4997830000000  0.5546890000000  0.4772350000000 1.0
C      1  0.5160590000000  0.4719910000000  0.3968420000000 1.0
C      1  0.5441500000000  0.5085030000000  0.5262580000000 1.0
C      1  0.4555430000000  0.4967990000000  0.6028190000000 1.0
C      1  0.4722010000000  0.5695510000000  0.4255210000000 1.0
C      1  0.5552510000000  0.4818520000000  0.4609310000000 1.0
C      1  0.4560990000000  0.5422830000000  0.4941460000000 1.0
C      1  0.5305160000000  0.4443840000000  0.5201670000000 1.0
C      1  0.4631660000000  0.4738610000000  0.4434610000000 1.0
C      1  0.4422850000000  0.5411730000000  0.4480420000000 1.0
C      1  0.5078490000000  0.5306380000000  0.4364070000000 1.0
C      1  0.5433740000000  0.4797250000000  0.4358040000000 1.0
C      1  0.4352580000000  0.5386720000000  0.4754640000000 1.0
C      1  0.4883610000000  0.5218690000000  0.5417010000000 1.0
C      1  0.5328240000000  0.5211060000000  0.4798180000000 1.0
C      1  0.3848650000000  0.5271540000000  0.4906560000000 1.0
C      1  0.5382310000000  0.4865910000000  0.5425510000000 1.0
C      1  0.5036750000000  0.4996190000000  0.6070770000000 1.0
C      1  0.4473680000000  0.5673430000000  0.4371430000000 1.0
C      1  0.5491780000000  0.4466690000000  0.4993190000000 1.0
C      1  0.4733300000000  0.4984270000000  0.4354020000000 1.0
C      1  0.5711420000000  0.5134110000000  0.5185370000000 1.0
C      1  0.4837700000000  0.5441570000000  0.4981200000000 1.0
C      1  0.5779510000000  0.5124160000000  0.4921760000000 1.0
C      1  0.4986350000000  0.5282300000000  0.5166150000000 1.0
C      1  0.4092460000000  0.5328190000000  0.4834010000000 1.0
C      1  0.4804510000000  0.5033370000000  0.5920070000000 1.0
C      1  0.4590220000000  0.5224040000000  0.4355950000000 1.0
C      1  0.5343880000000  0.4325280000000  0.5914260000000 1.0
C      1  0.5577190000000  0.4592990000000  0.4774770000000 1.0
C      1  0.4840130000000  0.4298820000000  0.4998350000000 1.0
C      1  0.4611810000000  0.4527140000000  0.4593910000000 1.0
C      1  0.5344800000000  0.4588480000000  0.5443830000000 1.0
C      1  0.5016220000000  0.5028160000000  0.4312540000000 1.0
END
