TITL C-627109-622-1318 59.9276982465758 125000 -156.288980656946 0 0 28 (C1) n - 1
REM
REM in /home/nfs/bkarasulu/CARBON/AIRSS/Generating-Clusters/LCBOP/Only-C1/SD-CG/FIRE-CG
REM
REM
REM
REM
REM
REM ./C.cell (11c1c37f851c82e70ff6c80c92926a4b)
REM AIRSS Version 0.9.1 bugfix July 2018 build 013d7b7c2542+ Fri, 06 Jul 2018 19:26:36 +0100
REM compiler GCC version 9.2.1 20190827 (Red Hat 9.2.1-1)
REM options -cpp -mtune=generic -march=x86-64 -g -O0 -fpre-include=/usr/include/finclude/math-vector-fortran.h
REM seed -2119464146 -721000511 331575392 1293041210 -37422093 -1750471240 -203716785 -2084526485 -13703625 -1301659940 -1474586077 -690418631 -963823044 1784946554 -1537962141 -1189885691 1213337674 -831096796 -2039062403 -308009140 -2102814189 -1215162886 -1196343175 124888020 1638898845 -1928913660 2143381070 -1876112477 -1094022863 1175718171 -1518488597 295133455 2047317121
REM
CELL 1.54180   50.00000   50.00000   50.00000   90.00000   90.00000   90.00000
LATT -1
SFAC C  
C      1  0.5136720000000  0.5080000000000  0.5202240000000 1.0
C      1  0.5947810000000  0.5839040000000  0.4649010000000 1.0
C      1  0.3978850000000  0.4841720000000  0.3755420000000 1.0
C      1  0.4077970000000  0.4777580000000  0.4267760000000 1.0
C      1  0.5787670000000  0.5511630000000  0.4104560000000 1.0
C      1  0.6358640000000  0.5139100000000  0.4347150000000 1.0
C      1  0.5662820000000  0.5464550000000  0.4747120000000 1.0
C      1  0.4975000000000  0.4527330000000  0.5874130000000 1.0
C      1  0.4128060000000  0.4745080000000  0.4525940000000 1.0
C      1  0.4778800000000  0.4816570000000  0.5516200000000 1.0
C      1  0.5929490000000  0.5466610000000  0.4340910000000 1.0
C      1  0.4103990000000  0.4531230000000  0.5480960000000 1.0
C      1  0.4178340000000  0.4712380000000  0.4784060000000 1.0
C      1  0.6151440000000  0.5297090000000  0.4342280000000 1.0
C      1  0.5487690000000  0.5336750000000  0.4899290000000 1.0
C      1  0.4968530000000  0.4658720000000  0.6330870000000 1.0
C      1  0.4779210000000  0.4942910000000  0.6000250000000 1.0
C      1  0.5034810000000  0.4478550000000  0.6136270000000 1.0
C      1  0.4229110000000  0.4679610000000  0.5041950000000 1.0
C      1  0.5312290000000  0.5208440000000  0.5050920000000 1.0
C      1  0.4533690000000  0.4733060000000  0.5411990000000 1.0
C      1  0.4286870000000  0.4646670000000  0.5313530000000 1.0
C      1  0.4840880000000  0.4890170000000  0.6261180000000 1.0
C      1  0.5652850000000  0.5555340000000  0.3885860000000 1.0
C      1  0.4961450000000  0.4951590000000  0.5353720000000 1.0
C      1  0.4841810000000  0.4764530000000  0.5785470000000 1.0
C      1  0.4027950000000  0.4810000000000  0.4009480000000 1.0
C      1  0.5847250000000  0.5593720000000  0.4581490000000 1.0
END
