TITL C-627113-6568-1217 0.000257261907858227 125000 -440.174266495403 0 0 73 (C1) n - 1
REM
REM in /home/nfs/bkarasulu/CARBON/AIRSS/Generating-Clusters/LCBOP/Only-C1/SD-CG/FIRE-CG
REM
REM
REM
REM
REM
REM ./C.cell (11c1c37f851c82e70ff6c80c92926a4b)
REM AIRSS Version 0.9.1 bugfix July 2018 build 013d7b7c2542+ Fri, 06 Jul 2018 19:26:36 +0100
REM compiler GCC version 9.2.1 20190827 (Red Hat 9.2.1-1)
REM options -cpp -mtune=generic -march=x86-64 -g -O0 -fpre-include=/usr/include/finclude/math-vector-fortran.h
REM seed -1765198671 -233835006 1463258062 -1938837730 -1238008828 1638623686 -263334128 -2022334400 1646831975 -842536417 -1830103832 -1390390371 -2125086037 2021540601 -2047184660 -584536639 -575511283 -1843491128 -2045229636 464058489 1069408974 -2126901397 812159207 -1832251989 1975471058 2007325154 701841380 -2040263225 -223939093 -1693006545 2058714389 -967730732 -970703748
REM
CELL 1.54180   50.00000   50.00000   50.00000   90.00000   90.00000   90.00000
LATT -1
SFAC C  
C      1  0.5741820000000  0.4895800000000  0.4848170000000 1.0
C      1  0.4578820000000  0.4052960000000  0.5619400000000 1.0
C      1  0.4192780000000  0.4786330000000  0.4446360000000 1.0
C      1  0.4119480000000  0.5209870000000  0.4801390000000 1.0
C      1  0.4340990000000  0.5496030000000  0.5108020000000 1.0
C      1  0.5824200000000  0.5559660000000  0.4568940000000 1.0
C      1  0.4698400000000  0.4272390000000  0.5505380000000 1.0
C      1  0.5356130000000  0.4259250000000  0.4771330000000 1.0
C      1  0.4686890000000  0.5670070000000  0.4657880000000 1.0
C      1  0.5131660000000  0.4801860000000  0.5754310000000 1.0
C      1  0.5715360000000  0.4353910000000  0.5342520000000 1.0
C      1  0.5522890000000  0.4447570000000  0.4904320000000 1.0
C      1  0.5204820000000  0.5472080000000  0.4864570000000 1.0
C      1  0.5683120000000  0.5679720000000  0.4375770000000 1.0
C      1  0.5182010000000  0.5020350000000  0.4787210000000 1.0
C      1  0.4558400000000  0.5250530000000  0.4449730000000 1.0
C      1  0.4762430000000  0.5210110000000  0.5846300000000 1.0
C      1  0.4467950000000  0.5118080000000  0.4207970000000 1.0
C      1  0.6183730000000  0.5342660000000  0.6148240000000 1.0
C      1  0.5702800000000  0.5215280000000  0.5978220000000 1.0
C      1  0.5596090000000  0.4674700000000  0.4739100000000 1.0
C      1  0.5137830000000  0.4332160000000  0.4602520000000 1.0
C      1  0.4501400000000  0.4148400000000  0.4316460000000 1.0
C      1  0.4677700000000  0.4995720000000  0.4057510000000 1.0
C      1  0.5799990000000  0.5373150000000  0.4758580000000 1.0
C      1  0.4221060000000  0.4958440000000  0.4898560000000 1.0
C      1  0.4753980000000  0.4495060000000  0.5672080000000 1.0
C      1  0.5212650000000  0.5077070000000  0.5791470000000 1.0
C      1  0.5197180000000  0.5572880000000  0.4370020000000 1.0
C      1  0.5136570000000  0.4770260000000  0.4893400000000 1.0
C      1  0.5066160000000  0.4688260000000  0.5150650000000 1.0
C      1  0.4617760000000  0.4829270000000  0.4667590000000 1.0
C      1  0.5006720000000  0.5150070000000  0.4604050000000 1.0
C      1  0.4336360000000  0.5250810000000  0.5260190000000 1.0
C      1  0.4849920000000  0.4847850000000  0.5245510000000 1.0
C      1  0.4351570000000  0.4983770000000  0.5155110000000 1.0
C      1  0.4742100000000  0.5068960000000  0.4580420000000 1.0
C      1  0.4875560000000  0.4814850000000  0.4084610000000 1.0
C      1  0.4682180000000  0.4189200000000  0.4499680000000 1.0
C      1  0.4758600000000  0.4262080000000  0.5228180000000 1.0
C      1  0.5457220000000  0.4674280000000  0.4487560000000 1.0
C      1  0.5913860000000  0.4263390000000  0.5485060000000 1.0
C      1  0.5945250000000  0.5279500000000  0.6063940000000 1.0
C      1  0.4839890000000  0.5800740000000  0.4859770000000 1.0
C      1  0.5460990000000  0.5150430000000  0.5891790000000 1.0
C      1  0.5010540000000  0.5270230000000  0.5715630000000 1.0
C      1  0.4811380000000  0.4242360000000  0.4965710000000 1.0
C      1  0.4569900000000  0.4818860000000  0.5226490000000 1.0
C      1  0.4453770000000  0.5730570000000  0.5225130000000 1.0
C      1  0.5508630000000  0.4458950000000  0.5187420000000 1.0
C      1  0.5208550000000  0.4545120000000  0.4417010000000 1.0
C      1  0.5024110000000  0.5634840000000  0.5022600000000 1.0
C      1  0.4876450000000  0.4255340000000  0.4689220000000 1.0
C      1  0.4852740000000  0.4730610000000  0.5792810000000 1.0
C      1  0.4938140000000  0.5577780000000  0.5299720000000 1.0
C      1  0.4933990000000  0.5110420000000  0.5286720000000 1.0
C      1  0.4334660000000  0.4796340000000  0.4693120000000 1.0
C      1  0.5042490000000  0.4651180000000  0.4216160000000 1.0
C      1  0.4690370000000  0.4948350000000  0.5879400000000 1.0
C      1  0.4688170000000  0.5687420000000  0.5380590000000 1.0
C      1  0.5279590000000  0.4637120000000  0.5583030000000 1.0
C      1  0.5362660000000  0.5219340000000  0.4902300000000 1.0
C      1  0.4996650000000  0.5335670000000  0.5436840000000 1.0
C      1  0.4468780000000  0.5982910000000  0.5094880000000 1.0
C      1  0.5994060000000  0.4849190000000  0.4947400000000 1.0
C      1  0.4703040000000  0.6029570000000  0.4961150000000 1.0
C      1  0.4487390000000  0.5474470000000  0.4616720000000 1.0
C      1  0.4288350000000  0.5440670000000  0.4825890000000 1.0
C      1  0.5639020000000  0.5165270000000  0.4859130000000 1.0
C      1  0.5278570000000  0.4577670000000  0.5309190000000 1.0
C      1  0.5102060000000  0.5424260000000  0.4585410000000 1.0
C      1  0.4233520000000  0.4959250000000  0.4240170000000 1.0
C      1  0.5429140000000  0.5680470000000  0.4290330000000 1.0
END
