TITL C-627108-131-313 -0.0808590483267729 125000 -132.402308822877 0 0 23 (Cs) n - 1
REM
REM in /home/nfs/bkarasulu/CARBON/AIRSS/Generating-Clusters/LCBOP/Only-C1/SD-CG/FIRE-CG
REM
REM
REM
REM
REM
REM ./C.cell (11c1c37f851c82e70ff6c80c92926a4b)
REM AIRSS Version 0.9.1 bugfix July 2018 build 013d7b7c2542+ Fri, 06 Jul 2018 19:26:36 +0100
REM compiler GCC version 9.2.1 20190827 (Red Hat 9.2.1-1)
REM options -cpp -mtune=generic -march=x86-64 -g -O0 -fpre-include=/usr/include/finclude/math-vector-fortran.h
REM seed 861735166 513486466 -1613510411 1487049418 865035401 2028963150 2055683449 -1798791971 -343899742 -2065076447 25675944 -1529750786 -1496744963 196501982 1738545379 1983920394 -1583805192 1830528912 1088420391 -251381457 1629057237 -381458542 1722486775 -1149144273 -1557197435 -458584409 1065805268 -1206893413 504505832 1386651283 1608477098 1130631121 1893864083
REM
CELL 1.54180   50.00000   50.00000   50.00000   90.00000   90.00000   90.00000
LATT -1
SFAC C  
C      1  0.4391910000000  0.5499440000000  0.5782410000000 1.0
C      1  0.4662840000000  0.5439780000000  0.5818910000000 1.0
C      1  0.4225530000000  0.5339320000000  0.5294750000000 1.0
C      1  0.5138420000000  0.5254380000000  0.5692240000000 1.0
C      1  0.4271760000000  0.5429990000000  0.5539440000000 1.0
C      1  0.5592250000000  0.4902530000000  0.5157720000000 1.0
C      1  0.5701100000000  0.4670020000000  0.4679260000000 1.0
C      1  0.5487690000000  0.4653260000000  0.4499740000000 1.0
C      1  0.6186180000000  0.4477190000000  0.4541240000000 1.0
C      1  0.5952060000000  0.4570280000000  0.4607910000000 1.0
C      1  0.4319660000000  0.5115590000000  0.4827390000000 1.0
C      1  0.5272660000000  0.4647550000000  0.4345300000000 1.0
C      1  0.5663120000000  0.4786690000000  0.4930250000000 1.0
C      1  0.5033520000000  0.4652540000000  0.4200370000000 1.0
C      1  0.5482240000000  0.5021690000000  0.5367360000000 1.0
C      1  0.5022600000000  0.4548680000000  0.3947600000000 1.0
C      1  0.4243420000000  0.5232110000000  0.5052960000000 1.0
C      1  0.4248040000000  0.5622630000000  0.5979420000000 1.0
C      1  0.4611030000000  0.4878130000000  0.4456870000000 1.0
C      1  0.4912170000000  0.5356460000000  0.5785320000000 1.0
C      1  0.4805690000000  0.4765090000000  0.4317160000000 1.0
C      1  0.4445600000000  0.4995990000000  0.4627140000000 1.0
C      1  0.5330490000000  0.5140670000000  0.5549240000000 1.0
END
