TITL C-627109-622-699 0.100542655262948 125000 -632.089043326905 0 0 103 (C1) n - 1
REM
REM in /home/nfs/bkarasulu/CARBON/AIRSS/Generating-Clusters/LCBOP/Only-C1/SD-CG/FIRE-CG
REM
REM
REM
REM
REM
REM ./C.cell (11c1c37f851c82e70ff6c80c92926a4b)
REM AIRSS Version 0.9.1 bugfix July 2018 build 013d7b7c2542+ Fri, 06 Jul 2018 19:26:36 +0100
REM compiler GCC version 9.2.1 20190827 (Red Hat 9.2.1-1)
REM options -cpp -mtune=generic -march=x86-64 -g -O0 -fpre-include=/usr/include/finclude/math-vector-fortran.h
REM seed 744261794 1814720972 1377504651 -265189144 1501488414 -878205631 1740017991 -328392852 1419743109 1983386685 1744712953 -581930488 399442427 -1329870553 -710361447 758931890 -1012229717 -235643833 190033599 -672494216 43042605 137456690 -919149175 -1334868190 757168755 -360677805 1365768456 -1333122496 -1159097333 -1617705216 1462762778 210872967 2072727621
REM
CELL 1.54180   50.00000   50.00000   50.00000   90.00000   90.00000   90.00000
LATT -1
SFAC C  
C      1  0.4838040000000  0.5179880000000  0.5706700000000 1.0
C      1  0.4727750000000  0.4926870000000  0.5814730000000 1.0
C      1  0.4607430000000  0.5446930000000  0.5270650000000 1.0
C      1  0.4498910000000  0.4950400000000  0.4282430000000 1.0
C      1  0.5468590000000  0.4471910000000  0.4548590000000 1.0
C      1  0.4170120000000  0.4776040000000  0.4599420000000 1.0
C      1  0.6087690000000  0.4988960000000  0.5525270000000 1.0
C      1  0.6145870000000  0.5094310000000  0.4827470000000 1.0
C      1  0.5072060000000  0.5310770000000  0.5805700000000 1.0
C      1  0.4431600000000  0.5330590000000  0.5064770000000 1.0
C      1  0.4675010000000  0.4350830000000  0.5307870000000 1.0
C      1  0.6268130000000  0.4842730000000  0.4811180000000 1.0
C      1  0.5177830000000  0.5241380000000  0.4310880000000 1.0
C      1  0.4801240000000  0.5620170000000  0.5155590000000 1.0
C      1  0.5130090000000  0.4332400000000  0.5505620000000 1.0
C      1  0.5507190000000  0.5764850000000  0.4674340000000 1.0
C      1  0.5732270000000  0.5349580000000  0.4822990000000 1.0
C      1  0.4682730000000  0.5136790000000  0.4156280000000 1.0
C      1  0.5357310000000  0.5699700000000  0.5872120000000 1.0
C      1  0.5046810000000  0.6304760000000  0.5375360000000 1.0
C      1  0.3654000000000  0.6077210000000  0.4302830000000 1.0
C      1  0.6226880000000  0.4579760000000  0.4825750000000 1.0
C      1  0.3932700000000  0.5206690000000  0.5409850000000 1.0
C      1  0.4998000000000  0.4444450000000  0.4353180000000 1.0
C      1  0.5235870000000  0.5156980000000  0.4777200000000 1.0
C      1  0.3750630000000  0.5855360000000  0.4411000000000 1.0
C      1  0.4424910000000  0.4458680000000  0.4177620000000 1.0
C      1  0.4658910000000  0.4926650000000  0.4827610000000 1.0
C      1  0.5334380000000  0.5433020000000  0.5811130000000 1.0
C      1  0.5254140000000  0.6076070000000  0.5004570000000 1.0
C      1  0.3847180000000  0.5633700000000  0.4519200000000 1.0
C      1  0.4802950000000  0.4661920000000  0.5697120000000 1.0
C      1  0.6060690000000  0.5282220000000  0.5516540000000 1.0
C      1  0.4514710000000  0.4040110000000  0.4950100000000 1.0
C      1  0.4692780000000  0.5009560000000  0.5290490000000 1.0
C      1  0.5612890000000  0.5195990000000  0.5049340000000 1.0
C      1  0.6222500000000  0.5282270000000  0.5030280000000 1.0
C      1  0.4806700000000  0.5524460000000  0.4420410000000 1.0
C      1  0.5053410000000  0.4783680000000  0.5082480000000 1.0
C      1  0.5253880000000  0.4628380000000  0.5885330000000 1.0
C      1  0.4408280000000  0.4023440000000  0.4446960000000 1.0
C      1  0.4454880000000  0.5128990000000  0.4876570000000 1.0
C      1  0.4787620000000  0.4600440000000  0.4449460000000 1.0
C      1  0.5228600000000  0.4834420000000  0.5292410000000 1.0
C      1  0.5577190000000  0.4731350000000  0.4487320000000 1.0
C      1  0.5402540000000  0.4252500000000  0.5453840000000 1.0
C      1  0.3867630000000  0.5298800000000  0.5166170000000 1.0
C      1  0.4838970000000  0.5616140000000  0.4669100000000 1.0
C      1  0.5258020000000  0.5079040000000  0.5397420000000 1.0
C      1  0.3950880000000  0.5400900000000  0.4634240000000 1.0
C      1  0.4511530000000  0.4801370000000  0.5352350000000 1.0
C      1  0.6054730000000  0.4377150000000  0.4841350000000 1.0
C      1  0.5318820000000  0.5043240000000  0.4167510000000 1.0
C      1  0.6190850000000  0.5382380000000  0.5281740000000 1.0
C      1  0.5403650000000  0.5966810000000  0.4813650000000 1.0
C      1  0.5858800000000  0.4871580000000  0.5387760000000 1.0
C      1  0.4862410000000  0.5006190000000  0.5045400000000 1.0
C      1  0.5435410000000  0.4108500000000  0.5209850000000 1.0
C      1  0.5063860000000  0.6087440000000  0.5210870000000 1.0
C      1  0.4473300000000  0.3959260000000  0.4698050000000 1.0
C      1  0.5057010000000  0.4525680000000  0.5712170000000 1.0
C      1  0.4295950000000  0.4456320000000  0.4997450000000 1.0
C      1  0.4257710000000  0.4994770000000  0.4436950000000 1.0
C      1  0.4711360000000  0.5245060000000  0.5453680000000 1.0
C      1  0.4457470000000  0.4959810000000  0.5907430000000 1.0
C      1  0.3558950000000  0.6295410000000  0.4196440000000 1.0
C      1  0.5667970000000  0.4910540000000  0.4689100000000 1.0
C      1  0.4238200000000  0.4847640000000  0.5376140000000 1.0
C      1  0.5313680000000  0.5322720000000  0.4555420000000 1.0
C      1  0.5444440000000  0.4805430000000  0.5945660000000 1.0
C      1  0.4784260000000  0.4680970000000  0.4719530000000 1.0
C      1  0.5759740000000  0.5301570000000  0.5529400000000 1.0
C      1  0.5620900000000  0.4412770000000  0.5523360000000 1.0
C      1  0.5699980000000  0.5112100000000  0.5303930000000 1.0
C      1  0.4654320000000  0.5170940000000  0.3883750000000 1.0
C      1  0.5007370000000  0.5237230000000  0.4923860000000 1.0
C      1  0.4103310000000  0.5029150000000  0.5545140000000 1.0
C      1  0.5805820000000  0.4283130000000  0.4833270000000 1.0
C      1  0.5531710000000  0.4319010000000  0.4780520000000 1.0
C      1  0.3884820000000  0.5339800000000  0.4902210000000 1.0
C      1  0.4375570000000  0.4206610000000  0.4255050000000 1.0
C      1  0.5457760000000  0.5008350000000  0.4883120000000 1.0
C      1  0.5493210000000  0.4852660000000  0.4244380000000 1.0
C      1  0.4217150000000  0.5035870000000  0.5805260000000 1.0
C      1  0.5540060000000  0.5487860000000  0.4647720000000 1.0
C      1  0.4576260000000  0.4673920000000  0.4277000000000 1.0
C      1  0.4119120000000  0.5235370000000  0.4479210000000 1.0
C      1  0.4891730000000  0.5291960000000  0.4284360000000 1.0
C      1  0.5579240000000  0.5031510000000  0.5898300000000 1.0
C      1  0.4908200000000  0.5505800000000  0.4917140000000 1.0
C      1  0.4985770000000  0.4574590000000  0.4903560000000 1.0
C      1  0.5067530000000  0.4324990000000  0.5008690000000 1.0
C      1  0.5774110000000  0.4613270000000  0.5439260000000 1.0
C      1  0.5246410000000  0.5338200000000  0.5355370000000 1.0
C      1  0.4184970000000  0.4604050000000  0.4803900000000 1.0
C      1  0.4952060000000  0.4284940000000  0.5277690000000 1.0
C      1  0.5887590000000  0.5124120000000  0.4704560000000 1.0
C      1  0.5574770000000  0.5277910000000  0.5756100000000 1.0
C      1  0.4485660000000  0.4274700000000  0.5104470000000 1.0
C      1  0.4632950000000  0.4578780000000  0.5475800000000 1.0
C      1  0.4892180000000  0.5867570000000  0.5242810000000 1.0
C      1  0.5254390000000  0.4385040000000  0.4389790000000 1.0
C      1  0.5335640000000  0.4224900000000  0.4969040000000 1.0
END
