TITL C-627110-360-393 -5.08134837539317e-07 125000 -538.255059902142 0 0 90 (C1) n - 1
REM
REM in /home/nfs/bkarasulu/CARBON/AIRSS/Generating-Clusters/LCBOP/Only-C1/SD-CG/FIRE-CG
REM
REM
REM
REM
REM
REM ./C.cell (11c1c37f851c82e70ff6c80c92926a4b)
REM AIRSS Version 0.9.1 bugfix July 2018 build 013d7b7c2542+ Fri, 06 Jul 2018 19:26:36 +0100
REM compiler GCC version 9.2.1 20190827 (Red Hat 9.2.1-1)
REM options -cpp -mtune=generic -march=x86-64 -g -O0 -fpre-include=/usr/include/finclude/math-vector-fortran.h
REM seed -809069437 -1787566405 362488557 -393451673 -113984701 1421925841 -386585346 -1780037824 117060844 496726488 -1528389498 -1832888506 729718295 -616557419 -1489994305 -1903034766 -1162548052 1299996383 -279248272 -301569277 -1584713498 943509579 -1651581959 -401555763 172450337 2020337657 -1046150005 201684771 -1651623954 -1136604331 910092806 -476457035 -12601848
REM
CELL 1.54180   50.00000   50.00000   50.00000   90.00000   90.00000   90.00000
LATT -1
SFAC C  
C      1  0.4441250000000  0.4900240000000  0.5270920000000 1.0
C      1  0.5085770000000  0.4638970000000  0.5233730000000 1.0
C      1  0.4620840000000  0.5308730000000  0.4748770000000 1.0
C      1  0.5624070000000  0.5252600000000  0.3964000000000 1.0
C      1  0.4355730000000  0.5147550000000  0.5669670000000 1.0
C      1  0.5430660000000  0.5589370000000  0.4474170000000 1.0
C      1  0.5524150000000  0.5136360000000  0.5651790000000 1.0
C      1  0.5329370000000  0.4920030000000  0.4167050000000 1.0
C      1  0.4468920000000  0.4721710000000  0.4149200000000 1.0
C      1  0.5790930000000  0.4605460000000  0.5120910000000 1.0
C      1  0.4978030000000  0.5627880000000  0.5362610000000 1.0
C      1  0.4300290000000  0.4917650000000  0.5516650000000 1.0
C      1  0.5331180000000  0.4981900000000  0.4799710000000 1.0
C      1  0.5325060000000  0.5333810000000  0.5668670000000 1.0
C      1  0.5123300000000  0.5174110000000  0.4728890000000 1.0
C      1  0.4736360000000  0.4316090000000  0.4348620000000 1.0
C      1  0.5565050000000  0.4355080000000  0.5877920000000 1.0
C      1  0.5724380000000  0.4328810000000  0.5135870000000 1.0
C      1  0.4215410000000  0.5345770000000  0.4468620000000 1.0
C      1  0.4852080000000  0.5308800000000  0.4257000000000 1.0
C      1  0.4277380000000  0.4786370000000  0.4364100000000 1.0
C      1  0.4558700000000  0.5138800000000  0.5186000000000 1.0
C      1  0.4676550000000  0.5639900000000  0.5350110000000 1.0
C      1  0.5263670000000  0.4700220000000  0.4793820000000 1.0
C      1  0.5671170000000  0.4632090000000  0.4617890000000 1.0
C      1  0.5805420000000  0.4746000000000  0.5374470000000 1.0
C      1  0.4581030000000  0.5725520000000  0.5078300000000 1.0
C      1  0.4677040000000  0.4314300000000  0.4628970000000 1.0
C      1  0.4779070000000  0.5124240000000  0.4057850000000 1.0
C      1  0.4547580000000  0.5072210000000  0.4615400000000 1.0
C      1  0.4342070000000  0.5642980000000  0.4926220000000 1.0
C      1  0.5352700000000  0.4050990000000  0.5276710000000 1.0
C      1  0.5100750000000  0.4423280000000  0.5412890000000 1.0
C      1  0.4386770000000  0.4363640000000  0.4648820000000 1.0
C      1  0.5390240000000  0.4616850000000  0.4545280000000 1.0
C      1  0.5321850000000  0.5372090000000  0.4330140000000 1.0
C      1  0.5385360000000  0.5283140000000  0.5239680000000 1.0
C      1  0.5136270000000  0.5556020000000  0.5605710000000 1.0
C      1  0.5036470000000  0.4827690000000  0.5867690000000 1.0
C      1  0.4119530000000  0.4730520000000  0.5598110000000 1.0
C      1  0.5398570000000  0.4505220000000  0.6021770000000 1.0
C      1  0.4935620000000  0.4786090000000  0.4454520000000 1.0
C      1  0.4485270000000  0.4408490000000  0.5231390000000 1.0
C      1  0.5640670000000  0.4150180000000  0.4922280000000 1.0
C      1  0.5673050000000  0.4986420000000  0.5444880000000 1.0
C      1  0.4203490000000  0.5505660000000  0.4724570000000 1.0
C      1  0.5637860000000  0.4255580000000  0.5642050000000 1.0
C      1  0.5831260000000  0.5815360000000  0.5506050000000 1.0
C      1  0.5489670000000  0.5562850000000  0.4750210000000 1.0
C      1  0.5751170000000  0.4761310000000  0.4870710000000 1.0
C      1  0.4632270000000  0.5388390000000  0.5977880000000 1.0
C      1  0.5335330000000  0.5667600000000  0.4982970000000 1.0
C      1  0.5195500000000  0.4677900000000  0.6020600000000 1.0
C      1  0.4988790000000  0.4912220000000  0.5619300000000 1.0
C      1  0.5082750000000  0.4561010000000  0.4954470000000 1.0
C      1  0.4827520000000  0.6046240000000  0.4777240000000 1.0
C      1  0.4603020000000  0.4174240000000  0.5291150000000 1.0
C      1  0.4826030000000  0.5842130000000  0.4958140000000 1.0
C      1  0.4836460000000  0.4457640000000  0.4832920000000 1.0
C      1  0.4371940000000  0.5481420000000  0.4261340000000 1.0
C      1  0.4722490000000  0.5257990000000  0.4998680000000 1.0
C      1  0.4994150000000  0.5218770000000  0.4984170000000 1.0
C      1  0.4651970000000  0.5508250000000  0.4320790000000 1.0
C      1  0.5111250000000  0.5741000000000  0.5812970000000 1.0
C      1  0.5587540000000  0.4210380000000  0.5371940000000 1.0
C      1  0.4498320000000  0.5379450000000  0.5739000000000 1.0
C      1  0.5618700000000  0.5042100000000  0.4907270000000 1.0
C      1  0.4230610000000  0.4561020000000  0.4538620000000 1.0
C      1  0.5099200000000  0.4144820000000  0.5361560000000 1.0
C      1  0.5065520000000  0.5734670000000  0.5085460000000 1.0
C      1  0.5135490000000  0.5148630000000  0.5215480000000 1.0
C      1  0.5209820000000  0.4739510000000  0.4350440000000 1.0
C      1  0.5663440000000  0.5327810000000  0.4793720000000 1.0
C      1  0.5076620000000  0.5278410000000  0.4449260000000 1.0
C      1  0.4506480000000  0.4669170000000  0.5119810000000 1.0
C      1  0.4600590000000  0.4929660000000  0.4012010000000 1.0
C      1  0.4497250000000  0.5608670000000  0.5568550000000 1.0
C      1  0.4681030000000  0.5541210000000  0.4600870000000 1.0
C      1  0.5650430000000  0.5691170000000  0.5365420000000 1.0
C      1  0.4608720000000  0.4471600000000  0.4164310000000 1.0
C      1  0.4660200000000  0.4690500000000  0.4877490000000 1.0
C      1  0.5460300000000  0.5554220000000  0.5216660000000 1.0
C      1  0.5428770000000  0.3990280000000  0.5003220000000 1.0
C      1  0.5433210000000  0.5184750000000  0.4146360000000 1.0
C      1  0.4294400000000  0.5056860000000  0.4479880000000 1.0
C      1  0.5066660000000  0.4903440000000  0.5348370000000 1.0
C      1  0.4716510000000  0.4850890000000  0.4641990000000 1.0
C      1  0.4316280000000  0.5808720000000  0.5620340000000 1.0
C      1  0.5598030000000  0.5107070000000  0.5198390000000 1.0
C      1  0.4837370000000  0.4045190000000  0.5329590000000 1.0
END
