TITL C-627112-676-1719 -10.4535048813128 125000 -605.135250301625 0 0 100 (C1) n - 1
REM
REM in /home/nfs/bkarasulu/CARBON/AIRSS/Generating-Clusters/LCBOP/Only-C1/SD-CG/FIRE-CG
REM
REM
REM
REM
REM
REM ./C.cell (11c1c37f851c82e70ff6c80c92926a4b)
REM AIRSS Version 0.9.1 bugfix July 2018 build 013d7b7c2542+ Fri, 06 Jul 2018 19:26:36 +0100
REM compiler GCC version 9.2.1 20190827 (Red Hat 9.2.1-1)
REM options -cpp -mtune=generic -march=x86-64 -g -O0 -fpre-include=/usr/include/finclude/math-vector-fortran.h
REM seed 479548330 -1612686931 797128397 -751497804 -1899287994 -657661859 1123767106 1920218833 -942436693 -1146305405 1066805126 -741172301 108417098 990111326 679619485 398672014 981317067 -291368562 -1204081280 1195179460 -1867309718 -1550912768 -2074527425 -1097432345 1315603853 1818311949 715064150 2144791689 1969462853 -1599831286 21951676 -647429483 -219039078
REM
CELL 1.54180   50.00000   50.00000   50.00000   90.00000   90.00000   90.00000
LATT -1
SFAC C  
C      1  0.4480560000000  0.4346760000000  0.5055440000000 1.0
C      1  0.4167070000000  0.4928970000000  0.4968310000000 1.0
C      1  0.5130130000000  0.5866530000000  0.5181920000000 1.0
C      1  0.4288420000000  0.5412420000000  0.4794750000000 1.0
C      1  0.5670350000000  0.4440230000000  0.4855560000000 1.0
C      1  0.4712300000000  0.4897640000000  0.4616310000000 1.0
C      1  0.4669770000000  0.5295770000000  0.4967750000000 1.0
C      1  0.4417840000000  0.4771640000000  0.5687770000000 1.0
C      1  0.5308540000000  0.5218750000000  0.4258470000000 1.0
C      1  0.4208340000000  0.5576610000000  0.5453930000000 1.0
C      1  0.5915880000000  0.4869050000000  0.4725160000000 1.0
C      1  0.5669290000000  0.5562650000000  0.5648380000000 1.0
C      1  0.5365600000000  0.4308130000000  0.5516160000000 1.0
C      1  0.5308230000000  0.5892570000000  0.4734030000000 1.0
C      1  0.5417610000000  0.5620270000000  0.5724940000000 1.0
C      1  0.4318680000000  0.5107130000000  0.4266270000000 1.0
C      1  0.5441040000000  0.4437950000000  0.5024010000000 1.0
C      1  0.4756170000000  0.4229490000000  0.5084220000000 1.0
C      1  0.5355970000000  0.4930380000000  0.4246620000000 1.0
C      1  0.5047720000000  0.5349790000000  0.4264950000000 1.0
C      1  0.4141610000000  0.4631770000000  0.4399950000000 1.0
C      1  0.5127660000000  0.6011560000000  0.4929900000000 1.0
C      1  0.4047820000000  0.5141960000000  0.5675240000000 1.0
C      1  0.5277210000000  0.5175760000000  0.4801700000000 1.0
C      1  0.4751100000000  0.4796520000000  0.3871730000000 1.0
C      1  0.5207210000000  0.5780360000000  0.4496760000000 1.0
C      1  0.4683220000000  0.4541500000000  0.3919400000000 1.0
C      1  0.5186010000000  0.4884240000000  0.5776420000000 1.0
C      1  0.5148940000000  0.5616790000000  0.5703560000000 1.0
C      1  0.5172980000000  0.4733220000000  0.4330640000000 1.0
C      1  0.5024780000000  0.4508990000000  0.4762620000000 1.0
C      1  0.5379000000000  0.5149610000000  0.5374030000000 1.0
C      1  0.4678800000000  0.5454890000000  0.5518980000000 1.0
C      1  0.5549320000000  0.5358640000000  0.4344830000000 1.0
C      1  0.5492170000000  0.5749630000000  0.4909970000000 1.0
C      1  0.5056970000000  0.4704670000000  0.4977750000000 1.0
C      1  0.4174460000000  0.4882360000000  0.4301340000000 1.0
C      1  0.5179020000000  0.4187720000000  0.5339030000000 1.0
C      1  0.5622630000000  0.4319100000000  0.4605470000000 1.0
C      1  0.4914710000000  0.5623890000000  0.5547900000000 1.0
C      1  0.5859110000000  0.5417500000000  0.5523540000000 1.0
C      1  0.5365090000000  0.5676370000000  0.5164930000000 1.0
C      1  0.4429790000000  0.4504280000000  0.5583660000000 1.0
C      1  0.5884870000000  0.4742580000000  0.5182160000000 1.0
C      1  0.4311210000000  0.4447000000000  0.4824260000000 1.0
C      1  0.4129190000000  0.5172450000000  0.4815770000000 1.0
C      1  0.5672120000000  0.4740860000000  0.5421390000000 1.0
C      1  0.5445570000000  0.4883960000000  0.5264750000000 1.0
C      1  0.5122680000000  0.5302910000000  0.5012730000000 1.0
C      1  0.4714940000000  0.4676170000000  0.4474020000000 1.0
C      1  0.4361730000000  0.4934420000000  0.5174450000000 1.0
C      1  0.4577210000000  0.4305560000000  0.5719630000000 1.0
C      1  0.5778640000000  0.5263320000000  0.4486330000000 1.0
C      1  0.4609300000000  0.4381220000000  0.4123460000000 1.0
C      1  0.4638040000000  0.5210300000000  0.5646590000000 1.0
C      1  0.4537360000000  0.5284290000000  0.4311790000000 1.0
C      1  0.4443730000000  0.5449340000000  0.5038030000000 1.0
C      1  0.5418660000000  0.4973850000000  0.4726410000000 1.0
C      1  0.4569860000000  0.4451080000000  0.4393590000000 1.0
C      1  0.5322040000000  0.4696040000000  0.5086070000000 1.0
C      1  0.5983020000000  0.5110740000000  0.4898320000000 1.0
C      1  0.5329280000000  0.5396500000000  0.5214540000000 1.0
C      1  0.5378260000000  0.4678290000000  0.5827850000000 1.0
C      1  0.4171600000000  0.4907790000000  0.5714770000000 1.0
C      1  0.4908030000000  0.4845940000000  0.5801030000000 1.0
C      1  0.5499440000000  0.4548120000000  0.5597240000000 1.0
C      1  0.4806550000000  0.5549540000000  0.4628320000000 1.0
C      1  0.5277640000000  0.5115030000000  0.5638550000000 1.0
C      1  0.4532340000000  0.5457340000000  0.4545310000000 1.0
C      1  0.5911270000000  0.5336610000000  0.4732730000000 1.0
C      1  0.5447910000000  0.4606980000000  0.6082540000000 1.0
C      1  0.4793160000000  0.5043840000000  0.3964520000000 1.0
C      1  0.5930820000000  0.5159410000000  0.5437870000000 1.0
C      1  0.4991280000000  0.4261600000000  0.4907460000000 1.0
C      1  0.5384420000000  0.4331470000000  0.4477570000000 1.0
C      1  0.4469430000000  0.5587460000000  0.5307480000000 1.0
C      1  0.4621790000000  0.5855000000000  0.5259450000000 1.0
C      1  0.4321130000000  0.4445870000000  0.4530880000000 1.0
C      1  0.5816880000000  0.4943320000000  0.5597190000000 1.0
C      1  0.4877100000000  0.4851590000000  0.5135720000000 1.0
C      1  0.4120670000000  0.4658950000000  0.4894860000000 1.0
C      1  0.5855580000000  0.4648400000000  0.4906740000000 1.0
C      1  0.4887770000000  0.4161520000000  0.5351710000000 1.0
C      1  0.4370790000000  0.4426950000000  0.5314100000000 1.0
C      1  0.4756520000000  0.4145650000000  0.5598620000000 1.0
C      1  0.4894200000000  0.5452040000000  0.4887890000000 1.0
C      1  0.5246400000000  0.4226870000000  0.5061400000000 1.0
C      1  0.4505000000000  0.6079010000000  0.5160370000000 1.0
C      1  0.4899500000000  0.5824110000000  0.5339500000000 1.0
C      1  0.4653410000000  0.4936910000000  0.5722000000000 1.0
C      1  0.4061300000000  0.5392650000000  0.5582610000000 1.0
C      1  0.5168380000000  0.4514100000000  0.4510770000000 1.0
C      1  0.5016930000000  0.5580070000000  0.4436790000000 1.0
C      1  0.5980510000000  0.5035400000000  0.5177620000000 1.0
C      1  0.4981540000000  0.5103570000000  0.5190380000000 1.0
C      1  0.4645870000000  0.5065870000000  0.4807440000000 1.0
C      1  0.5812650000000  0.4966530000000  0.4469590000000 1.0
C      1  0.4794010000000  0.5236580000000  0.4171460000000 1.0
C      1  0.4607750000000  0.4828430000000  0.5201120000000 1.0
C      1  0.5633580000000  0.4854510000000  0.4279930000000 1.0
END
