TITL C-627109-622-604 1.46113174146785e-06 125000 -1161.12911888156 0 0 192 (C1) n - 1
REM
REM in /home/nfs/bkarasulu/CARBON/AIRSS/Generating-Clusters/LCBOP/Only-C1/SD-CG/FIRE-CG
REM
REM
REM
REM
REM
REM ./C.cell (11c1c37f851c82e70ff6c80c92926a4b)
REM AIRSS Version 0.9.1 bugfix July 2018 build 013d7b7c2542+ Fri, 06 Jul 2018 19:26:36 +0100
REM compiler GCC version 9.2.1 20190827 (Red Hat 9.2.1-1)
REM options -cpp -mtune=generic -march=x86-64 -g -O0 -fpre-include=/usr/include/finclude/math-vector-fortran.h
REM seed -1578247060 -1709255380 -462929216 -31672074 -1443485796 -1812835326 -694386762 1585239400 -2108346598 1627616445 -1862174563 1809454311 -845863152 1922992831 -1614517424 1663984278 -1534297378 1356903332 1866159806 357089763 -1717030873 1176907342 1396075825 -1208912578 1602804085 1157098456 1644632208 -1121004070 2130842688 -1897021426 1093396666 -91417998 -638254585
REM
CELL 1.54180   50.00000   50.00000   50.00000   90.00000   90.00000   90.00000
LATT -1
SFAC C  
C      1  0.4446860000000  0.4957280000000  0.4846510000000 1.0
C      1  0.6068430000000  0.4230300000000  0.5445780000000 1.0
C      1  0.4504510000000  0.5812540000000  0.5480530000000 1.0
C      1  0.4922710000000  0.4802590000000  0.5989500000000 1.0
C      1  0.4996170000000  0.5219270000000  0.4197270000000 1.0
C      1  0.4973890000000  0.5309800000000  0.6105690000000 1.0
C      1  0.4674570000000  0.5544950000000  0.4428150000000 1.0
C      1  0.4478750000000  0.6079810000000  0.4744350000000 1.0
C      1  0.5677810000000  0.5385250000000  0.4774160000000 1.0
C      1  0.4347930000000  0.4780240000000  0.4326790000000 1.0
C      1  0.5158250000000  0.5846410000000  0.5527000000000 1.0
C      1  0.4072920000000  0.4439020000000  0.5403980000000 1.0
C      1  0.3889760000000  0.5142890000000  0.5587050000000 1.0
C      1  0.5516380000000  0.5447240000000  0.5391580000000 1.0
C      1  0.4440300000000  0.5458220000000  0.5123810000000 1.0
C      1  0.3880440000000  0.4655150000000  0.4680990000000 1.0
C      1  0.5919680000000  0.4684500000000  0.4715120000000 1.0
C      1  0.5229400000000  0.5342210000000  0.5307060000000 1.0
C      1  0.4370130000000  0.4293560000000  0.5116030000000 1.0
C      1  0.5140380000000  0.6151700000000  0.4933730000000 1.0
C      1  0.5648550000000  0.4699860000000  0.4767280000000 1.0
C      1  0.4403280000000  0.6133800000000  0.5018870000000 1.0
C      1  0.4960770000000  0.5542690000000  0.4855230000000 1.0
C      1  0.5907370000000  0.5110410000000  0.5810540000000 1.0
C      1  0.4163390000000  0.5462560000000  0.4278730000000 1.0
C      1  0.5474070000000  0.5133440000000  0.4378850000000 1.0
C      1  0.4737130000000  0.6197550000000  0.4649310000000 1.0
C      1  0.4679750000000  0.5024310000000  0.4974680000000 1.0
C      1  0.4015370000000  0.4530590000000  0.5673500000000 1.0
C      1  0.5369400000000  0.4252300000000  0.4351230000000 1.0
C      1  0.5276330000000  0.4191920000000  0.5731990000000 1.0
C      1  0.5970160000000  0.4047220000000  0.5252240000000 1.0
C      1  0.6016620000000  0.4091790000000  0.5699330000000 1.0
C      1  0.5513270000000  0.4031830000000  0.5704870000000 1.0
C      1  0.5306580000000  0.4338920000000  0.5203170000000 1.0
C      1  0.6061890000000  0.4932590000000  0.4742340000000 1.0
C      1  0.4721060000000  0.5036840000000  0.4174040000000 1.0
C      1  0.4185890000000  0.4289080000000  0.4137440000000 1.0
C      1  0.5558900000000  0.5918570000000  0.5813250000000 1.0
C      1  0.4045420000000  0.5498260000000  0.4547370000000 1.0
C      1  0.4514510000000  0.5045240000000  0.6059020000000 1.0
C      1  0.4872650000000  0.4629730000000  0.4391540000000 1.0
C      1  0.5992250000000  0.5248940000000  0.5332480000000 1.0
C      1  0.3860190000000  0.4822170000000  0.4466300000000 1.0
C      1  0.5450760000000  0.4507370000000  0.4772180000000 1.0
C      1  0.4292260000000  0.5029140000000  0.5356760000000 1.0
C      1  0.4598110000000  0.4048410000000  0.5709780000000 1.0
C      1  0.4479290000000  0.5640760000000  0.5713780000000 1.0
C      1  0.4746460000000  0.4086400000000  0.4025070000000 1.0
C      1  0.5157720000000  0.4973370000000  0.4995060000000 1.0
C      1  0.3943920000000  0.5011910000000  0.4286590000000 1.0
C      1  0.4204180000000  0.4311370000000  0.4871410000000 1.0
C      1  0.5106870000000  0.5778230000000  0.5230820000000 1.0
C      1  0.5734260000000  0.5318580000000  0.5249260000000 1.0
C      1  0.6056690000000  0.5113440000000  0.4519240000000 1.0
C      1  0.5481260000000  0.3921420000000  0.4678330000000 1.0
C      1  0.5607990000000  0.6064410000000  0.5349960000000 1.0
C      1  0.5089320000000  0.5694690000000  0.4062290000000 1.0
C      1  0.4469420000000  0.5523790000000  0.4832890000000 1.0
C      1  0.4674420000000  0.5664290000000  0.5920100000000 1.0
C      1  0.4455130000000  0.4027260000000  0.5199740000000 1.0
C      1  0.5220420000000  0.5680240000000  0.4780230000000 1.0
C      1  0.3743150000000  0.5033930000000  0.5361970000000 1.0
C      1  0.5668280000000  0.5471390000000  0.6021940000000 1.0
C      1  0.4678740000000  0.4537270000000  0.4565260000000 1.0
C      1  0.5048350000000  0.4265770000000  0.5914560000000 1.0
C      1  0.4355510000000  0.5637550000000  0.4135720000000 1.0
C      1  0.5500540000000  0.4630040000000  0.6276900000000 1.0
C      1  0.5093390000000  0.4512010000000  0.5103220000000 1.0
C      1  0.5604540000000  0.5238670000000  0.5005260000000 1.0
C      1  0.3731900000000  0.4748660000000  0.5356240000000 1.0
C      1  0.5521310000000  0.3879930000000  0.5452250000000 1.0
C      1  0.6223890000000  0.5676990000000  0.5050860000000 1.0
C      1  0.5665890000000  0.5209610000000  0.5919240000000 1.0
C      1  0.5242690000000  0.5020710000000  0.5658780000000 1.0
C      1  0.4575450000000  0.4495910000000  0.5168390000000 1.0
C      1  0.4897920000000  0.5479770000000  0.4051580000000 1.0
C      1  0.4703170000000  0.5324280000000  0.5213590000000 1.0
C      1  0.5758650000000  0.4422990000000  0.5856060000000 1.0
C      1  0.4571510000000  0.4030700000000  0.4245100000000 1.0
C      1  0.5061070000000  0.4845390000000  0.5456390000000 1.0
C      1  0.3982370000000  0.4507630000000  0.4905860000000 1.0
C      1  0.5146560000000  0.4650980000000  0.4415910000000 1.0
C      1  0.5278640000000  0.3827340000000  0.5313730000000 1.0
C      1  0.4280530000000  0.4421730000000  0.3921630000000 1.0
C      1  0.6334400000000  0.4472450000000  0.4820730000000 1.0
C      1  0.5956200000000  0.5767270000000  0.5019240000000 1.0
C      1  0.5388400000000  0.5636280000000  0.4013060000000 1.0
C      1  0.5430590000000  0.4847630000000  0.3771820000000 1.0
C      1  0.4760490000000  0.4879290000000  0.5427940000000 1.0
C      1  0.6060010000000  0.4432280000000  0.4745440000000 1.0
C      1  0.4800400000000  0.5097280000000  0.5964160000000 1.0
C      1  0.4053760000000  0.5266380000000  0.4723640000000 1.0
C      1  0.4942220000000  0.4394750000000  0.5503780000000 1.0
C      1  0.4804410000000  0.3765720000000  0.5396690000000 1.0
C      1  0.4563790000000  0.3984800000000  0.4702990000000 1.0
C      1  0.4612260000000  0.5345530000000  0.4630900000000 1.0
C      1  0.4171150000000  0.5181510000000  0.4208240000000 1.0
C      1  0.3974040000000  0.5737300000000  0.4681930000000 1.0
C      1  0.5638130000000  0.4098630000000  0.4840630000000 1.0
C      1  0.4175960000000  0.5165720000000  0.5596630000000 1.0
C      1  0.5011190000000  0.4595300000000  0.3773690000000 1.0
C      1  0.4633780000000  0.3959790000000  0.4971010000000 1.0
C      1  0.5816820000000  0.5626610000000  0.4817540000000 1.0
C      1  0.4704320000000  0.5160410000000  0.5451010000000 1.0
C      1  0.4846040000000  0.4376080000000  0.5085250000000 1.0
C      1  0.4869360000000  0.6231260000000  0.4918550000000 1.0
C      1  0.5223390000000  0.5887650000000  0.4985010000000 1.0
C      1  0.4766060000000  0.5749400000000  0.4603120000000 1.0
C      1  0.5518260000000  0.5354630000000  0.4547480000000 1.0
C      1  0.5419840000000  0.5125120000000  0.3897410000000 1.0
C      1  0.4424260000000  0.5035640000000  0.4212650000000 1.0
C      1  0.6204150000000  0.5189560000000  0.5146140000000 1.0
C      1  0.5238090000000  0.5209370000000  0.6137270000000 1.0
C      1  0.5408450000000  0.5045770000000  0.5933630000000 1.0
C      1  0.4667860000000  0.6173240000000  0.5152050000000 1.0
C      1  0.4013430000000  0.5862090000000  0.4918870000000 1.0
C      1  0.4941610000000  0.5570450000000  0.5962590000000 1.0
C      1  0.5025550000000  0.4098100000000  0.4100210000000 1.0
C      1  0.5924440000000  0.4603980000000  0.5714190000000 1.0
C      1  0.4353850000000  0.5720590000000  0.5255600000000 1.0
C      1  0.4360330000000  0.5922630000000  0.4124260000000 1.0
C      1  0.4571650000000  0.3929540000000  0.5451950000000 1.0
C      1  0.4690240000000  0.6035310000000  0.5414980000000 1.0
C      1  0.4758530000000  0.4629460000000  0.3896640000000 1.0
C      1  0.4925780000000  0.5043150000000  0.4858970000000 1.0
C      1  0.5506210000000  0.5886670000000  0.4111490000000 1.0
C      1  0.6426940000000  0.4705650000000  0.4938810000000 1.0
C      1  0.6209420000000  0.4907570000000  0.5026540000000 1.0
C      1  0.4530450000000  0.5799160000000  0.4748650000000 1.0
C      1  0.4562290000000  0.6092500000000  0.4193560000000 1.0
C      1  0.4235910000000  0.5235110000000  0.5157580000000 1.0
C      1  0.5324290000000  0.6062330000000  0.4228310000000 1.0
C      1  0.5808220000000  0.5350350000000  0.4099890000000 1.0
C      1  0.6033460000000  0.4520280000000  0.5457700000000 1.0
C      1  0.4304130000000  0.5406800000000  0.5698900000000 1.0
C      1  0.6072060000000  0.4719040000000  0.5252650000000 1.0
C      1  0.3750640000000  0.4639820000000  0.5630340000000 1.0
C      1  0.5459800000000  0.4786540000000  0.6071800000000 1.0
C      1  0.3912210000000  0.4569060000000  0.5187140000000 1.0
C      1  0.4315620000000  0.4147200000000  0.4638370000000 1.0
C      1  0.5206730000000  0.4304720000000  0.5475970000000 1.0
C      1  0.6330560000000  0.5426720000000  0.5055500000000 1.0
C      1  0.5246270000000  0.4771390000000  0.4184820000000 1.0
C      1  0.4505500000000  0.4531520000000  0.3822360000000 1.0
C      1  0.4219660000000  0.5926870000000  0.5103860000000 1.0
C      1  0.4801710000000  0.4117860000000  0.5877390000000 1.0
C      1  0.5550170000000  0.5385950000000  0.3963350000000 1.0
C      1  0.4882330000000  0.4078430000000  0.5059610000000 1.0
C      1  0.5135460000000  0.4772510000000  0.5186130000000 1.0
C      1  0.5066830000000  0.5338350000000  0.4471740000000 1.0
C      1  0.5441890000000  0.5955620000000  0.5559480000000 1.0
C      1  0.3993510000000  0.5264050000000  0.5002950000000 1.0
C      1  0.5583090000000  0.6332830000000  0.5294780000000 1.0
C      1  0.5014160000000  0.3885530000000  0.5239590000000 1.0
C      1  0.4203210000000  0.4637930000000  0.5852960000000 1.0
C      1  0.5045840000000  0.5966200000000  0.4223000000000 1.0
C      1  0.5297570000000  0.3995830000000  0.4476410000000 1.0
C      1  0.4370720000000  0.4817550000000  0.5963070000000 1.0
C      1  0.4932640000000  0.6045680000000  0.5566560000000 1.0
C      1  0.5806980000000  0.5917750000000  0.5208130000000 1.0
C      1  0.5755680000000  0.4142350000000  0.5809870000000 1.0
C      1  0.5331100000000  0.5174320000000  0.5068460000000 1.0
C      1  0.4807100000000  0.6112310000000  0.4354830000000 1.0
C      1  0.5270390000000  0.4615730000000  0.3927570000000 1.0
C      1  0.5006130000000  0.4543100000000  0.5993840000000 1.0
C      1  0.5264890000000  0.5064680000000  0.4157510000000 1.0
C      1  0.4742230000000  0.3945930000000  0.4475110000000 1.0
C      1  0.5319540000000  0.4467740000000  0.4529240000000 1.0
C      1  0.4983820000000  0.5501850000000  0.5167950000000 1.0
C      1  0.5761120000000  0.3880740000000  0.5300320000000 1.0
C      1  0.5981880000000  0.4845190000000  0.5836730000000 1.0
C      1  0.5254440000000  0.4284450000000  0.4083050000000 1.0
C      1  0.4405520000000  0.5205640000000  0.6252950000000 1.0
C      1  0.5641070000000  0.5733020000000  0.5985130000000 1.0
C      1  0.5901330000000  0.4194720000000  0.4768780000000 1.0
C      1  0.5022750000000  0.3957640000000  0.4378800000000 1.0
C      1  0.4320970000000  0.4146090000000  0.4339130000000 1.0
C      1  0.3754770000000  0.5186670000000  0.5126250000000 1.0
C      1  0.4901780000000  0.5285960000000  0.4707820000000 1.0
C      1  0.4527070000000  0.4753460000000  0.5319460000000 1.0
C      1  0.5114950000000  0.5594990000000  0.5719350000000 1.0
C      1  0.4779720000000  0.4755670000000  0.4150230000000 1.0
C      1  0.4630260000000  0.5541380000000  0.4150520000000 1.0
C      1  0.4243920000000  0.5055020000000  0.4700960000000 1.0
C      1  0.6037850000000  0.5250960000000  0.5607610000000 1.0
C      1  0.5288730000000  0.5518340000000  0.4551440000000 1.0
C      1  0.5476750000000  0.4299260000000  0.4975930000000 1.0
C      1  0.5969590000000  0.5240440000000  0.4292790000000 1.0
C      1  0.4826030000000  0.5224710000000  0.5685320000000 1.0
C      1  0.5117560000000  0.5305000000000  0.5599750000000 1.0
C      1  0.4424560000000  0.4605410000000  0.4513420000000 1.0
END
