TITL C-627106-156-163 0.00375563556278786 125000 -666.508073743783 0 0 113 (C1) n - 1
REM
REM in /home/nfs/bkarasulu/CARBON/AIRSS/Generating-Clusters/LCBOP/Only-C1/SD-CG/FIRE-CG
REM
REM
REM
REM
REM
REM ./C.cell (11c1c37f851c82e70ff6c80c92926a4b)
REM AIRSS Version 0.9.1 bugfix July 2018 build 013d7b7c2542+ Fri, 06 Jul 2018 19:26:36 +0100
REM compiler GCC version 9.2.1 20190827 (Red Hat 9.2.1-1)
REM options -cpp -mtune=generic -march=x86-64 -g -O0 -fpre-include=/usr/include/finclude/math-vector-fortran.h
REM seed -1222809157 460981427 458240885 371237302 -481613701 -54416037 994152654 -1518991268 -1168687463 -1912559180 -875470255 2107591865 -1177625505 -473770744 666035455 -1150820677 -384623503 -1833059496 -1550569868 -1486853673 1080340413 -990785891 290211595 2064730238 593286961 1214048254 -1890290437 -1935941785 -1616032942 1815863542 636650204 -1321560808 -1167052463
REM
CELL 1.54180   50.00000   50.00000   50.00000   90.00000   90.00000   90.00000
LATT -1
SFAC C  
C      1  0.6417800000000  0.6018280000000  0.5238950000000 1.0
C      1  0.5348150000000  0.5382710000000  0.5676710000000 1.0
C      1  0.5143180000000  0.4626500000000  0.4325020000000 1.0
C      1  0.5024760000000  0.4125320000000  0.4770750000000 1.0
C      1  0.5024130000000  0.4947430000000  0.5806390000000 1.0
C      1  0.5299190000000  0.3785440000000  0.4972020000000 1.0
C      1  0.4684910000000  0.4770690000000  0.6107700000000 1.0
C      1  0.4070100000000  0.5253200000000  0.5176470000000 1.0
C      1  0.5283860000000  0.5520690000000  0.4843460000000 1.0
C      1  0.4269050000000  0.5256110000000  0.5380950000000 1.0
C      1  0.5223610000000  0.5641630000000  0.5583360000000 1.0
C      1  0.4159680000000  0.5636930000000  0.4574340000000 1.0
C      1  0.5844270000000  0.5297600000000  0.4446500000000 1.0
C      1  0.4785880000000  0.4975870000000  0.5183520000000 1.0
C      1  0.4680650000000  0.4319220000000  0.4388280000000 1.0
C      1  0.5760190000000  0.4423880000000  0.4730700000000 1.0
C      1  0.4693780000000  0.5773750000000  0.4405220000000 1.0
C      1  0.3541960000000  0.5171580000000  0.5269570000000 1.0
C      1  0.4441390000000  0.4657990000000  0.5313480000000 1.0
C      1  0.4624800000000  0.4609290000000  0.4326850000000 1.0
C      1  0.5185730000000  0.4499400000000  0.5942660000000 1.0
C      1  0.4176970000000  0.5296290000000  0.4910740000000 1.0
C      1  0.5916360000000  0.5879730000000  0.5164320000000 1.0
C      1  0.5622070000000  0.5496110000000  0.5118860000000 1.0
C      1  0.4627990000000  0.4747920000000  0.5134740000000 1.0
C      1  0.5096840000000  0.4256250000000  0.6004930000000 1.0
C      1  0.5659220000000  0.5776870000000  0.5127710000000 1.0
C      1  0.5187230000000  0.6029330000000  0.5067050000000 1.0
C      1  0.4787680000000  0.3958130000000  0.5710950000000 1.0
C      1  0.4927740000000  0.5642330000000  0.5577920000000 1.0
C      1  0.5171930000000  0.4342640000000  0.4369130000000 1.0
C      1  0.4949810000000  0.5376140000000  0.4374350000000 1.0
C      1  0.5431930000000  0.4429060000000  0.5366350000000 1.0
C      1  0.3289470000000  0.5127470000000  0.5317150000000 1.0
C      1  0.5448950000000  0.5583230000000  0.4273270000000 1.0
C      1  0.5428030000000  0.4231510000000  0.4398200000000 1.0
C      1  0.5776780000000  0.5090290000000  0.4248410000000 1.0
C      1  0.3990350000000  0.4682120000000  0.4517150000000 1.0
C      1  0.5137480000000  0.5093870000000  0.4707120000000 1.0
C      1  0.4701230000000  0.5813540000000  0.5137690000000 1.0
C      1  0.4044320000000  0.4237080000000  0.4711530000000 1.0
C      1  0.3968410000000  0.5831440000000  0.4558440000000 1.0
C      1  0.4422750000000  0.4831490000000  0.4336860000000 1.0
C      1  0.5843070000000  0.5091060000000  0.3980080000000 1.0
C      1  0.4708640000000  0.5761970000000  0.5426720000000 1.0
C      1  0.4481720000000  0.5082480000000  0.4206160000000 1.0
C      1  0.4647950000000  0.4632470000000  0.4872230000000 1.0
C      1  0.4512500000000  0.5342560000000  0.5272520000000 1.0
C      1  0.5333850000000  0.4207910000000  0.5199060000000 1.0
C      1  0.4943640000000  0.4225310000000  0.4507670000000 1.0
C      1  0.4924640000000  0.5977780000000  0.5060580000000 1.0
C      1  0.5755980000000  0.4897420000000  0.4659110000000 1.0
C      1  0.4659890000000  0.5209600000000  0.5078400000000 1.0
C      1  0.5892100000000  0.5157300000000  0.4706100000000 1.0
C      1  0.4502800000000  0.4394760000000  0.4837260000000 1.0
C      1  0.5149800000000  0.4629260000000  0.4995560000000 1.0
C      1  0.6151260000000  0.4306200000000  0.5488580000000 1.0
C      1  0.6006240000000  0.5212110000000  0.4965300000000 1.0
C      1  0.5622350000000  0.5314280000000  0.5620180000000 1.0
C      1  0.5632860000000  0.4885300000000  0.4393050000000 1.0
C      1  0.5852330000000  0.5267770000000  0.5475570000000 1.0
C      1  0.5561630000000  0.5231450000000  0.5115650000000 1.0
C      1  0.4058750000000  0.5121630000000  0.5797050000000 1.0
C      1  0.4878980000000  0.5410460000000  0.5746330000000 1.0
C      1  0.5644770000000  0.4261740000000  0.4552320000000 1.0
C      1  0.5280070000000  0.4890310000000  0.5325760000000 1.0
C      1  0.5519940000000  0.4958940000000  0.5181670000000 1.0
C      1  0.4945730000000  0.4053180000000  0.5922100000000 1.0
C      1  0.3914660000000  0.4434280000000  0.4583560000000 1.0
C      1  0.4527090000000  0.5023510000000  0.5732740000000 1.0
C      1  0.5178020000000  0.4705800000000  0.5753620000000 1.0
C      1  0.5929650000000  0.4407970000000  0.5396730000000 1.0
C      1  0.4693530000000  0.5253330000000  0.4804070000000 1.0
C      1  0.5696650000000  0.4517440000000  0.5293900000000 1.0
C      1  0.4279130000000  0.5561920000000  0.4830890000000 1.0
C      1  0.5092500000000  0.5317550000000  0.5247430000000 1.0
C      1  0.5753450000000  0.4683200000000  0.4838990000000 1.0
C      1  0.5286190000000  0.4656490000000  0.5493060000000 1.0
C      1  0.4481660000000  0.5365930000000  0.4242690000000 1.0
C      1  0.4205890000000  0.4862150000000  0.4530850000000 1.0
C      1  0.4743660000000  0.4911140000000  0.5878580000000 1.0
C      1  0.4644940000000  0.3719950000000  0.5731600000000 1.0
C      1  0.4994570000000  0.4471490000000  0.5152770000000 1.0
C      1  0.5239340000000  0.5427630000000  0.4383890000000 1.0
C      1  0.5149900000000  0.5509650000000  0.5074050000000 1.0
C      1  0.5442060000000  0.5954860000000  0.5099050000000 1.0
C      1  0.5216210000000  0.4049890000000  0.4980770000000 1.0
C      1  0.5045550000000  0.5041910000000  0.5277730000000 1.0
C      1  0.4626170000000  0.5844210000000  0.4656530000000 1.0
C      1  0.5307170000000  0.5318990000000  0.4649780000000 1.0
C      1  0.4281400000000  0.5132570000000  0.5638030000000 1.0
C      1  0.4193440000000  0.5075370000000  0.4724340000000 1.0
C      1  0.5106880000000  0.5221970000000  0.5772200000000 1.0
C      1  0.4780170000000  0.4113670000000  0.5477820000000 1.0
C      1  0.6168180000000  0.5953100000000  0.5201560000000 1.0
C      1  0.4520910000000  0.5735470000000  0.4906500000000 1.0
C      1  0.5383720000000  0.4778030000000  0.4315460000000 1.0
C      1  0.5688360000000  0.4735480000000  0.5109260000000 1.0
C      1  0.5995130000000  0.5233060000000  0.5240890000000 1.0
C      1  0.4881760000000  0.4718260000000  0.4408890000000 1.0
C      1  0.4511700000000  0.3496730000000  0.5750090000000 1.0
C      1  0.4885260000000  0.5209190000000  0.4605790000000 1.0
C      1  0.3799140000000  0.5215180000000  0.5223290000000 1.0
C      1  0.4724900000000  0.5518830000000  0.4283000000000 1.0
C      1  0.4491940000000  0.5852280000000  0.5572740000000 1.0
C      1  0.5094390000000  0.4834040000000  0.4810220000000 1.0
C      1  0.4855920000000  0.4302420000000  0.5306980000000 1.0
C      1  0.4292380000000  0.4233030000000  0.4812630000000 1.0
C      1  0.5707510000000  0.5539040000000  0.4390170000000 1.0
C      1  0.4250230000000  0.5493880000000  0.4346630000000 1.0
C      1  0.5897540000000  0.5100040000000  0.3725400000000 1.0
C      1  0.4849040000000  0.4737880000000  0.4693160000000 1.0
C      1  0.5410030000000  0.5761630000000  0.4070880000000 1.0
END
