TITL C-627110-360-132 6.52037531149769 125000 -1114.23481158751 0 0 185 (C1) n - 1
REM
REM in /home/nfs/bkarasulu/CARBON/AIRSS/Generating-Clusters/LCBOP/Only-C1/SD-CG/FIRE-CG
REM
REM
REM
REM
REM
REM ./C.cell (11c1c37f851c82e70ff6c80c92926a4b)
REM AIRSS Version 0.9.1 bugfix July 2018 build 013d7b7c2542+ Fri, 06 Jul 2018 19:26:36 +0100
REM compiler GCC version 9.2.1 20190827 (Red Hat 9.2.1-1)
REM options -cpp -mtune=generic -march=x86-64 -g -O0 -fpre-include=/usr/include/finclude/math-vector-fortran.h
REM seed -454440344 624917100 910624475 1632787541 -982746897 -1754417706 -2101192109 401843575 -303320042 -1406188607 -1866193156 -2052865562 -593994961 -220625044 378182447 -1080417312 -1335902306 -456513206 2134936428 1919447137 -1684037159 -2014078394 1751578898 1761004484 -2018751102 1900086699 -384414184 715626860 -422040368 1881202700 487124026 -1181289820 -1131515980
REM
CELL 1.54180   50.00000   50.00000   50.00000   90.00000   90.00000   90.00000
LATT -1
SFAC C  
C      1  0.4310120000000  0.4846420000000  0.5823070000000 1.0
C      1  0.5853090000000  0.5285330000000  0.5429880000000 1.0
C      1  0.6705360000000  0.3901950000000  0.4651600000000 1.0
C      1  0.4100430000000  0.5840730000000  0.5401890000000 1.0
C      1  0.5084440000000  0.5957180000000  0.4749490000000 1.0
C      1  0.5034910000000  0.4005200000000  0.4821680000000 1.0
C      1  0.4250510000000  0.5892190000000  0.5655630000000 1.0
C      1  0.3966550000000  0.4535760000000  0.4443550000000 1.0
C      1  0.4335520000000  0.5944040000000  0.4902480000000 1.0
C      1  0.5046740000000  0.5015820000000  0.4221270000000 1.0
C      1  0.5031330000000  0.5301370000000  0.4558990000000 1.0
C      1  0.4751800000000  0.6191400000000  0.5322060000000 1.0
C      1  0.4213010000000  0.4532050000000  0.5102800000000 1.0
C      1  0.5705690000000  0.6114240000000  0.5069690000000 1.0
C      1  0.5849040000000  0.4875160000000  0.4893140000000 1.0
C      1  0.3829390000000  0.4373010000000  0.4265530000000 1.0
C      1  0.5800380000000  0.4714530000000  0.5881050000000 1.0
C      1  0.4523030000000  0.4273980000000  0.5492010000000 1.0
C      1  0.3718930000000  0.5021820000000  0.4515270000000 1.0
C      1  0.5282670000000  0.5102720000000  0.5817170000000 1.0
C      1  0.5527690000000  0.4093890000000  0.4692250000000 1.0
C      1  0.5382270000000  0.4977270000000  0.5375260000000 1.0
C      1  0.4630060000000  0.5688290000000  0.5337490000000 1.0
C      1  0.5546910000000  0.4785130000000  0.5272400000000 1.0
C      1  0.4740450000000  0.4974610000000  0.5760870000000 1.0
C      1  0.4980280000000  0.5668500000000  0.3981410000000 1.0
C      1  0.5627420000000  0.5389550000000  0.4113850000000 1.0
C      1  0.5968270000000  0.5040020000000  0.5527350000000 1.0
C      1  0.5434540000000  0.4495370000000  0.4160510000000 1.0
C      1  0.5735980000000  0.5632520000000  0.4535150000000 1.0
C      1  0.4618740000000  0.5658090000000  0.4368760000000 1.0
C      1  0.4111760000000  0.4271840000000  0.5062110000000 1.0
C      1  0.3992620000000  0.5563660000000  0.5340270000000 1.0
C      1  0.5312940000000  0.5508290000000  0.5198500000000 1.0
C      1  0.4381020000000  0.5491480000000  0.4250970000000 1.0
C      1  0.5131980000000  0.4430560000000  0.6117630000000 1.0
C      1  0.4248190000000  0.4491910000000  0.4534860000000 1.0
C      1  0.4766970000000  0.5921950000000  0.5725410000000 1.0
C      1  0.5507600000000  0.5341730000000  0.5050800000000 1.0
C      1  0.4702850000000  0.6222940000000  0.5060330000000 1.0
C      1  0.4948840000000  0.4596240000000  0.4553100000000 1.0
C      1  0.5687260000000  0.4548490000000  0.4291390000000 1.0
C      1  0.5327740000000  0.5338880000000  0.4575080000000 1.0
C      1  0.4212370000000  0.5461300000000  0.5173790000000 1.0
C      1  0.3849200000000  0.5381030000000  0.5514900000000 1.0
C      1  0.3968540000000  0.5657340000000  0.4041250000000 1.0
C      1  0.4305020000000  0.4270700000000  0.5726990000000 1.0
C      1  0.3593150000000  0.5449060000000  0.5590270000000 1.0
C      1  0.4546270000000  0.5176500000000  0.4809330000000 1.0
C      1  0.5300760000000  0.4306910000000  0.5941560000000 1.0
C      1  0.5361100000000  0.4730100000000  0.3735460000000 1.0
C      1  0.5843260000000  0.5226420000000  0.6221890000000 1.0
C      1  0.5355780000000  0.5182820000000  0.5550940000000 1.0
C      1  0.4048000000000  0.5695170000000  0.4528160000000 1.0
C      1  0.4741880000000  0.5020140000000  0.6045620000000 1.0
C      1  0.5112020000000  0.5852240000000  0.5745050000000 1.0
C      1  0.3855790000000  0.4782400000000  0.4574210000000 1.0
C      1  0.5328450000000  0.5462820000000  0.5489770000000 1.0
C      1  0.5786040000000  0.5576010000000  0.4260460000000 1.0
C      1  0.5193970000000  0.5690260000000  0.3824940000000 1.0
C      1  0.4677710000000  0.4610410000000  0.3984100000000 1.0
C      1  0.5808820000000  0.5290620000000  0.5136170000000 1.0
C      1  0.5245320000000  0.4277810000000  0.4262370000000 1.0
C      1  0.4659950000000  0.4788060000000  0.4202330000000 1.0
C      1  0.5472870000000  0.4300110000000  0.5707960000000 1.0
C      1  0.4781470000000  0.4753390000000  0.5602610000000 1.0
C      1  0.6027450000000  0.4425370000000  0.5147050000000 1.0
C      1  0.4298040000000  0.4755520000000  0.4669350000000 1.0
C      1  0.5260070000000  0.4202150000000  0.4581180000000 1.0
C      1  0.5924340000000  0.5556090000000  0.5028540000000 1.0
C      1  0.4957960000000  0.5282420000000  0.4281130000000 1.0
C      1  0.5876740000000  0.5097930000000  0.3498780000000 1.0
C      1  0.4182880000000  0.5966840000000  0.5148550000000 1.0
C      1  0.5785840000000  0.4224860000000  0.4739070000000 1.0
C      1  0.5304290000000  0.6037470000000  0.5642360000000 1.0
C      1  0.4493480000000  0.4078480000000  0.4810930000000 1.0
C      1  0.4311420000000  0.4080480000000  0.5039650000000 1.0
C      1  0.5848220000000  0.4940900000000  0.4614020000000 1.0
C      1  0.3731370000000  0.5284630000000  0.4579870000000 1.0
C      1  0.5524250000000  0.4250880000000  0.5141060000000 1.0
C      1  0.5984720000000  0.5044860000000  0.5067100000000 1.0
C      1  0.5658750000000  0.4756340000000  0.4483380000000 1.0
C      1  0.5681180000000  0.4614720000000  0.5436200000000 1.0
C      1  0.5730460000000  0.5963640000000  0.5305980000000 1.0
C      1  0.4324530000000  0.4703700000000  0.5569660000000 1.0
C      1  0.4850320000000  0.4854780000000  0.5027030000000 1.0
C      1  0.5204680000000  0.4825820000000  0.5804200000000 1.0
C      1  0.5670020000000  0.5953250000000  0.3346940000000 1.0
C      1  0.5214490000000  0.3916170000000  0.5034620000000 1.0
C      1  0.4912580000000  0.3961340000000  0.5415970000000 1.0
C      1  0.5107500000000  0.4917650000000  0.4961430000000 1.0
C      1  0.4235820000000  0.5119290000000  0.5712790000000 1.0
C      1  0.4872030000000  0.4422680000000  0.3948420000000 1.0
C      1  0.4785220000000  0.4587750000000  0.5088880000000 1.0
C      1  0.4568160000000  0.4588200000000  0.5501570000000 1.0
C      1  0.5900810000000  0.5542310000000  0.5540250000000 1.0
C      1  0.4246750000000  0.5880320000000  0.4634880000000 1.0
C      1  0.4821980000000  0.4192590000000  0.5598220000000 1.0
C      1  0.5847740000000  0.4633720000000  0.6140400000000 1.0
C      1  0.4124460000000  0.5614220000000  0.4260610000000 1.0
C      1  0.4762060000000  0.3984130000000  0.4903730000000 1.0
C      1  0.4867030000000  0.5529730000000  0.5322470000000 1.0
C      1  0.5213730000000  0.4493660000000  0.4696420000000 1.0
C      1  0.5427180000000  0.5205240000000  0.4814510000000 1.0
C      1  0.5598820000000  0.4811820000000  0.5005570000000 1.0
C      1  0.4305970000000  0.5346710000000  0.4927420000000 1.0
C      1  0.5411430000000  0.4151340000000  0.5434400000000 1.0
C      1  0.5402790000000  0.4727380000000  0.4620590000000 1.0
C      1  0.3958940000000  0.5128690000000  0.5617730000000 1.0
C      1  0.4925820000000  0.4588770000000  0.6203000000000 1.0
C      1  0.6233130000000  0.4116230000000  0.4565810000000 1.0
C      1  0.5235680000000  0.5588820000000  0.5749590000000 1.0
C      1  0.3886500000000  0.4609880000000  0.5672630000000 1.0
C      1  0.4723180000000  0.3934880000000  0.5200250000000 1.0
C      1  0.4043440000000  0.4821680000000  0.4792360000000 1.0
C      1  0.6089790000000  0.4907660000000  0.5304350000000 1.0
C      1  0.4750370000000  0.5298890000000  0.6072700000000 1.0
C      1  0.5888900000000  0.5238180000000  0.5949910000000 1.0
C      1  0.4720330000000  0.4446920000000  0.4610430000000 1.0
C      1  0.3853770000000  0.4834490000000  0.5251290000000 1.0
C      1  0.4483900000000  0.5907000000000  0.5815780000000 1.0
C      1  0.4698040000000  0.4760250000000  0.6155800000000 1.0
C      1  0.4501660000000  0.4544740000000  0.5078430000000 1.0
C      1  0.4490200000000  0.4988350000000  0.4309090000000 1.0
C      1  0.5043620000000  0.4652780000000  0.5635110000000 1.0
C      1  0.5536430000000  0.6169050000000  0.4871430000000 1.0
C      1  0.5455570000000  0.5609480000000  0.4585260000000 1.0
C      1  0.5022270000000  0.4411870000000  0.5483630000000 1.0
C      1  0.5302900000000  0.6108000000000  0.4759620000000 1.0
C      1  0.3859560000000  0.4864220000000  0.5532660000000 1.0
C      1  0.5929010000000  0.5507310000000  0.5826150000000 1.0
C      1  0.4718750000000  0.5942560000000  0.5444480000000 1.0
C      1  0.5736510000000  0.5247000000000  0.3660120000000 1.0
C      1  0.5374710000000  0.4916800000000  0.4845210000000 1.0
C      1  0.3706700000000  0.4216130000000  0.4097470000000 1.0
C      1  0.4481830000000  0.4360200000000  0.5952980000000 1.0
C      1  0.5185850000000  0.3960670000000  0.5329970000000 1.0
C      1  0.5474770000000  0.3983530000000  0.4959230000000 1.0
C      1  0.4793320000000  0.4052470000000  0.4224390000000 1.0
C      1  0.4789300000000  0.5337310000000  0.4711810000000 1.0
C      1  0.4860870000000  0.5798100000000  0.4854330000000 1.0
C      1  0.4850880000000  0.5536970000000  0.4189660000000 1.0
C      1  0.6148710000000  0.4634510000000  0.5266990000000 1.0
C      1  0.4528790000000  0.5062600000000  0.5311810000000 1.0
C      1  0.5561920000000  0.5804100000000  0.3531290000000 1.0
C      1  0.5949090000000  0.5219350000000  0.4609400000000 1.0
C      1  0.4453480000000  0.4976390000000  0.4593930000000 1.0
C      1  0.4472370000000  0.4273320000000  0.4569310000000 1.0
C      1  0.4625040000000  0.5988700000000  0.4922090000000 1.0
C      1  0.5243770000000  0.4426600000000  0.5026190000000 1.0
C      1  0.5667800000000  0.4524930000000  0.5699020000000 1.0
C      1  0.5983640000000  0.4234980000000  0.4538670000000 1.0
C      1  0.4643350000000  0.5036890000000  0.5058670000000 1.0
C      1  0.4473430000000  0.4060880000000  0.5276460000000 1.0
C      1  0.4411180000000  0.5222800000000  0.4182800000000 1.0
C      1  0.5369280000000  0.4738510000000  0.4009680000000 1.0
C      1  0.3847340000000  0.5523910000000  0.4631230000000 1.0
C      1  0.4462640000000  0.5916090000000  0.4433460000000 1.0
C      1  0.4745950000000  0.4220640000000  0.5898730000000 1.0
C      1  0.5542040000000  0.6027020000000  0.5511590000000 1.0
C      1  0.5895290000000  0.4985390000000  0.5796770000000 1.0
C      1  0.4872240000000  0.5410820000000  0.5583320000000 1.0
C      1  0.5905470000000  0.4376300000000  0.4308730000000 1.0
C      1  0.5019090000000  0.4448000000000  0.5191330000000 1.0
C      1  0.4038730000000  0.4382920000000  0.5707760000000 1.0
C      1  0.4420250000000  0.5235580000000  0.5511680000000 1.0
C      1  0.4457140000000  0.4650660000000  0.6024260000000 1.0
C      1  0.4991210000000  0.4229510000000  0.4122650000000 1.0
C      1  0.4549850000000  0.4099640000000  0.4335210000000 1.0
C      1  0.5994550000000  0.5722480000000  0.5983810000000 1.0
C      1  0.5800310000000  0.4322080000000  0.5018080000000 1.0
C      1  0.5603980000000  0.5421930000000  0.3832690000000 1.0
C      1  0.5045090000000  0.5597270000000  0.5117870000000 1.0
C      1  0.4790340000000  0.5437110000000  0.5842200000000 1.0
C      1  0.4914520000000  0.4793900000000  0.4343930000000 1.0
C      1  0.4030690000000  0.4743680000000  0.5057560000000 1.0
C      1  0.5317670000000  0.4988390000000  0.4149830000000 1.0
C      1  0.5893770000000  0.5724480000000  0.5296630000000 1.0
C      1  0.5913330000000  0.5499240000000  0.4725800000000 1.0
C      1  0.5254030000000  0.5364880000000  0.5944080000000 1.0
C      1  0.6471180000000  0.4007840000000  0.4607950000000 1.0
C      1  0.4425150000000  0.5492200000000  0.5370200000000 1.0
C      1  0.4733960000000  0.5609860000000  0.4658880000000 1.0
C      1  0.5451570000000  0.5639210000000  0.3727950000000 1.0
C      1  0.5463640000000  0.5209370000000  0.4257550000000 1.0
END
