TITL C-627109-622-1602 0.000748935323521631 125000 -422.38478818679 0 0 70 (C1) n - 1
REM
REM in /home/nfs/bkarasulu/CARBON/AIRSS/Generating-Clusters/LCBOP/Only-C1/SD-CG/FIRE-CG
REM
REM
REM
REM
REM
REM ./C.cell (11c1c37f851c82e70ff6c80c92926a4b)
REM AIRSS Version 0.9.1 bugfix July 2018 build 013d7b7c2542+ Fri, 06 Jul 2018 19:26:36 +0100
REM compiler GCC version 9.2.1 20190827 (Red Hat 9.2.1-1)
REM options -cpp -mtune=generic -march=x86-64 -g -O0 -fpre-include=/usr/include/finclude/math-vector-fortran.h
REM seed -29265891 1675027179 -159593591 998718419 241427293 846220669 708060441 -1166094679 2013456844 -1901627694 -1249473540 1510115859 1248781804 1722235374 1302399369 506455539 -22364067 -203177224 1318751309 -1994125844 253239534 603171130 940273902 -1456670418 529252446 949604556 -1162321923 904928410 -566477325 -1067858914 274393349 -912130294 -2074916057
REM
CELL 1.54180   50.00000   50.00000   50.00000   90.00000   90.00000   90.00000
LATT -1
SFAC C  
C      1  0.5498380000000  0.5240710000000  0.5854380000000 1.0
C      1  0.5594920000000  0.4693270000000  0.5373210000000 1.0
C      1  0.5549830000000  0.5240510000000  0.5121260000000 1.0
C      1  0.4444730000000  0.4652300000000  0.4291160000000 1.0
C      1  0.5129150000000  0.5317110000000  0.5363250000000 1.0
C      1  0.4982360000000  0.5759330000000  0.4695750000000 1.0
C      1  0.5950520000000  0.5879800000000  0.4836300000000 1.0
C      1  0.5539710000000  0.5154690000000  0.5593210000000 1.0
C      1  0.5114270000000  0.4579880000000  0.4387800000000 1.0
C      1  0.4511820000000  0.5719140000000  0.4796640000000 1.0
C      1  0.5503910000000  0.3220900000000  0.5599180000000 1.0
C      1  0.4049740000000  0.4262700000000  0.3952790000000 1.0
C      1  0.4216630000000  0.4490350000000  0.4350760000000 1.0
C      1  0.4477900000000  0.4767540000000  0.4045490000000 1.0
C      1  0.5313770000000  0.4357080000000  0.4782470000000 1.0
C      1  0.5481080000000  0.3479680000000  0.5620980000000 1.0
C      1  0.5408220000000  0.5265860000000  0.5367420000000 1.0
C      1  0.4563380000000  0.5721820000000  0.5315320000000 1.0
C      1  0.5017990000000  0.5029810000000  0.4482190000000 1.0
C      1  0.4720930000000  0.5875510000000  0.4678100000000 1.0
C      1  0.5306340000000  0.4983360000000  0.4474530000000 1.0
C      1  0.5347470000000  0.4742200000000  0.4316530000000 1.0
C      1  0.4628440000000  0.6353300000000  0.4437980000000 1.0
C      1  0.5838170000000  0.5660570000000  0.4934120000000 1.0
C      1  0.5410180000000  0.4282890000000  0.5686160000000 1.0
C      1  0.4583360000000  0.6587220000000  0.4321770000000 1.0
C      1  0.6058700000000  0.6096460000000  0.4739780000000 1.0
C      1  0.5711340000000  0.5448560000000  0.5029540000000 1.0
C      1  0.5167180000000  0.4362880000000  0.4557750000000 1.0
C      1  0.5096700000000  0.5091730000000  0.6141640000000 1.0
C      1  0.4149870000000  0.4254010000000  0.4206420000000 1.0
C      1  0.4745420000000  0.5436550000000  0.5975950000000 1.0
C      1  0.4330170000000  0.4485380000000  0.4823930000000 1.0
C      1  0.4449270000000  0.5478590000000  0.4663170000000 1.0
C      1  0.5547790000000  0.4684000000000  0.4144100000000 1.0
C      1  0.4189760000000  0.4010200000000  0.4343060000000 1.0
C      1  0.5262230000000  0.4396590000000  0.5895240000000 1.0
C      1  0.4607710000000  0.5293880000000  0.4548300000000 1.0
C      1  0.4132610000000  0.4512050000000  0.4620970000000 1.0
C      1  0.4898200000000  0.4766260000000  0.4445800000000 1.0
C      1  0.4461980000000  0.5749600000000  0.5070430000000 1.0
C      1  0.4350270000000  0.4230200000000  0.4941390000000 1.0
C      1  0.5532800000000  0.4450220000000  0.5498030000000 1.0
C      1  0.5434680000000  0.4005730000000  0.5665230000000 1.0
C      1  0.5025400000000  0.5582010000000  0.5363790000000 1.0
C      1  0.5466260000000  0.5026640000000  0.4699100000000 1.0
C      1  0.5525800000000  0.4997370000000  0.4972850000000 1.0
C      1  0.4813500000000  0.4924560000000  0.5174160000000 1.0
C      1  0.4556310000000  0.4653810000000  0.4780410000000 1.0
C      1  0.4254110000000  0.3904870000000  0.4580940000000 1.0
C      1  0.4539020000000  0.6817290000000  0.4207470000000 1.0
C      1  0.4955410000000  0.5103690000000  0.5308920000000 1.0
C      1  0.4869070000000  0.5253360000000  0.6124330000000 1.0
C      1  0.4673470000000  0.6119690000000  0.4554370000000 1.0
C      1  0.5664550000000  0.4909040000000  0.5538780000000 1.0
C      1  0.4689040000000  0.4776630000000  0.4992580000000 1.0
C      1  0.5135880000000  0.5822680000000  0.4921700000000 1.0
C      1  0.5455180000000  0.4509460000000  0.4949300000000 1.0
C      1  0.5148280000000  0.4573560000000  0.6057310000000 1.0
C      1  0.5137680000000  0.5765170000000  0.5182720000000 1.0
C      1  0.5457870000000  0.3742800000000  0.5643130000000 1.0
C      1  0.4633440000000  0.4694470000000  0.4504880000000 1.0
C      1  0.4724990000000  0.5578850000000  0.5752500000000 1.0
C      1  0.5341650000000  0.5207340000000  0.6067030000000 1.0
C      1  0.5534820000000  0.4736250000000  0.5096210000000 1.0
C      1  0.4319040000000  0.3987600000000  0.4828190000000 1.0
C      1  0.4771630000000  0.5637320000000  0.5483500000000 1.0
C      1  0.4887890000000  0.5274540000000  0.4516060000000 1.0
C      1  0.5026550000000  0.5518020000000  0.4556010000000 1.0
C      1  0.5083240000000  0.4812560000000  0.6154280000000 1.0
END
