TITL C-627106-156-310 -2.60176776406128e-06 125000 -1142.2461243478 0 0 186 (C1) n - 1
REM
REM in /home/nfs/bkarasulu/CARBON/AIRSS/Generating-Clusters/LCBOP/Only-C1/SD-CG/FIRE-CG
REM
REM
REM
REM
REM
REM ./C.cell (11c1c37f851c82e70ff6c80c92926a4b)
REM AIRSS Version 0.9.1 bugfix July 2018 build 013d7b7c2542+ Fri, 06 Jul 2018 19:26:36 +0100
REM compiler GCC version 9.2.1 20190827 (Red Hat 9.2.1-1)
REM options -cpp -mtune=generic -march=x86-64 -g -O0 -fpre-include=/usr/include/finclude/math-vector-fortran.h
REM seed -345958395 -960495486 1860445893 756309119 -708971163 -737735342 -1410846199 1370323561 1015396095 -1458289071 -1448357349 -1683574472 1184381343 -452542535 1829843939 -1676434758 73741830 -1217198936 2101713082 -1796405348 1358250738 1644244691 -818461635 511080489 -2000044075 553734004 1684749680 989842288 -1819954216 906482580 -938556726 1665887942 498319007
REM
CELL 1.54180   50.00000   50.00000   50.00000   90.00000   90.00000   90.00000
LATT -1
SFAC C  
C      1  0.6174030000000  0.4643150000000  0.4540340000000 1.0
C      1  0.4848860000000  0.6155550000000  0.5243670000000 1.0
C      1  0.4458990000000  0.5030680000000  0.3956830000000 1.0
C      1  0.5606630000000  0.5318740000000  0.5982870000000 1.0
C      1  0.4503760000000  0.4891060000000  0.6056910000000 1.0
C      1  0.4964860000000  0.3727890000000  0.4962650000000 1.0
C      1  0.4929470000000  0.5403840000000  0.4903540000000 1.0
C      1  0.4583790000000  0.5444220000000  0.5335940000000 1.0
C      1  0.5755490000000  0.4443510000000  0.5093330000000 1.0
C      1  0.5435340000000  0.5144950000000  0.5387500000000 1.0
C      1  0.5352650000000  0.3932950000000  0.5652870000000 1.0
C      1  0.4083570000000  0.4080610000000  0.5041000000000 1.0
C      1  0.5600200000000  0.5182070000000  0.4472230000000 1.0
C      1  0.4439350000000  0.4496980000000  0.3886320000000 1.0
C      1  0.5317500000000  0.6146440000000  0.5008360000000 1.0
C      1  0.6062910000000  0.5517490000000  0.5422240000000 1.0
C      1  0.4334490000000  0.5677990000000  0.4904720000000 1.0
C      1  0.5850830000000  0.5454020000000  0.3921350000000 1.0
C      1  0.4983000000000  0.4038110000000  0.4227180000000 1.0
C      1  0.4134010000000  0.4223130000000  0.5992180000000 1.0
C      1  0.5250330000000  0.6272100000000  0.4764420000000 1.0
C      1  0.4900300000000  0.4247740000000  0.5151360000000 1.0
C      1  0.5809060000000  0.5501310000000  0.5872150000000 1.0
C      1  0.5202810000000  0.4238050000000  0.5192790000000 1.0
C      1  0.6071360000000  0.5331810000000  0.4010290000000 1.0
C      1  0.5100060000000  0.5030740000000  0.5758790000000 1.0
C      1  0.4574720000000  0.4138910000000  0.5771940000000 1.0
C      1  0.5701360000000  0.5869750000000  0.4896870000000 1.0
C      1  0.4173890000000  0.5399790000000  0.5572150000000 1.0
C      1  0.5217250000000  0.5783880000000  0.4172100000000 1.0
C      1  0.5325850000000  0.4228340000000  0.4907480000000 1.0
C      1  0.5565930000000  0.6028160000000  0.5086590000000 1.0
C      1  0.5385480000000  0.4955570000000  0.4934720000000 1.0
C      1  0.4524150000000  0.4771460000000  0.3833750000000 1.0
C      1  0.5969930000000  0.5385090000000  0.5657980000000 1.0
C      1  0.4483650000000  0.4820780000000  0.5462360000000 1.0
C      1  0.4037940000000  0.4609790000000  0.4421910000000 1.0
C      1  0.4109150000000  0.5110390000000  0.5564590000000 1.0
C      1  0.4167400000000  0.4695470000000  0.4913450000000 1.0
C      1  0.5336780000000  0.5399250000000  0.6041420000000 1.0
C      1  0.4253320000000  0.3913860000000  0.4872790000000 1.0
C      1  0.4178730000000  0.5197460000000  0.4602070000000 1.0
C      1  0.5550780000000  0.4452930000000  0.4899030000000 1.0
C      1  0.5463030000000  0.4570550000000  0.5985350000000 1.0
C      1  0.5593160000000  0.5936850000000  0.5352120000000 1.0
C      1  0.3941840000000  0.5058800000000  0.4507120000000 1.0
C      1  0.6167650000000  0.4552360000000  0.4805130000000 1.0
C      1  0.5509270000000  0.5712990000000  0.5504000000000 1.0
C      1  0.4068600000000  0.4905920000000  0.5771710000000 1.0
C      1  0.3970360000000  0.4653910000000  0.4701440000000 1.0
C      1  0.5136230000000  0.4592900000000  0.4392600000000 1.0
C      1  0.5773290000000  0.4984500000000  0.4430360000000 1.0
C      1  0.4170840000000  0.5927190000000  0.5361400000000 1.0
C      1  0.4962200000000  0.6124040000000  0.4396150000000 1.0
C      1  0.5141980000000  0.5113400000000  0.4361050000000 1.0
C      1  0.5633630000000  0.5600240000000  0.3976750000000 1.0
C      1  0.4656270000000  0.4526710000000  0.4486580000000 1.0
C      1  0.4006440000000  0.4619330000000  0.5686840000000 1.0
C      1  0.4687130000000  0.5348530000000  0.5073380000000 1.0
C      1  0.5492100000000  0.5448340000000  0.5381350000000 1.0
C      1  0.4964560000000  0.4545690000000  0.3692470000000 1.0
C      1  0.5020920000000  0.5260240000000  0.6438420000000 1.0
C      1  0.4142040000000  0.4968690000000  0.5059920000000 1.0
C      1  0.4236620000000  0.4951410000000  0.5349320000000 1.0
C      1  0.4872750000000  0.3920770000000  0.4478260000000 1.0
C      1  0.4584690000000  0.4271500000000  0.3953160000000 1.0
C      1  0.4950560000000  0.5749980000000  0.5472630000000 1.0
C      1  0.4438040000000  0.5402600000000  0.4917070000000 1.0
C      1  0.5764970000000  0.5228880000000  0.5040880000000 1.0
C      1  0.4072270000000  0.4345730000000  0.4339740000000 1.0
C      1  0.3991950000000  0.4433370000000  0.5904170000000 1.0
C      1  0.4690680000000  0.3662160000000  0.4989820000000 1.0
C      1  0.5136860000000  0.5091890000000  0.4929560000000 1.0
C      1  0.6089360000000  0.4895510000000  0.5601510000000 1.0
C      1  0.4025980000000  0.4476500000000  0.5424630000000 1.0
C      1  0.5651200000000  0.5772380000000  0.4423120000000 1.0
C      1  0.4689140000000  0.5451110000000  0.4168640000000 1.0
C      1  0.5204820000000  0.3791240000000  0.5453950000000 1.0
C      1  0.4365650000000  0.4099630000000  0.5936220000000 1.0
C      1  0.4650620000000  0.5268340000000  0.3941280000000 1.0
C      1  0.5708300000000  0.5052130000000  0.5899290000000 1.0
C      1  0.5093940000000  0.5752690000000  0.5200030000000 1.0
C      1  0.4146860000000  0.4300720000000  0.5221790000000 1.0
C      1  0.4709090000000  0.5734970000000  0.4236610000000 1.0
C      1  0.4809970000000  0.4746480000000  0.3815210000000 1.0
C      1  0.5429240000000  0.4706070000000  0.4799770000000 1.0
C      1  0.4613200000000  0.4034490000000  0.4559860000000 1.0
C      1  0.4577670000000  0.4665480000000  0.5910850000000 1.0
C      1  0.4379500000000  0.5815390000000  0.4661150000000 1.0
C      1  0.4008950000000  0.6141040000000  0.5315000000000 1.0
C      1  0.6269720000000  0.4719040000000  0.5536500000000 1.0
C      1  0.5537340000000  0.5750460000000  0.4684390000000 1.0
C      1  0.5971840000000  0.5767320000000  0.4930730000000 1.0
C      1  0.4228950000000  0.4953870000000  0.6009390000000 1.0
C      1  0.4882200000000  0.5254970000000  0.3776240000000 1.0
C      1  0.4681830000000  0.5297650000000  0.4432130000000 1.0
C      1  0.4735040000000  0.5064770000000  0.5153290000000 1.0
C      1  0.5359970000000  0.4429100000000  0.5350250000000 1.0
C      1  0.5569430000000  0.5038150000000  0.5134970000000 1.0
C      1  0.4988390000000  0.5071050000000  0.6015460000000 1.0
C      1  0.5178930000000  0.4922320000000  0.4109350000000 1.0
C      1  0.5058500000000  0.3846020000000  0.4710670000000 1.0
C      1  0.5329830000000  0.5558750000000  0.4728540000000 1.0
C      1  0.5404930000000  0.5768780000000  0.5755680000000 1.0
C      1  0.4501650000000  0.5541960000000  0.5922730000000 1.0
C      1  0.4966650000000  0.5602910000000  0.5727310000000 1.0
C      1  0.5420250000000  0.4047850000000  0.4451060000000 1.0
C      1  0.4551410000000  0.6027780000000  0.5649290000000 1.0
C      1  0.6247830000000  0.5258030000000  0.4485090000000 1.0
C      1  0.4671030000000  0.4281530000000  0.5310340000000 1.0
C      1  0.4727070000000  0.5029040000000  0.6158960000000 1.0
C      1  0.4787600000000  0.4911730000000  0.4707030000000 1.0
C      1  0.4427290000000  0.4335670000000  0.5182160000000 1.0
C      1  0.4675320000000  0.4295790000000  0.4651130000000 1.0
C      1  0.5606680000000  0.4799400000000  0.5976060000000 1.0
C      1  0.5752110000000  0.4183660000000  0.5508830000000 1.0
C      1  0.5317560000000  0.3991400000000  0.4714550000000 1.0
C      1  0.4860070000000  0.4612950000000  0.4302080000000 1.0
C      1  0.4910170000000  0.4907390000000  0.4982160000000 1.0
C      1  0.5936620000000  0.5761800000000  0.4439000000000 1.0
C      1  0.6072790000000  0.5667870000000  0.4670800000000 1.0
C      1  0.4154710000000  0.4104430000000  0.4421810000000 1.0
C      1  0.4259050000000  0.5192700000000  0.4872300000000 1.0
C      1  0.4393220000000  0.5189300000000  0.4413920000000 1.0
C      1  0.5295160000000  0.4377560000000  0.4037330000000 1.0
C      1  0.4332600000000  0.3980100000000  0.4600870000000 1.0
C      1  0.5210720000000  0.4603790000000  0.4649600000000 1.0
C      1  0.6223220000000  0.5258400000000  0.4217930000000 1.0
C      1  0.4642110000000  0.4335580000000  0.5581890000000 1.0
C      1  0.4771780000000  0.5141420000000  0.6422060000000 1.0
C      1  0.4878110000000  0.5075800000000  0.4485050000000 1.0
C      1  0.6063140000000  0.5563640000000  0.5137950000000 1.0
C      1  0.4674770000000  0.5279770000000  0.5556540000000 1.0
C      1  0.4430690000000  0.3727770000000  0.4992480000000 1.0
C      1  0.4683400000000  0.5021590000000  0.5428670000000 1.0
C      1  0.4499100000000  0.5589510000000  0.6191470000000 1.0
C      1  0.4853290000000  0.4312260000000  0.4869020000000 1.0
C      1  0.6390840000000  0.4586940000000  0.4374400000000 1.0
C      1  0.4501680000000  0.5827670000000  0.4418710000000 1.0
C      1  0.4275080000000  0.5612900000000  0.5756050000000 1.0
C      1  0.4574760000000  0.4744640000000  0.4641270000000 1.0
C      1  0.5107040000000  0.4387710000000  0.4781430000000 1.0
C      1  0.4853140000000  0.4175070000000  0.3997360000000 1.0
C      1  0.5627130000000  0.5469240000000  0.5125700000000 1.0
C      1  0.5307530000000  0.4650130000000  0.4167250000000 1.0
C      1  0.4302530000000  0.5492690000000  0.5331110000000 1.0
C      1  0.5631360000000  0.3963860000000  0.5607820000000 1.0
C      1  0.4779410000000  0.6354700000000  0.4793320000000 1.0
C      1  0.5095680000000  0.6040290000000  0.5146540000000 1.0
C      1  0.5260100000000  0.4962340000000  0.5529510000000 1.0
C      1  0.5339090000000  0.5283270000000  0.4504130000000 1.0
C      1  0.5255100000000  0.4410050000000  0.5874140000000 1.0
C      1  0.5645560000000  0.4387460000000  0.5347620000000 1.0
C      1  0.4998280000000  0.6274410000000  0.4630640000000 1.0
C      1  0.4961230000000  0.5881010000000  0.4248370000000 1.0
C      1  0.5214640000000  0.5601570000000  0.5873930000000 1.0
C      1  0.5928810000000  0.5095840000000  0.5707100000000 1.0
C      1  0.4300770000000  0.5017100000000  0.4194050000000 1.0
C      1  0.5251950000000  0.4127330000000  0.5836740000000 1.0
C      1  0.5268150000000  0.4138470000000  0.4228090000000 1.0
C      1  0.4574410000000  0.6208730000000  0.5853600000000 1.0
C      1  0.5131460000000  0.5183500000000  0.3799660000000 1.0
C      1  0.4063170000000  0.4873730000000  0.4293340000000 1.0
C      1  0.6593650000000  0.4546070000000  0.4215920000000 1.0
C      1  0.4560670000000  0.4604010000000  0.5639030000000 1.0
C      1  0.5955760000000  0.4792150000000  0.4446780000000 1.0
C      1  0.5018000000000  0.4713110000000  0.5187040000000 1.0
C      1  0.4306340000000  0.5878540000000  0.5615880000000 1.0
C      1  0.4716720000000  0.6314690000000  0.5053890000000 1.0
C      1  0.5062720000000  0.4335630000000  0.3856540000000 1.0
C      1  0.5193310000000  0.4672250000000  0.5435520000000 1.0
C      1  0.6034360000000  0.5307610000000  0.4970320000000 1.0
C      1  0.5086920000000  0.4555550000000  0.5695550000000 1.0
C      1  0.5117250000000  0.3725560000000  0.5206170000000 1.0
C      1  0.5158460000000  0.5240480000000  0.6188130000000 1.0
C      1  0.4732730000000  0.5444980000000  0.5778320000000 1.0
C      1  0.6137810000000  0.5385710000000  0.4707530000000 1.0
C      1  0.6018250000000  0.4484310000000  0.5014590000000 1.0
C      1  0.4896520000000  0.4809000000000  0.4079500000000 1.0
C      1  0.4228870000000  0.5722950000000  0.5170480000000 1.0
C      1  0.5143290000000  0.5589910000000  0.4960920000000 1.0
C      1  0.5496340000000  0.5732020000000  0.4185070000000 1.0
C      1  0.4790370000000  0.5482180000000  0.4645100000000 1.0
C      1  0.3809270000000  0.4909070000000  0.4719490000000 1.0
C      1  0.3837710000000  0.5013210000000  0.4993630000000 1.0
C      1  0.4767280000000  0.5988070000000  0.5466960000000 1.0
END
