TITL C-627109-622-309 0.0420764351791961 125000 -426.011703799378 0 0 71 (C1) n - 1
REM
REM in /home/nfs/bkarasulu/CARBON/AIRSS/Generating-Clusters/LCBOP/Only-C1/SD-CG/FIRE-CG
REM
REM
REM
REM
REM
REM ./C.cell (11c1c37f851c82e70ff6c80c92926a4b)
REM AIRSS Version 0.9.1 bugfix July 2018 build 013d7b7c2542+ Fri, 06 Jul 2018 19:26:36 +0100
REM compiler GCC version 9.2.1 20190827 (Red Hat 9.2.1-1)
REM options -cpp -mtune=generic -march=x86-64 -g -O0 -fpre-include=/usr/include/finclude/math-vector-fortran.h
REM seed 2057406090 1142216000 -573954878 -2076775263 1662597224 1725629343 -445009335 308505491 -1900408585 -1734346855 1445171370 -917982267 1888304014 -2010217065 -800312541 -49258453 622486982 -817524173 683775006 1714681036 421748337 277582126 689032408 -108696084 1474155982 -754799411 1936021386 -628909752 2001787857 -510963733 917132143 -1853019022 1305896534
REM
CELL 1.54180   50.00000   50.00000   50.00000   90.00000   90.00000   90.00000
LATT -1
SFAC C  
C      1  0.5789750000000  0.4560750000000  0.5496240000000 1.0
C      1  0.4066650000000  0.4840430000000  0.4718940000000 1.0
C      1  0.4196320000000  0.4779520000000  0.5172540000000 1.0
C      1  0.5251870000000  0.4536180000000  0.5255960000000 1.0
C      1  0.4747640000000  0.4571410000000  0.4788350000000 1.0
C      1  0.5381900000000  0.4887230000000  0.4915690000000 1.0
C      1  0.5824860000000  0.4796460000000  0.4702200000000 1.0
C      1  0.5434810000000  0.5722480000000  0.5476230000000 1.0
C      1  0.5451370000000  0.4730160000000  0.5177330000000 1.0
C      1  0.4337030000000  0.5042220000000  0.5242780000000 1.0
C      1  0.4784410000000  0.4866460000000  0.4105520000000 1.0
C      1  0.5392920000000  0.5236970000000  0.5657100000000 1.0
C      1  0.4468870000000  0.4793400000000  0.5646810000000 1.0
C      1  0.5914560000000  0.4345730000000  0.5381370000000 1.0
C      1  0.4761400000000  0.4246740000000  0.5353890000000 1.0
C      1  0.4453800000000  0.6005770000000  0.4866120000000 1.0
C      1  0.5514290000000  0.4229700000000  0.4692950000000 1.0
C      1  0.5186500000000  0.5098980000000  0.5005380000000 1.0
C      1  0.4604610000000  0.4876770000000  0.3899610000000 1.0
C      1  0.5242500000000  0.5206740000000  0.3653950000000 1.0
C      1  0.5166950000000  0.4799390000000  0.5658050000000 1.0
C      1  0.4909450000000  0.6148050000000  0.5112060000000 1.0
C      1  0.5063660000000  0.4896100000000  0.4057230000000 1.0
C      1  0.5737010000000  0.5241380000000  0.4893130000000 1.0
C      1  0.5397810000000  0.5608730000000  0.4793350000000 1.0
C      1  0.5831570000000  0.5012470000000  0.5315410000000 1.0
C      1  0.5127150000000  0.6079890000000  0.5248170000000 1.0
C      1  0.4424120000000  0.5725690000000  0.4897130000000 1.0
C      1  0.4697260000000  0.4822400000000  0.4367950000000 1.0
C      1  0.4652920000000  0.4801370000000  0.4643130000000 1.0
C      1  0.5402330000000  0.4358930000000  0.4464290000000 1.0
C      1  0.5242380000000  0.4764180000000  0.4227040000000 1.0
C      1  0.5785330000000  0.4296370000000  0.4735470000000 1.0
C      1  0.4641210000000  0.4591070000000  0.5662700000000 1.0
C      1  0.4230520000000  0.5074380000000  0.4711010000000 1.0
C      1  0.4962790000000  0.5197020000000  0.5853660000000 1.0
C      1  0.5162750000000  0.4381110000000  0.5032360000000 1.0
C      1  0.4575200000000  0.5097450000000  0.5044300000000 1.0
C      1  0.5469850000000  0.5476520000000  0.5570480000000 1.0
C      1  0.5302190000000  0.4624180000000  0.4458870000000 1.0
C      1  0.5634260000000  0.5482780000000  0.4796830000000 1.0
C      1  0.4285670000000  0.4425570000000  0.4862860000000 1.0
C      1  0.4679990000000  0.6127060000000  0.4979900000000 1.0
C      1  0.5098110000000  0.4581620000000  0.5491560000000 1.0
C      1  0.4843890000000  0.4454530000000  0.5524520000000 1.0
C      1  0.4724390000000  0.5309880000000  0.5814410000000 1.0
C      1  0.5022940000000  0.5324710000000  0.4987650000000 1.0
C      1  0.5336820000000  0.4189870000000  0.4912530000000 1.0
C      1  0.4562130000000  0.4382840000000  0.4899960000000 1.0
C      1  0.5641080000000  0.4989370000000  0.4796100000000 1.0
C      1  0.5863620000000  0.5217150000000  0.5143940000000 1.0
C      1  0.5689710000000  0.4769770000000  0.5331310000000 1.0
C      1  0.4414920000000  0.5043390000000  0.5528360000000 1.0
C      1  0.4210770000000  0.5571540000000  0.4792760000000 1.0
C      1  0.5310810000000  0.5932770000000  0.5371440000000 1.0
C      1  0.4507920000000  0.5006020000000  0.4775890000000 1.0
C      1  0.4133730000000  0.5250030000000  0.5143150000000 1.0
C      1  0.4504010000000  0.5269230000000  0.5667980000000 1.0
C      1  0.5762030000000  0.4577970000000  0.5768210000000 1.0
C      1  0.4746850000000  0.5328080000000  0.5053930000000 1.0
C      1  0.5148920000000  0.5550980000000  0.4874910000000 1.0
C      1  0.4132090000000  0.4652960000000  0.4924770000000 1.0
C      1  0.5899530000000  0.4539490000000  0.4715330000000 1.0
C      1  0.5023900000000  0.4548280000000  0.4842830000000 1.0
C      1  0.5157200000000  0.5056510000000  0.3849080000000 1.0
C      1  0.4647450000000  0.4220460000000  0.5113020000000 1.0
C      1  0.4616780000000  0.5578190000000  0.5041030000000 1.0
C      1  0.4139290000000  0.5307180000000  0.4859100000000 1.0
C      1  0.5220380000000  0.4717920000000  0.4715540000000 1.0
C      1  0.4269020000000  0.6154350000000  0.4730200000000 1.0
C      1  0.5183250000000  0.5068760000000  0.5736140000000 1.0
END
