TITL C-627109-622-1529 0.044204245464368 125000 -822.793131196034 0 0 134 (C1) n - 1
REM
REM in /home/nfs/bkarasulu/CARBON/AIRSS/Generating-Clusters/LCBOP/Only-C1/SD-CG/FIRE-CG
REM
REM
REM
REM
REM
REM ./C.cell (11c1c37f851c82e70ff6c80c92926a4b)
REM AIRSS Version 0.9.1 bugfix July 2018 build 013d7b7c2542+ Fri, 06 Jul 2018 19:26:36 +0100
REM compiler GCC version 9.2.1 20190827 (Red Hat 9.2.1-1)
REM options -cpp -mtune=generic -march=x86-64 -g -O0 -fpre-include=/usr/include/finclude/math-vector-fortran.h
REM seed -1455971598 -1985756670 -1073103102 386890015 -43423867 -977132656 -1081598768 -860286793 1420135152 1255824703 136336521 -76909711 -1375133517 714946219 -1233504672 -1827875163 488712937 1816363216 1994867874 -1218287408 738645442 -640484780 -471569408 723475795 1822260249 -2013414612 1336186349 -1018488573 707637702 1035434573 -1698626656 618119558 -1919036351
REM
CELL 1.54180   50.00000   50.00000   50.00000   90.00000   90.00000   90.00000
LATT -1
SFAC C  
C      1  0.5613320000000  0.5555020000000  0.5746790000000 1.0
C      1  0.4980600000000  0.5935160000000  0.4813680000000 1.0
C      1  0.3822620000000  0.4948380000000  0.5826880000000 1.0
C      1  0.5550530000000  0.4416450000000  0.4932500000000 1.0
C      1  0.5151080000000  0.5706310000000  0.5722730000000 1.0
C      1  0.5212540000000  0.4938850000000  0.5036820000000 1.0
C      1  0.5838680000000  0.4729500000000  0.5812390000000 1.0
C      1  0.4792770000000  0.4726190000000  0.5172920000000 1.0
C      1  0.5849210000000  0.5154170000000  0.5548110000000 1.0
C      1  0.5752900000000  0.4758910000000  0.5172150000000 1.0
C      1  0.4215670000000  0.5165670000000  0.5638360000000 1.0
C      1  0.5240960000000  0.5156780000000  0.5513170000000 1.0
C      1  0.4334390000000  0.3988600000000  0.4720240000000 1.0
C      1  0.4092060000000  0.4925540000000  0.4655220000000 1.0
C      1  0.4825790000000  0.3957430000000  0.4683380000000 1.0
C      1  0.4628070000000  0.4614130000000  0.4331120000000 1.0
C      1  0.4273580000000  0.5378180000000  0.5024860000000 1.0
C      1  0.5513810000000  0.4328890000000  0.5401520000000 1.0
C      1  0.4578190000000  0.3964300000000  0.4865180000000 1.0
C      1  0.5503640000000  0.4132140000000  0.4962180000000 1.0
C      1  0.4754650000000  0.4267450000000  0.5764160000000 1.0
C      1  0.4563480000000  0.4317400000000  0.5561730000000 1.0
C      1  0.4894450000000  0.4099810000000  0.4433000000000 1.0
C      1  0.4776980000000  0.5747030000000  0.4787230000000 1.0
C      1  0.4982060000000  0.4569380000000  0.6101030000000 1.0
C      1  0.5444380000000  0.5046900000000  0.4880370000000 1.0
C      1  0.4284200000000  0.5171510000000  0.3938650000000 1.0
C      1  0.5081540000000  0.3937300000000  0.4821190000000 1.0
C      1  0.4397940000000  0.5835190000000  0.5152790000000 1.0
C      1  0.4046410000000  0.5281290000000  0.5158810000000 1.0
C      1  0.4645920000000  0.4669680000000  0.4941080000000 1.0
C      1  0.4165650000000  0.4395120000000  0.5303120000000 1.0
C      1  0.5095900000000  0.4562590000000  0.4434410000000 1.0
C      1  0.4627680000000  0.5671130000000  0.5799900000000 1.0
C      1  0.4839040000000  0.5450350000000  0.4701640000000 1.0
C      1  0.4373630000000  0.4684160000000  0.4979810000000 1.0
C      1  0.4799350000000  0.4984760000000  0.5257710000000 1.0
C      1  0.4137420000000  0.4439560000000  0.4629440000000 1.0
C      1  0.6755230000000  0.5292530000000  0.4357310000000 1.0
C      1  0.5282840000000  0.5791010000000  0.5174670000000 1.0
C      1  0.4791560000000  0.4482850000000  0.4789340000000 1.0
C      1  0.4534080000000  0.5313420000000  0.5109610000000 1.0
C      1  0.5008210000000  0.5699500000000  0.4269930000000 1.0
C      1  0.5038120000000  0.4835410000000  0.6129770000000 1.0
C      1  0.4578970000000  0.5145000000000  0.5334200000000 1.0
C      1  0.5167290000000  0.3996160000000  0.5285300000000 1.0
C      1  0.4537380000000  0.5812110000000  0.4924710000000 1.0
C      1  0.4212010000000  0.4682060000000  0.4746120000000 1.0
C      1  0.4775140000000  0.6233880000000  0.5396590000000 1.0
C      1  0.5786470000000  0.5333440000000  0.5752380000000 1.0
C      1  0.4655400000000  0.4768150000000  0.4114090000000 1.0
C      1  0.4978550000000  0.6191210000000  0.5227350000000 1.0
C      1  0.4967500000000  0.4360250000000  0.4991590000000 1.0
C      1  0.4171900000000  0.4176100000000  0.4623710000000 1.0
C      1  0.4837690000000  0.4952080000000  0.4051800000000 1.0
C      1  0.5039750000000  0.4099900000000  0.5050490000000 1.0
C      1  0.5168410000000  0.4870770000000  0.5498600000000 1.0
C      1  0.5048880000000  0.5117010000000  0.4136140000000 1.0
C      1  0.4399210000000  0.5673690000000  0.5631840000000 1.0
C      1  0.4411590000000  0.5880320000000  0.5430500000000 1.0
C      1  0.5703210000000  0.5763060000000  0.5570500000000 1.0
C      1  0.5734330000000  0.5852710000000  0.5315360000000 1.0
C      1  0.4709610000000  0.5369330000000  0.3705590000000 1.0
C      1  0.5966950000000  0.4741350000000  0.5356800000000 1.0
C      1  0.5439050000000  0.5775130000000  0.4575200000000 1.0
C      1  0.4371170000000  0.5328110000000  0.4537150000000 1.0
C      1  0.4928460000000  0.4867080000000  0.5684680000000 1.0
C      1  0.5370470000000  0.4130640000000  0.4487140000000 1.0
C      1  0.5977460000000  0.5177790000000  0.4550540000000 1.0
C      1  0.4634630000000  0.4825670000000  0.5644380000000 1.0
C      1  0.5256400000000  0.4716550000000  0.5245180000000 1.0
C      1  0.4217840000000  0.5453160000000  0.5653860000000 1.0
C      1  0.5356430000000  0.4005980000000  0.4744080000000 1.0
C      1  0.5564960000000  0.5859360000000  0.5086460000000 1.0
C      1  0.6246400000000  0.5216960000000  0.4484620000000 1.0
C      1  0.4636630000000  0.5421330000000  0.4469030000000 1.0
C      1  0.5139460000000  0.5370180000000  0.4599650000000 1.0
C      1  0.3920580000000  0.4551760000000  0.5345520000000 1.0
C      1  0.5164010000000  0.5285980000000  0.3938810000000 1.0
C      1  0.5045840000000  0.5026180000000  0.5915950000000 1.0
C      1  0.4541500000000  0.3982680000000  0.5171510000000 1.0
C      1  0.5217980000000  0.5812500000000  0.5470720000000 1.0
C      1  0.5161280000000  0.5314920000000  0.5287320000000 1.0
C      1  0.5443660000000  0.5340830000000  0.3936240000000 1.0
C      1  0.5483400000000  0.4365280000000  0.5682680000000 1.0
C      1  0.4985190000000  0.4359550000000  0.5906150000000 1.0
C      1  0.4218440000000  0.5096760000000  0.4452670000000 1.0
C      1  0.5097730000000  0.5998500000000  0.5059010000000 1.0
C      1  0.5015640000000  0.4552210000000  0.5194180000000 1.0
C      1  0.4250170000000  0.5457440000000  0.4756870000000 1.0
C      1  0.5780780000000  0.5223050000000  0.4353340000000 1.0
C      1  0.5912110000000  0.5094690000000  0.4811880000000 1.0
C      1  0.5716830000000  0.5034960000000  0.5033820000000 1.0
C      1  0.3880880000000  0.4981910000000  0.4843430000000 1.0
C      1  0.5580180000000  0.4587530000000  0.4711660000000 1.0
C      1  0.5336970000000  0.5340190000000  0.4840130000000 1.0
C      1  0.4784280000000  0.5307450000000  0.4953440000000 1.0
C      1  0.4192080000000  0.5077020000000  0.4172460000000 1.0
C      1  0.5671930000000  0.4519510000000  0.5823780000000 1.0
C      1  0.5452770000000  0.4834640000000  0.4655650000000 1.0
C      1  0.4721450000000  0.3817550000000  0.5329350000000 1.0
C      1  0.3985120000000  0.4989580000000  0.5608350000000 1.0
C      1  0.4980130000000  0.3831780000000  0.5416530000000 1.0
C      1  0.4465070000000  0.5286620000000  0.3778010000000 1.0
C      1  0.5520840000000  0.4569000000000  0.5203680000000 1.0
C      1  0.4755160000000  0.5588980000000  0.4263150000000 1.0
C      1  0.5222700000000  0.5629570000000  0.4450580000000 1.0
C      1  0.4821710000000  0.4558090000000  0.4523850000000 1.0
C      1  0.3912200000000  0.5032440000000  0.5123320000000 1.0
C      1  0.7005510000000  0.5329740000000  0.4294550000000 1.0
C      1  0.4551430000000  0.6120120000000  0.5493250000000 1.0
C      1  0.5227940000000  0.4827880000000  0.4479840000000 1.0
C      1  0.5655810000000  0.5593990000000  0.3508490000000 1.0
C      1  0.4889840000000  0.5715590000000  0.5822840000000 1.0
C      1  0.5139820000000  0.4269940000000  0.4392850000000 1.0
C      1  0.5580100000000  0.5849360000000  0.4798540000000 1.0
C      1  0.4472940000000  0.5061410000000  0.5581390000000 1.0
C      1  0.5133760000000  0.5097470000000  0.4407280000000 1.0
C      1  0.5241230000000  0.4293160000000  0.5806690000000 1.0
C      1  0.5554890000000  0.5470800000000  0.3714790000000 1.0
C      1  0.4524380000000  0.4601220000000  0.5501450000000 1.0
C      1  0.4348070000000  0.4622320000000  0.5259320000000 1.0
C      1  0.5333340000000  0.5505820000000  0.5815680000000 1.0
C      1  0.5276870000000  0.5493410000000  0.5092690000000 1.0
C      1  0.5438270000000  0.4089190000000  0.5252440000000 1.0
C      1  0.4991520000000  0.5143020000000  0.5105960000000 1.0
C      1  0.5223580000000  0.5239320000000  0.5794760000000 1.0
C      1  0.5932200000000  0.4885780000000  0.5598320000000 1.0
C      1  0.3915510000000  0.4853070000000  0.5355650000000 1.0
C      1  0.6500760000000  0.5254690000000  0.4421120000000 1.0
C      1  0.5768890000000  0.5213280000000  0.5276520000000 1.0
C      1  0.4974520000000  0.5382110000000  0.3750950000000 1.0
C      1  0.5613810000000  0.5268980000000  0.4150000000000 1.0
C      1  0.4385670000000  0.4176750000000  0.5348050000000 1.0
END
