TITL C-627110-360-1563 -2.67503191822125e-07 125000 -202.240942454371 0 0 34 (C1) n - 1
REM
REM in /home/nfs/bkarasulu/CARBON/AIRSS/Generating-Clusters/LCBOP/Only-C1/SD-CG/FIRE-CG
REM
REM
REM
REM
REM
REM ./C.cell (11c1c37f851c82e70ff6c80c92926a4b)
REM AIRSS Version 0.9.1 bugfix July 2018 build 013d7b7c2542+ Fri, 06 Jul 2018 19:26:36 +0100
REM compiler GCC version 9.2.1 20190827 (Red Hat 9.2.1-1)
REM options -cpp -mtune=generic -march=x86-64 -g -O0 -fpre-include=/usr/include/finclude/math-vector-fortran.h
REM seed -1998005679 -2111547989 -562543588 1163855767 749234038 -1479939854 1468481017 -786108240 -1727009251 -54658682 -687681856 1040447280 -1079771848 1069589520 -1263917436 1710016363 -1320026182 -1288738626 359698086 1651411797 -1959671299 -884284084 1722983213 1197421619 -631546485 -947034024 1781892581 -161064851 347488523 1182023143 -1636807520 1038960140 -2079940999
REM
CELL 1.54180   50.00000   50.00000   50.00000   90.00000   90.00000   90.00000
LATT -1
SFAC C  
C      1  0.5745860000000  0.5159430000000  0.4908570000000 1.0
C      1  0.4989660000000  0.4443190000000  0.5277690000000 1.0
C      1  0.4457120000000  0.5112330000000  0.4800910000000 1.0
C      1  0.5674270000000  0.5052650000000  0.5142970000000 1.0
C      1  0.5025820000000  0.5302450000000  0.4343550000000 1.0
C      1  0.5214950000000  0.4762840000000  0.4688790000000 1.0
C      1  0.4505830000000  0.4789290000000  0.5862880000000 1.0
C      1  0.5290810000000  0.5337790000000  0.4348750000000 1.0
C      1  0.4668430000000  0.5185830000000  0.5279570000000 1.0
C      1  0.5249920000000  0.4885490000000  0.5426800000000 1.0
C      1  0.5077220000000  0.5086750000000  0.5533780000000 1.0
C      1  0.4225390000000  0.4946270000000  0.4804610000000 1.0
C      1  0.5198420000000  0.5499440000000  0.5012140000000 1.0
C      1  0.5243210000000  0.5564300000000  0.5499100000000 1.0
C      1  0.4974940000000  0.4675510000000  0.4572370000000 1.0
C      1  0.5148820000000  0.4626910000000  0.5385950000000 1.0
C      1  0.5182780000000  0.5332800000000  0.5620650000000 1.0
C      1  0.4645920000000  0.5032030000000  0.4599070000000 1.0
C      1  0.4520570000000  0.4572040000000  0.4735210000000 1.0
C      1  0.5166770000000  0.5260410000000  0.4899200000000 1.0
C      1  0.5502270000000  0.4956110000000  0.5323140000000 1.0
C      1  0.5241480000000  0.5632910000000  0.5239710000000 1.0
C      1  0.4642340000000  0.4930290000000  0.5691430000000 1.0
C      1  0.4259070000000  0.4678370000000  0.4768050000000 1.0
C      1  0.4794810000000  0.5205610000000  0.4436940000000 1.0
C      1  0.5532230000000  0.5318890000000  0.4462250000000 1.0
C      1  0.4706230000000  0.4748570000000  0.4602520000000 1.0
C      1  0.5200950000000  0.5006270000000  0.4828100000000 1.0
C      1  0.5696040000000  0.5254710000000  0.4663700000000 1.0
C      1  0.4794120000000  0.5067420000000  0.5501300000000 1.0
C      1  0.4801340000000  0.4351340000000  0.5113350000000 1.0
C      1  0.4626510000000  0.4384510000000  0.4914570000000 1.0
C      1  0.5445060000000  0.4617980000000  0.4669710000000 1.0
C      1  0.4550830000000  0.5219300000000  0.5042670000000 1.0
END
