TITL C-627112-676-1448 -5.84000227291935e-07 125000 -310.989628213384 0 0 52 (C1) n - 1
REM
REM in /home/nfs/bkarasulu/CARBON/AIRSS/Generating-Clusters/LCBOP/Only-C1/SD-CG/FIRE-CG
REM
REM
REM
REM
REM
REM ./C.cell (11c1c37f851c82e70ff6c80c92926a4b)
REM AIRSS Version 0.9.1 bugfix July 2018 build 013d7b7c2542+ Fri, 06 Jul 2018 19:26:36 +0100
REM compiler GCC version 9.2.1 20190827 (Red Hat 9.2.1-1)
REM options -cpp -mtune=generic -march=x86-64 -g -O0 -fpre-include=/usr/include/finclude/math-vector-fortran.h
REM seed 169728490 1156731845 -1799134475 792174234 -383086104 1470113922 -103130582 -1692741402 86185355 -412402504 1554429949 -644826356 499220687 1225167076 -553639636 1877288799 59375940 -570887225 1419717243 -850075316 621414269 817001426 456140335 -1485025995 -1868538306 -1501069473 -1233020873 518583519 1242700959 -541770782 1723059978 946001341 -46926148
REM
CELL 1.54180   50.00000   50.00000   50.00000   90.00000   90.00000   90.00000
LATT -1
SFAC C  
C      1  0.5414200000000  0.5368990000000  0.4401430000000 1.0
C      1  0.5310080000000  0.4458040000000  0.4411530000000 1.0
C      1  0.4552710000000  0.4856190000000  0.5405640000000 1.0
C      1  0.4476030000000  0.4215100000000  0.4634290000000 1.0
C      1  0.5122250000000  0.4302390000000  0.4294970000000 1.0
C      1  0.4927510000000  0.5519090000000  0.4563270000000 1.0
C      1  0.4631830000000  0.5507900000000  0.5759500000000 1.0
C      1  0.4631380000000  0.5113700000000  0.4387930000000 1.0
C      1  0.5289730000000  0.4643310000000  0.4624740000000 1.0
C      1  0.4836620000000  0.4212410000000  0.4936690000000 1.0
C      1  0.5627680000000  0.5243250000000  0.4926500000000 1.0
C      1  0.5598670000000  0.4752440000000  0.5362610000000 1.0
C      1  0.4554760000000  0.4257050000000  0.4901840000000 1.0
C      1  0.4900050000000  0.4545270000000  0.5256430000000 1.0
C      1  0.5222470000000  0.4892170000000  0.5813410000000 1.0
C      1  0.4616250000000  0.4614200000000  0.5269050000000 1.0
C      1  0.5155480000000  0.5673440000000  0.5015590000000 1.0
C      1  0.4441500000000  0.5001310000000  0.4582750000000 1.0
C      1  0.5442720000000  0.5029960000000  0.4897610000000 1.0
C      1  0.4714270000000  0.5379080000000  0.4437120000000 1.0
C      1  0.4679500000000  0.5386320000000  0.5511690000000 1.0
C      1  0.4715080000000  0.5525590000000  0.5030760000000 1.0
C      1  0.4985100000000  0.4448280000000  0.4997390000000 1.0
C      1  0.4623720000000  0.4197610000000  0.4408560000000 1.0
C      1  0.4982240000000  0.5025570000000  0.5076920000000 1.0
C      1  0.4866480000000  0.4219980000000  0.4295560000000 1.0
C      1  0.5611680000000  0.5504600000000  0.4818830000000 1.0
C      1  0.5042570000000  0.4611860000000  0.4766140000000 1.0
C      1  0.5424780000000  0.5679430000000  0.4937930000000 1.0
C      1  0.5391570000000  0.4933400000000  0.5362220000000 1.0
C      1  0.5117870000000  0.4647470000000  0.5722770000000 1.0
C      1  0.5037210000000  0.4527370000000  0.5498720000000 1.0
C      1  0.4615820000000  0.4867950000000  0.4776670000000 1.0
C      1  0.4455610000000  0.4442110000000  0.5100500000000 1.0
C      1  0.5406510000000  0.4904270000000  0.4641490000000 1.0
C      1  0.4926980000000  0.5603230000000  0.4840420000000 1.0
C      1  0.5228790000000  0.4960630000000  0.6077090000000 1.0
C      1  0.5079510000000  0.5633320000000  0.5294110000000 1.0
C      1  0.5254450000000  0.5563240000000  0.5499440000000 1.0
C      1  0.4804700000000  0.5544280000000  0.5306110000000 1.0
C      1  0.4829720000000  0.4895280000000  0.4377750000000 1.0
C      1  0.5261410000000  0.4993480000000  0.5115190000000 1.0
C      1  0.4829540000000  0.4740280000000  0.4628220000000 1.0
C      1  0.5321860000000  0.5061330000000  0.5607220000000 1.0
C      1  0.5332630000000  0.5339950000000  0.5623100000000 1.0
C      1  0.5624590000000  0.5506090000000  0.4535180000000 1.0
C      1  0.4578260000000  0.5288730000000  0.4982970000000 1.0
C      1  0.4600410000000  0.5112300000000  0.5480060000000 1.0
C      1  0.4603080000000  0.5619960000000  0.5993010000000 1.0
C      1  0.5167490000000  0.5503320000000  0.4415590000000 1.0
C      1  0.4715300000000  0.5042810000000  0.4974440000000 1.0
C      1  0.5419340000000  0.5084650000000  0.4421050000000 1.0
END
