TITL C-627109-622-1650 0.232010052348082 125000 -409.427015929491 0 0 68 (C1) n - 1
REM
REM in /home/nfs/bkarasulu/CARBON/AIRSS/Generating-Clusters/LCBOP/Only-C1/SD-CG/FIRE-CG
REM
REM
REM
REM
REM
REM ./C.cell (11c1c37f851c82e70ff6c80c92926a4b)
REM AIRSS Version 0.9.1 bugfix July 2018 build 013d7b7c2542+ Fri, 06 Jul 2018 19:26:36 +0100
REM compiler GCC version 9.2.1 20190827 (Red Hat 9.2.1-1)
REM options -cpp -mtune=generic -march=x86-64 -g -O0 -fpre-include=/usr/include/finclude/math-vector-fortran.h
REM seed -1487037462 1554305577 -1978523535 1419358030 1282713212 -360341402 -1101586687 -2035553109 720092832 -29076925 1537212196 1140160150 -296760889 1213511068 915631132 1305284746 1014458152 44298141 297152107 1562469917 -1923051868 1980832380 1149482703 -1855588448 -1647319202 -441732013 -1846774930 -1636001016 -130431890 -1216688151 -389334004 1777871879 -811552541
REM
CELL 1.54180   50.00000   50.00000   50.00000   90.00000   90.00000   90.00000
LATT -1
SFAC C  
C      1  0.5077510000000  0.4223600000000  0.5330180000000 1.0
C      1  0.5076750000000  0.5437120000000  0.5526260000000 1.0
C      1  0.5833460000000  0.4891420000000  0.5713930000000 1.0
C      1  0.4503560000000  0.5355520000000  0.4869740000000 1.0
C      1  0.4681950000000  0.5409360000000  0.3513810000000 1.0
C      1  0.4457260000000  0.5320210000000  0.4575630000000 1.0
C      1  0.4671400000000  0.4383050000000  0.4769210000000 1.0
C      1  0.4916800000000  0.5855220000000  0.6192350000000 1.0
C      1  0.5340990000000  0.5113610000000  0.5293860000000 1.0
C      1  0.4696560000000  0.5567330000000  0.4192510000000 1.0
C      1  0.4748870000000  0.5913010000000  0.3856820000000 1.0
C      1  0.5779330000000  0.5471330000000  0.5222410000000 1.0
C      1  0.5223710000000  0.5025940000000  0.4780660000000 1.0
C      1  0.4380640000000  0.4644810000000  0.5756320000000 1.0
C      1  0.4218800000000  0.5082100000000  0.5529020000000 1.0
C      1  0.5461200000000  0.4088900000000  0.5930160000000 1.0
C      1  0.5602350000000  0.4807100000000  0.4098170000000 1.0
C      1  0.4969410000000  0.5721900000000  0.5974590000000 1.0
C      1  0.5248720000000  0.5129060000000  0.3879820000000 1.0
C      1  0.5680810000000  0.4594030000000  0.5046380000000 1.0
C      1  0.4830160000000  0.5445440000000  0.3740900000000 1.0
C      1  0.4876040000000  0.5327490000000  0.5353650000000 1.0
C      1  0.5862080000000  0.5293750000000  0.5039350000000 1.0
C      1  0.5429420000000  0.4968170000000  0.3988110000000 1.0
C      1  0.4905420000000  0.5360890000000  0.4610990000000 1.0
C      1  0.4581610000000  0.4468580000000  0.5767130000000 1.0
C      1  0.4390450000000  0.5211560000000  0.5344610000000 1.0
C      1  0.5221740000000  0.4821690000000  0.5661700000000 1.0
C      1  0.4656420000000  0.4660020000000  0.5176280000000 1.0
C      1  0.4315810000000  0.5280510000000  0.5074940000000 1.0
C      1  0.5820990000000  0.5063120000000  0.4910040000000 1.0
C      1  0.5972470000000  0.4987730000000  0.5912190000000 1.0
C      1  0.5053910000000  0.5285690000000  0.3792130000000 1.0
C      1  0.5088510000000  0.4823030000000  0.5885930000000 1.0
C      1  0.4687630000000  0.4413660000000  0.5047740000000 1.0
C      1  0.4063090000000  0.5189800000000  0.4983600000000 1.0
C      1  0.4239790000000  0.4859000000000  0.5678510000000 1.0
C      1  0.5022760000000  0.5585920000000  0.5753570000000 1.0
C      1  0.5775320000000  0.4628830000000  0.5306450000000 1.0
C      1  0.5034790000000  0.5105240000000  0.4577510000000 1.0
C      1  0.5676540000000  0.4804980000000  0.5500800000000 1.0
C      1  0.4664390000000  0.5143600000000  0.5387830000000 1.0
C      1  0.4124120000000  0.4971850000000  0.4552710000000 1.0
C      1  0.4808460000000  0.4334130000000  0.5723030000000 1.0
C      1  0.4794700000000  0.5388920000000  0.4879280000000 1.0
C      1  0.5670440000000  0.4830840000000  0.4874280000000 1.0
C      1  0.5409700000000  0.4816190000000  0.4744900000000 1.0
C      1  0.4602490000000  0.4899400000000  0.4400960000000 1.0
C      1  0.4871030000000  0.4920070000000  0.4435910000000 1.0
C      1  0.5313290000000  0.4273270000000  0.5182700000000 1.0
C      1  0.5340980000000  0.5370100000000  0.5435520000000 1.0
C      1  0.4742050000000  0.6163210000000  0.3784180000000 1.0
C      1  0.5452960000000  0.4421330000000  0.4989060000000 1.0
C      1  0.5256470000000  0.4148870000000  0.5780500000000 1.0
C      1  0.5575600000000  0.5518250000000  0.5392570000000 1.0
C      1  0.5130080000000  0.4421050000000  0.4594050000000 1.0
C      1  0.4756730000000  0.5643960000000  0.3930870000000 1.0
C      1  0.5408490000000  0.4897510000000  0.5466880000000 1.0
C      1  0.5322640000000  0.4538830000000  0.4755510000000 1.0
C      1  0.4836300000000  0.4219630000000  0.5185740000000 1.0
C      1  0.4686570000000  0.5435520000000  0.4433920000000 1.0
C      1  0.4715650000000  0.4871640000000  0.5327110000000 1.0
C      1  0.5049830000000  0.4234280000000  0.5613940000000 1.0
C      1  0.3984060000000  0.5042720000000  0.4772210000000 1.0
C      1  0.4381620000000  0.5058240000000  0.4481840000000 1.0
C      1  0.5192390000000  0.5137370000000  0.5045590000000 1.0
C      1  0.4868230000000  0.4366700000000  0.4587300000000 1.0
C      1  0.4965680000000  0.5312800000000  0.5083620000000 1.0
END
