TITL C-627110-360-1013 -1.3410338255786 125000 -1001.8685900458 0 0 163 (C1) n - 1
REM
REM in /home/nfs/bkarasulu/CARBON/AIRSS/Generating-Clusters/LCBOP/Only-C1/SD-CG/FIRE-CG
REM
REM
REM
REM
REM
REM ./C.cell (11c1c37f851c82e70ff6c80c92926a4b)
REM AIRSS Version 0.9.1 bugfix July 2018 build 013d7b7c2542+ Fri, 06 Jul 2018 19:26:36 +0100
REM compiler GCC version 9.2.1 20190827 (Red Hat 9.2.1-1)
REM options -cpp -mtune=generic -march=x86-64 -g -O0 -fpre-include=/usr/include/finclude/math-vector-fortran.h
REM seed -837602163 482063778 -977798331 1001075138 945865902 -1762421381 1720759707 -1729017736 -1871762456 -288616580 433931776 -304210827 1400750937 -324994408 -351021749 194451954 166836952 406780523 1227935765 -1875758255 452134610 -1738188503 -1421337722 756374159 1844560210 1502705435 -780347923 1081841036 773304257 1975222496 286117640 -228002603 -833616170
REM
CELL 1.54180   50.00000   50.00000   50.00000   90.00000   90.00000   90.00000
LATT -1
SFAC C  
C      1  0.4374610000000  0.5834930000000  0.5095850000000 1.0
C      1  0.4931160000000  0.5117880000000  0.4682850000000 1.0
C      1  0.5179530000000  0.4069690000000  0.5694020000000 1.0
C      1  0.5001690000000  0.4963010000000  0.5587180000000 1.0
C      1  0.4849250000000  0.5588850000000  0.4564290000000 1.0
C      1  0.5435340000000  0.3955840000000  0.4886300000000 1.0
C      1  0.5749570000000  0.5263140000000  0.4215690000000 1.0
C      1  0.4099670000000  0.4302160000000  0.4195330000000 1.0
C      1  0.4263630000000  0.4686630000000  0.3928940000000 1.0
C      1  0.3621990000000  0.4213320000000  0.5089910000000 1.0
C      1  0.4860790000000  0.4425200000000  0.4667590000000 1.0
C      1  0.4575180000000  0.4730230000000  0.5376590000000 1.0
C      1  0.4969490000000  0.5196830000000  0.4953160000000 1.0
C      1  0.5880190000000  0.5698560000000  0.5274940000000 1.0
C      1  0.6044670000000  0.5289200000000  0.5062320000000 1.0
C      1  0.4491980000000  0.4256120000000  0.5505880000000 1.0
C      1  0.4745850000000  0.3844510000000  0.5086960000000 1.0
C      1  0.5355240000000  0.5546830000000  0.4733760000000 1.0
C      1  0.4855380000000  0.4955750000000  0.6041900000000 1.0
C      1  0.4294440000000  0.4040380000000  0.5063910000000 1.0
C      1  0.5797620000000  0.4726810000000  0.4861920000000 1.0
C      1  0.4363290000000  0.5628100000000  0.5620290000000 1.0
C      1  0.5308630000000  0.4533060000000  0.6312670000000 1.0
C      1  0.4278640000000  0.5665790000000  0.5341130000000 1.0
C      1  0.4077190000000  0.4675440000000  0.4484170000000 1.0
C      1  0.5047890000000  0.4879580000000  0.5846920000000 1.0
C      1  0.4169630000000  0.4437340000000  0.3972100000000 1.0
C      1  0.4799070000000  0.5094920000000  0.4042940000000 1.0
C      1  0.5070430000000  0.5830160000000  0.4230000000000 1.0
C      1  0.4681440000000  0.4483480000000  0.6031280000000 1.0
C      1  0.5788070000000  0.6265520000000  0.4192750000000 1.0
C      1  0.4753320000000  0.5337730000000  0.5067040000000 1.0
C      1  0.6090450000000  0.5468440000000  0.5304710000000 1.0
C      1  0.5708840000000  0.5606910000000  0.5050160000000 1.0
C      1  0.5050670000000  0.4102650000000  0.4233500000000 1.0
C      1  0.5396080000000  0.6082530000000  0.4518980000000 1.0
C      1  0.5821700000000  0.4220490000000  0.5004330000000 1.0
C      1  0.4782640000000  0.5134130000000  0.5531320000000 1.0
C      1  0.4653750000000  0.4394450000000  0.5068420000000 1.0
C      1  0.5135650000000  0.4742080000000  0.3932390000000 1.0
C      1  0.4109740000000  0.5449470000000  0.5218590000000 1.0
C      1  0.5348370000000  0.5311780000000  0.5575830000000 1.0
C      1  0.5323160000000  0.4790460000000  0.6402870000000 1.0
C      1  0.5427150000000  0.6004570000000  0.4799920000000 1.0
C      1  0.4548550000000  0.5139710000000  0.5116840000000 1.0
C      1  0.4083950000000  0.4205660000000  0.4949390000000 1.0
C      1  0.5139550000000  0.4814210000000  0.5397240000000 1.0
C      1  0.3782720000000  0.5052080000000  0.5313710000000 1.0
C      1  0.4545190000000  0.4818720000000  0.4709670000000 1.0
C      1  0.5265470000000  0.5864290000000  0.5475110000000 1.0
C      1  0.4819480000000  0.5314400000000  0.4520010000000 1.0
C      1  0.4128770000000  0.4564950000000  0.5481120000000 1.0
C      1  0.5386490000000  0.4673810000000  0.5394850000000 1.0
C      1  0.5234290000000  0.4816210000000  0.4437300000000 1.0
C      1  0.4650970000000  0.4317290000000  0.4814960000000 1.0
C      1  0.5416420000000  0.5032830000000  0.4458450000000 1.0
C      1  0.5499980000000  0.5071230000000  0.4718550000000 1.0
C      1  0.4588600000000  0.6006390000000  0.4357400000000 1.0
C      1  0.4513430000000  0.5128250000000  0.4096500000000 1.0
C      1  0.6025450000000  0.5372840000000  0.5584650000000 1.0
C      1  0.5249250000000  0.4762700000000  0.4959130000000 1.0
C      1  0.4683770000000  0.4742690000000  0.6110010000000 1.0
C      1  0.5448640000000  0.5670050000000  0.6184350000000 1.0
C      1  0.5522780000000  0.4828960000000  0.4872410000000 1.0
C      1  0.4969170000000  0.4035200000000  0.5489840000000 1.0
C      1  0.5107540000000  0.4241830000000  0.5920060000000 1.0
C      1  0.5243150000000  0.4336210000000  0.5026870000000 1.0
C      1  0.5776810000000  0.5498900000000  0.5694370000000 1.0
C      1  0.4895710000000  0.5233200000000  0.6117090000000 1.0
C      1  0.5894940000000  0.5028120000000  0.4261060000000 1.0
C      1  0.3882800000000  0.4322270000000  0.5133070000000 1.0
C      1  0.4162470000000  0.5428270000000  0.4932940000000 1.0
C      1  0.6350690000000  0.4791970000000  0.5407640000000 1.0
C      1  0.4833000000000  0.5600560000000  0.5155200000000 1.0
C      1  0.5625180000000  0.5095310000000  0.5259230000000 1.0
C      1  0.5391000000000  0.5292140000000  0.4840320000000 1.0
C      1  0.5382850000000  0.5438770000000  0.6047970000000 1.0
C      1  0.5035800000000  0.5583150000000  0.4103770000000 1.0
C      1  0.4229280000000  0.5200810000000  0.4765570000000 1.0
C      1  0.5270010000000  0.5735150000000  0.5220380000000 1.0
C      1  0.5112210000000  0.6039100000000  0.4439350000000 1.0
C      1  0.4679630000000  0.6163000000000  0.4788470000000 1.0
C      1  0.4856090000000  0.5627230000000  0.5440870000000 1.0
C      1  0.5356720000000  0.4419400000000  0.5260220000000 1.0
C      1  0.4343440000000  0.4079090000000  0.5342530000000 1.0
C      1  0.5017350000000  0.4742310000000  0.5146360000000 1.0
C      1  0.3731380000000  0.4091180000000  0.4646910000000 1.0
C      1  0.5186270000000  0.5265080000000  0.6178050000000 1.0
C      1  0.6243500000000  0.4745930000000  0.5167090000000 1.0
C      1  0.6045400000000  0.4830140000000  0.4988920000000 1.0
C      1  0.5595710000000  0.6181210000000  0.4354220000000 1.0
C      1  0.4878800000000  0.4809130000000  0.4047220000000 1.0
C      1  0.5745050000000  0.4539170000000  0.4406660000000 1.0
C      1  0.4385810000000  0.5692100000000  0.4609000000000 1.0
C      1  0.3552740000000  0.4099110000000  0.4852560000000 1.0
C      1  0.6096350000000  0.5083470000000  0.4845410000000 1.0
C      1  0.5076160000000  0.5630560000000  0.4736360000000 1.0
C      1  0.4165990000000  0.4911290000000  0.4356060000000 1.0
C      1  0.5250330000000  0.4454730000000  0.6044860000000 1.0
C      1  0.4770600000000  0.4681020000000  0.4535050000000 1.0
C      1  0.4665530000000  0.4363630000000  0.4168570000000 1.0
C      1  0.5054040000000  0.5764130000000  0.5010760000000 1.0
C      1  0.5246800000000  0.4689680000000  0.5888030000000 1.0
C      1  0.4065390000000  0.4392000000000  0.4462610000000 1.0
C      1  0.4818250000000  0.4288950000000  0.5878870000000 1.0
C      1  0.4984570000000  0.5869360000000  0.5536510000000 1.0
C      1  0.4990100000000  0.4876620000000  0.4560250000000 1.0
C      1  0.5515540000000  0.5396610000000  0.5790710000000 1.0
C      1  0.4210000000000  0.5172620000000  0.4482220000000 1.0
C      1  0.5521600000000  0.5906450000000  0.5578650000000 1.0
C      1  0.5542300000000  0.5738540000000  0.4849490000000 1.0
C      1  0.3918400000000  0.5280830000000  0.5330330000000 1.0
C      1  0.4960750000000  0.6124000000000  0.4700390000000 1.0
C      1  0.4989470000000  0.3914700000000  0.5222770000000 1.0
C      1  0.4682820000000  0.5416200000000  0.6041040000000 1.0
C      1  0.5671130000000  0.4285390000000  0.4537170000000 1.0
C      1  0.4284570000000  0.5678120000000  0.4863240000000 1.0
C      1  0.5276830000000  0.4551300000000  0.4347920000000 1.0
C      1  0.6316720000000  0.4949950000000  0.5620640000000 1.0
C      1  0.4506910000000  0.3890490000000  0.4932030000000 1.0
C      1  0.5472980000000  0.5227580000000  0.4256210000000 1.0
C      1  0.4768020000000  0.4110840000000  0.4247280000000 1.0
C      1  0.6179050000000  0.5166720000000  0.5694750000000 1.0
C      1  0.5837660000000  0.4605700000000  0.5353640000000 1.0
C      1  0.4738600000000  0.4179450000000  0.5619600000000 1.0
C      1  0.4317390000000  0.4902380000000  0.4100540000000 1.0
C      1  0.3990190000000  0.4213720000000  0.4671990000000 1.0
C      1  0.5230750000000  0.4299930000000  0.4265560000000 1.0
C      1  0.4621140000000  0.3936030000000  0.4412670000000 1.0
C      1  0.4567900000000  0.5492470000000  0.5785550000000 1.0
C      1  0.5751200000000  0.5299600000000  0.5074670000000 1.0
C      1  0.5110680000000  0.4360450000000  0.4790150000000 1.0
C      1  0.4741260000000  0.4630150000000  0.4233690000000 1.0
C      1  0.4764230000000  0.5409930000000  0.5591020000000 1.0
C      1  0.4523400000000  0.3859920000000  0.4651020000000 1.0
C      1  0.4428050000000  0.5025200000000  0.4880580000000 1.0
C      1  0.4672130000000  0.6174260000000  0.5286490000000 1.0
C      1  0.4538250000000  0.6203390000000  0.4541840000000 1.0
C      1  0.5034920000000  0.5291740000000  0.4037550000000 1.0
C      1  0.6009910000000  0.4968270000000  0.4519230000000 1.0
C      1  0.3770980000000  0.4789160000000  0.5269890000000 1.0
C      1  0.4831970000000  0.6103240000000  0.5491960000000 1.0
C      1  0.5365490000000  0.5216230000000  0.5312830000000 1.0
C      1  0.5675660000000  0.4768450000000  0.4153880000000 1.0
C      1  0.5877610000000  0.4372950000000  0.5219470000000 1.0
C      1  0.4625500000000  0.5747730000000  0.4474330000000 1.0
C      1  0.5305110000000  0.5166010000000  0.4033120000000 1.0
C      1  0.5887910000000  0.4706250000000  0.4587800000000 1.0
C      1  0.5384840000000  0.4879030000000  0.3981550000000 1.0
C      1  0.4405730000000  0.4532740000000  0.5495400000000 1.0
C      1  0.4578530000000  0.5012520000000  0.5370220000000 1.0
C      1  0.5223840000000  0.5238250000000  0.5067790000000 1.0
C      1  0.4559190000000  0.6065770000000  0.5047210000000 1.0
C      1  0.5641040000000  0.4813600000000  0.5360220000000 1.0
C      1  0.4387660000000  0.5306860000000  0.4289770000000 1.0
C      1  0.4760570000000  0.4620390000000  0.5188280000000 1.0
C      1  0.5645690000000  0.4137490000000  0.4792930000000 1.0
C      1  0.5290410000000  0.5052890000000  0.6344780000000 1.0
C      1  0.5977580000000  0.6347240000000  0.4033480000000 1.0
C      1  0.5235450000000  0.3888040000000  0.5064690000000 1.0
C      1  0.5749370000000  0.5745590000000  0.5532200000000 1.0
C      1  0.5145420000000  0.6042140000000  0.4910530000000 1.0
C      1  0.3918280000000  0.4551830000000  0.5296610000000 1.0
END
