TITL C-627110-360-1366 0.863711521275275 125000 -529.549943566409 0 0 88 (C1) n - 1
REM
REM in /home/nfs/bkarasulu/CARBON/AIRSS/Generating-Clusters/LCBOP/Only-C1/SD-CG/FIRE-CG
REM
REM
REM
REM
REM
REM ./C.cell (11c1c37f851c82e70ff6c80c92926a4b)
REM AIRSS Version 0.9.1 bugfix July 2018 build 013d7b7c2542+ Fri, 06 Jul 2018 19:26:36 +0100
REM compiler GCC version 9.2.1 20190827 (Red Hat 9.2.1-1)
REM options -cpp -mtune=generic -march=x86-64 -g -O0 -fpre-include=/usr/include/finclude/math-vector-fortran.h
REM seed -949378452 -1023779973 676976523 -2121704168 -1645718132 1145519104 2006085200 -879023149 -15870144 -1176162845 1673092501 -981716573 1744235377 179280981 1534764438 625418705 802239553 -1782952903 179421557 2116863630 -2108506896 485974345 1571547282 807073557 1375954501 2020630445 -1504420292 505022748 -612548721 1777732882 -1681161680 -1799222788 -32845144
REM
CELL 1.54180   50.00000   50.00000   50.00000   90.00000   90.00000   90.00000
LATT -1
SFAC C  
C      1  0.5146580000000  0.4197100000000  0.5202690000000 1.0
C      1  0.5560740000000  0.5527490000000  0.4282480000000 1.0
C      1  0.4784530000000  0.3948390000000  0.5406690000000 1.0
C      1  0.4600800000000  0.5035760000000  0.5001080000000 1.0
C      1  0.4591180000000  0.5894580000000  0.4577620000000 1.0
C      1  0.4635220000000  0.5282100000000  0.4855170000000 1.0
C      1  0.4306660000000  0.5132470000000  0.5379750000000 1.0
C      1  0.5850890000000  0.5272070000000  0.5448780000000 1.0
C      1  0.5705180000000  0.4701890000000  0.4379090000000 1.0
C      1  0.5260960000000  0.4561090000000  0.4146680000000 1.0
C      1  0.5298880000000  0.4390480000000  0.5052170000000 1.0
C      1  0.4789900000000  0.5584560000000  0.5220870000000 1.0
C      1  0.3571540000000  0.5120580000000  0.6270010000000 1.0
C      1  0.5310590000000  0.4775770000000  0.4729410000000 1.0
C      1  0.4250650000000  0.4577540000000  0.5567650000000 1.0
C      1  0.5327850000000  0.5464790000000  0.4163280000000 1.0
C      1  0.4809280000000  0.4838980000000  0.5045390000000 1.0
C      1  0.5082730000000  0.5929800000000  0.5082410000000 1.0
C      1  0.4898190000000  0.4783000000000  0.5527800000000 1.0
C      1  0.4631000000000  0.4552610000000  0.4429150000000 1.0
C      1  0.5183220000000  0.4591140000000  0.4895500000000 1.0
C      1  0.5571530000000  0.5371060000000  0.4743560000000 1.0
C      1  0.4265480000000  0.5220790000000  0.5866590000000 1.0
C      1  0.4796700000000  0.4476330000000  0.4655550000000 1.0
C      1  0.5862170000000  0.5536920000000  0.5424220000000 1.0
C      1  0.5117850000000  0.5512890000000  0.4731960000000 1.0
C      1  0.5527230000000  0.4545390000000  0.4247540000000 1.0
C      1  0.4656830000000  0.5549900000000  0.4966120000000 1.0
C      1  0.5572910000000  0.5942610000000  0.5276180000000 1.0
C      1  0.5256210000000  0.5951810000000  0.4641940000000 1.0
C      1  0.5422640000000  0.3631720000000  0.5635220000000 1.0
C      1  0.4642650000000  0.5597880000000  0.5966430000000 1.0
C      1  0.4321840000000  0.5049470000000  0.5649970000000 1.0
C      1  0.4985380000000  0.4871040000000  0.5276540000000 1.0
C      1  0.4974470000000  0.5378010000000  0.4521800000000 1.0
C      1  0.5768160000000  0.4916810000000  0.4530250000000 1.0
C      1  0.4412680000000  0.4778820000000  0.5684890000000 1.0
C      1  0.3347340000000  0.5084530000000  0.6398070000000 1.0
C      1  0.5874900000000  0.3764290000000  0.5524970000000 1.0
C      1  0.4691190000000  0.4741520000000  0.5691550000000 1.0
C      1  0.4714240000000  0.5266200000000  0.4581290000000 1.0
C      1  0.5690490000000  0.3609890000000  0.5646880000000 1.0
C      1  0.4170460000000  0.4564210000000  0.5309290000000 1.0
C      1  0.5190490000000  0.4828170000000  0.4072460000000 1.0
C      1  0.3799490000000  0.5157210000000  0.6139790000000 1.0
C      1  0.4355380000000  0.4991560000000  0.5138360000000 1.0
C      1  0.5600450000000  0.5594190000000  0.4554940000000 1.0
C      1  0.5236920000000  0.5004770000000  0.5239750000000 1.0
C      1  0.5580280000000  0.4334390000000  0.5096450000000 1.0
C      1  0.4583700000000  0.5929340000000  0.4313050000000 1.0
C      1  0.5717480000000  0.5135040000000  0.4681120000000 1.0
C      1  0.4958990000000  0.3781980000000  0.5531690000000 1.0
C      1  0.5087610000000  0.5311560000000  0.4240940000000 1.0
C      1  0.4894720000000  0.4622870000000  0.4877450000000 1.0
C      1  0.4449560000000  0.5418900000000  0.5936660000000 1.0
C      1  0.4732020000000  0.5772620000000  0.4784640000000 1.0
C      1  0.5010480000000  0.4319740000000  0.4513450000000 1.0
C      1  0.5334720000000  0.4015810000000  0.5339960000000 1.0
C      1  0.4838590000000  0.5769100000000  0.5982260000000 1.0
C      1  0.5334460000000  0.6005960000000  0.5176520000000 1.0
C      1  0.5042450000000  0.5808520000000  0.4798220000000 1.0
C      1  0.5240800000000  0.3802690000000  0.5507590000000 1.0
C      1  0.4849510000000  0.5357160000000  0.4061950000000 1.0
C      1  0.5243850000000  0.4941810000000  0.4531320000000 1.0
C      1  0.5798910000000  0.4476090000000  0.5003080000000 1.0
C      1  0.5760460000000  0.5774860000000  0.5362400000000 1.0
C      1  0.4672340000000  0.5834060000000  0.4079700000000 1.0
C      1  0.5510370000000  0.5856300000000  0.4616940000000 1.0
C      1  0.5317540000000  0.5374280000000  0.4887380000000 1.0
C      1  0.6034730000000  0.4579590000000  0.4962720000000 1.0
C      1  0.4027080000000  0.5192670000000  0.6009030000000 1.0
C      1  0.5000990000000  0.5405050000000  0.5266890000000 1.0
C      1  0.5831340000000  0.3975400000000  0.5363880000000 1.0
C      1  0.4632800000000  0.5177100000000  0.4107400000000 1.0
C      1  0.5037570000000  0.4407080000000  0.4234610000000 1.0
C      1  0.5168540000000  0.5024630000000  0.4272250000000 1.0
C      1  0.4874690000000  0.5852880000000  0.5261880000000 1.0
C      1  0.5715070000000  0.5044120000000  0.5423590000000 1.0
C      1  0.5602390000000  0.4104130000000  0.5269580000000 1.0
C      1  0.4289680000000  0.5076650000000  0.4437000000000 1.0
C      1  0.4541060000000  0.5167090000000  0.4377790000000 1.0
C      1  0.4763790000000  0.4506750000000  0.4187290000000 1.0
C      1  0.5212150000000  0.5268150000000  0.5135390000000 1.0
C      1  0.4790130000000  0.5617900000000  0.3974330000000 1.0
C      1  0.4216000000000  0.4745740000000  0.5113560000000 1.0
C      1  0.4872990000000  0.4149270000000  0.5246910000000 1.0
C      1  0.5484530000000  0.4933200000000  0.5347230000000 1.0
C      1  0.4522970000000  0.5029340000000  0.3906130000000 1.0
END
