TITL C-627107-135-1682 -7520.61584458725 125000 -356.236609994638 0 0 60 (C1) n - 1
REM
REM in /home/nfs/bkarasulu/CARBON/AIRSS/Generating-Clusters/LCBOP/Only-C1/SD-CG/FIRE-CG
REM
REM
REM
REM
REM
REM ./C.cell (11c1c37f851c82e70ff6c80c92926a4b)
REM AIRSS Version 0.9.1 bugfix July 2018 build 013d7b7c2542+ Fri, 06 Jul 2018 19:26:36 +0100
REM compiler GCC version 9.2.1 20190827 (Red Hat 9.2.1-1)
REM options -cpp -mtune=generic -march=x86-64 -g -O0 -fpre-include=/usr/include/finclude/math-vector-fortran.h
REM seed 1950818465 1565207922 1835805178 1596566943 620843474 994545035 -1058191822 -1448936257 -1852391887 948122372 1596796319 -1720245702 -49532453 -1302975697 1326118726 -1613189364 350346760 2064917425 -1935059865 1710216324 1675684843 1803058780 -1270892951 1882818054 -367697446 483451846 -1748895554 1502650953 -71228640 -1834286924 -1753583036 1806909815 -1691769973
REM
CELL 1.54180   50.00000   50.00000   50.00000   90.00000   90.00000   90.00000
LATT -1
SFAC C  
C      1  0.6152970000000  0.5081080000000  0.4289860000000 1.0
C      1  0.6782330000000  0.4941070000000  0.4617110000000 1.0
C      1  0.4309150000000  0.4992560000000  0.4417780000000 1.0
C      1  0.6061110000000  0.4420430000000  0.5472730000000 1.0
C      1  0.4944600000000  0.4969660000000  0.5129200000000 1.0
C      1  0.6416160000000  0.5113010000000  0.4305860000000 1.0
C      1  0.5202910000000  0.5336050000000  0.4490830000000 1.0
C      1  0.3951430000000  0.4783550000000  0.5520950000000 1.0
C      1  0.6129420000000  0.4602800000000  0.4851230000000 1.0
C      1  0.4725400000000  0.5352530000000  0.4744010000000 1.0
C      1  0.4005590000000  0.5985800000000  0.5059460000000 1.0
C      1  0.4399220000000  0.5720250000000  0.4952410000000 1.0
C      1  0.4866910000000  0.5073480000000  0.5860140000000 1.0
C      1  0.5358950000000  0.4832610000000  0.3828500000000 1.0
C      1  0.4343660000000  0.4937400000000  0.4145990000000 1.0
C      1  0.4293180000000  0.4622630000000  0.6079580000000 1.0
C      1  0.4751270000000  0.4854900000000  0.5991280000000 1.0
C      1  0.4545200000000  0.4704860000000  0.6065900000000 1.0
C      1  0.6329270000000  0.4569660000000  0.5046390000000 1.0
C      1  0.5647390000000  0.4614550000000  0.4865060000000 1.0
C      1  0.5878560000000  0.4708250000000  0.4442600000000 1.0
C      1  0.6758160000000  0.4782620000000  0.4829820000000 1.0
C      1  0.4127120000000  0.4902820000000  0.3982670000000 1.0
C      1  0.4377910000000  0.5626010000000  0.5775270000000 1.0
C      1  0.4307720000000  0.4685990000000  0.5207190000000 1.0
C      1  0.3932230000000  0.4696500000000  0.5770970000000 1.0
C      1  0.4047350000000  0.5082070000000  0.5133930000000 1.0
C      1  0.5026150000000  0.5035920000000  0.5633000000000 1.0
C      1  0.4010230000000  0.5331180000000  0.5255750000000 1.0
C      1  0.4965630000000  0.5368740000000  0.4603870000000 1.0
C      1  0.6256810000000  0.4475790000000  0.5300150000000 1.0
C      1  0.4710700000000  0.4917140000000  0.4984510000000 1.0
C      1  0.4857960000000  0.4897860000000  0.3973770000000 1.0
C      1  0.4541900000000  0.4713780000000  0.5081670000000 1.0
C      1  0.4112210000000  0.5584550000000  0.5318710000000 1.0
C      1  0.5111840000000  0.4867540000000  0.3903890000000 1.0
C      1  0.3848240000000  0.6189080000000  0.5016670000000 1.0
C      1  0.6591170000000  0.4646260000000  0.4985800000000 1.0
C      1  0.5676640000000  0.5144420000000  0.4362300000000 1.0
C      1  0.5885240000000  0.4643590000000  0.4719060000000 1.0
C      1  0.4593180000000  0.5581850000000  0.4835360000000 1.0
C      1  0.6650910000000  0.5064700000000  0.4421260000000 1.0
C      1  0.4603440000000  0.5100500000000  0.4794350000000 1.0
C      1  0.5794880000000  0.4418290000000  0.5497010000000 1.0
C      1  0.5849580000000  0.4510790000000  0.4255160000000 1.0
C      1  0.4773470000000  0.5330150000000  0.5922240000000 1.0
C      1  0.4020300000000  0.4601350000000  0.6019380000000 1.0
C      1  0.4201230000000  0.5640900000000  0.5577590000000 1.0
C      1  0.4603290000000  0.4918210000000  0.4043780000000 1.0
C      1  0.5529130000000  0.4550000000000  0.5095180000000 1.0
C      1  0.5052380000000  0.5006990000000  0.5369810000000 1.0
C      1  0.4124150000000  0.5075820000000  0.4862950000000 1.0
C      1  0.5443340000000  0.5261090000000  0.4408410000000 1.0
C      1  0.4088580000000  0.4844260000000  0.5286270000000 1.0
C      1  0.4341980000000  0.5055230000000  0.4686920000000 1.0
C      1  0.5580830000000  0.4471600000000  0.5345460000000 1.0
C      1  0.4590430000000  0.5520840000000  0.5895060000000 1.0
C      1  0.4171510000000  0.5767190000000  0.5108470000000 1.0
C      1  0.5902280000000  0.4980200000000  0.4361750000000 1.0
C      1  0.3845220000000  0.4491010000000  0.6197730000000 1.0
END
