TITL C-627110-360-1438 -1.145552851009e-07 125000 -279.717436687514 0 0 47 (C1) n - 1
REM
REM in /home/nfs/bkarasulu/CARBON/AIRSS/Generating-Clusters/LCBOP/Only-C1/SD-CG/FIRE-CG
REM
REM
REM
REM
REM
REM ./C.cell (11c1c37f851c82e70ff6c80c92926a4b)
REM AIRSS Version 0.9.1 bugfix July 2018 build 013d7b7c2542+ Fri, 06 Jul 2018 19:26:36 +0100
REM compiler GCC version 9.2.1 20190827 (Red Hat 9.2.1-1)
REM options -cpp -mtune=generic -march=x86-64 -g -O0 -fpre-include=/usr/include/finclude/math-vector-fortran.h
REM seed 1104128066 -1899257142 -880297709 1744331321 -805401216 -863540473 366190804 -1155379263 -89789938 511191341 1624401200 151992784 1111859528 1505470326 1867547865 453999655 460445419 -370979334 -91293894 1802394044 -1110993076 -744495301 2058607365 2075871344 -1852168593 796109225 -423358106 -299892159 646225742 25888924 371937057 -1049226953 1295223424
REM
CELL 1.54180   50.00000   50.00000   50.00000   90.00000   90.00000   90.00000
LATT -1
SFAC C  
C      1  0.5414990000000  0.5199590000000  0.5628760000000 1.0
C      1  0.4415980000000  0.5697400000000  0.4895330000000 1.0
C      1  0.4989300000000  0.4274070000000  0.5359820000000 1.0
C      1  0.4934900000000  0.4776030000000  0.4899030000000 1.0
C      1  0.4387990000000  0.4825350000000  0.5253750000000 1.0
C      1  0.4348310000000  0.4559940000000  0.4823090000000 1.0
C      1  0.5605880000000  0.5210130000000  0.4875380000000 1.0
C      1  0.4754860000000  0.5113490000000  0.5145790000000 1.0
C      1  0.5552210000000  0.5410840000000  0.4676070000000 1.0
C      1  0.5659520000000  0.4495460000000  0.5065530000000 1.0
C      1  0.4567510000000  0.5022200000000  0.5342040000000 1.0
C      1  0.5719150000000  0.4724250000000  0.4940000000000 1.0
C      1  0.5551010000000  0.5239090000000  0.5398420000000 1.0
C      1  0.4881480000000  0.5227980000000  0.4628890000000 1.0
C      1  0.4842370000000  0.5463020000000  0.4822710000000 1.0
C      1  0.4842720000000  0.4070120000000  0.5466600000000 1.0
C      1  0.5193740000000  0.4804450000000  0.5013080000000 1.0
C      1  0.5239710000000  0.4805430000000  0.5282290000000 1.0
C      1  0.4862490000000  0.4934140000000  0.4665500000000 1.0
C      1  0.5177640000000  0.5120840000000  0.5731530000000 1.0
C      1  0.5639230000000  0.4939540000000  0.4776530000000 1.0
C      1  0.4685730000000  0.5417390000000  0.5534130000000 1.0
C      1  0.5491350000000  0.4319420000000  0.5176450000000 1.0
C      1  0.5115260000000  0.5322910000000  0.4465030000000 1.0
C      1  0.5128340000000  0.5537920000000  0.4870620000000 1.0
C      1  0.4847700000000  0.4763810000000  0.4431020000000 1.0
C      1  0.5284180000000  0.5492970000000  0.4630370000000 1.0
C      1  0.4697580000000  0.5127100000000  0.5581550000000 1.0
C      1  0.5256890000000  0.4237880000000  0.5275910000000 1.0
C      1  0.5481470000000  0.5280780000000  0.5128100000000 1.0
C      1  0.4947650000000  0.4981440000000  0.5636460000000 1.0
C      1  0.4646110000000  0.5571830000000  0.5006610000000 1.0
C      1  0.4193040000000  0.5547080000000  0.4843260000000 1.0
C      1  0.4879470000000  0.4535740000000  0.5327680000000 1.0
C      1  0.5530420000000  0.4872020000000  0.4520390000000 1.0
C      1  0.4606990000000  0.4623890000000  0.4397520000000 1.0
C      1  0.4762030000000  0.4611700000000  0.5069600000000 1.0
C      1  0.5241030000000  0.5161800000000  0.4272870000000 1.0
C      1  0.5018360000000  0.4755990000000  0.5462980000000 1.0
C      1  0.5000870000000  0.5219770000000  0.5181820000000 1.0
C      1  0.4406810000000  0.4550170000000  0.4561090000000 1.0
C      1  0.5101000000000  0.4715490000000  0.4312480000000 1.0
C      1  0.4477490000000  0.4639570000000  0.5058300000000 1.0
C      1  0.5319960000000  0.4895660000000  0.4332000000000 1.0
C      1  0.5213220000000  0.5380240000000  0.5094290000000 1.0
C      1  0.4664590000000  0.5558160000000  0.5297380000000 1.0
C      1  0.4421480000000  0.5965920000000  0.4841960000000 1.0
END
