TITL C-627108-131-1302 6.28545775993195 125000 -483.844972193142 0 0 81 (C1) n - 1
REM
REM in /home/nfs/bkarasulu/CARBON/AIRSS/Generating-Clusters/LCBOP/Only-C1/SD-CG/FIRE-CG
REM
REM
REM
REM
REM
REM ./C.cell (11c1c37f851c82e70ff6c80c92926a4b)
REM AIRSS Version 0.9.1 bugfix July 2018 build 013d7b7c2542+ Fri, 06 Jul 2018 19:26:36 +0100
REM compiler GCC version 9.2.1 20190827 (Red Hat 9.2.1-1)
REM options -cpp -mtune=generic -march=x86-64 -g -O0 -fpre-include=/usr/include/finclude/math-vector-fortran.h
REM seed -811118973 -171491963 1360084099 -1500283350 658697274 881074672 780746037 892726692 586888725 1682438702 812779 -1286396450 -814812033 -43903744 -1668085046 -823893866 -1841939340 233215991 -1118609667 -1678666473 -974931903 -1646360437 -247574106 2097190322 -1060293095 -8692979 1378505570 -157032563 -1078268218 -842760604 163012072 -430293874 -1992378644
REM
CELL 1.54180   50.00000   50.00000   50.00000   90.00000   90.00000   90.00000
LATT -1
SFAC C  
C      1  0.3890390000000  0.4402910000000  0.5812680000000 1.0
C      1  0.4784990000000  0.5148140000000  0.6318890000000 1.0
C      1  0.6803370000000  0.5559850000000  0.3947190000000 1.0
C      1  0.4526730000000  0.3866710000000  0.5209610000000 1.0
C      1  0.6367680000000  0.4992600000000  0.4203620000000 1.0
C      1  0.6340900000000  0.5481260000000  0.4305860000000 1.0
C      1  0.5456630000000  0.5323210000000  0.4851760000000 1.0
C      1  0.4589880000000  0.4812400000000  0.4270550000000 1.0
C      1  0.6070900000000  0.5302650000000  0.4679010000000 1.0
C      1  0.5054300000000  0.4984530000000  0.4954430000000 1.0
C      1  0.4118600000000  0.4854280000000  0.5635670000000 1.0
C      1  0.3689360000000  0.4608110000000  0.5162210000000 1.0
C      1  0.4779290000000  0.3830180000000  0.5094460000000 1.0
C      1  0.5689330000000  0.5229720000000  0.4988280000000 1.0
C      1  0.5918700000000  0.5137340000000  0.4845970000000 1.0
C      1  0.4848410000000  0.3595190000000  0.4974040000000 1.0
C      1  0.3829540000000  0.4853990000000  0.5120320000000 1.0
C      1  0.6293480000000  0.4765260000000  0.4318830000000 1.0
C      1  0.5981930000000  0.4865000000000  0.4861820000000 1.0
C      1  0.4345480000000  0.4012600000000  0.5337130000000 1.0
C      1  0.5327880000000  0.4332650000000  0.5232370000000 1.0
C      1  0.6451310000000  0.5255210000000  0.4163550000000 1.0
C      1  0.3703090000000  0.5075200000000  0.5251980000000 1.0
C      1  0.4561800000000  0.5175510000000  0.5622370000000 1.0
C      1  0.4497680000000  0.5053060000000  0.5867550000000 1.0
C      1  0.3727530000000  0.4585110000000  0.5659400000000 1.0
C      1  0.3431290000000  0.5925080000000  0.5167860000000 1.0
C      1  0.4951550000000  0.4759170000000  0.5049040000000 1.0
C      1  0.6057900000000  0.4615030000000  0.4761490000000 1.0
C      1  0.3185690000000  0.6004990000000  0.5227200000000 1.0
C      1  0.4408070000000  0.5241760000000  0.5110730000000 1.0
C      1  0.2940030000000  0.6084890000000  0.5286560000000 1.0
C      1  0.4594800000000  0.5578420000000  0.4810940000000 1.0
C      1  0.3622210000000  0.4505960000000  0.5406200000000 1.0
C      1  0.4637750000000  0.4507520000000  0.5317250000000 1.0
C      1  0.4116330000000  0.4850680000000  0.5147200000000 1.0
C      1  0.4276140000000  0.4876890000000  0.5871260000000 1.0
C      1  0.7624190000000  0.5685780000000  0.3276150000000 1.0
C      1  0.4156060000000  0.5644400000000  0.5006840000000 1.0
C      1  0.6483780000000  0.5724770000000  0.4271820000000 1.0
C      1  0.5881230000000  0.5632210000000  0.4394730000000 1.0
C      1  0.5669950000000  0.5161430000000  0.5260110000000 1.0
C      1  0.7016350000000  0.5592510000000  0.3773090000000 1.0
C      1  0.3830850000000  0.4856870000000  0.5660270000000 1.0
C      1  0.4957950000000  0.4045340000000  0.5108220000000 1.0
C      1  0.6104190000000  0.5472550000000  0.4457970000000 1.0
C      1  0.4779240000000  0.5657210000000  0.4644540000000 1.0
C      1  0.4881110000000  0.4522550000000  0.5180480000000 1.0
C      1  0.5790110000000  0.4372070000000  0.5088040000000 1.0
C      1  0.4646860000000  0.5104280000000  0.6097110000000 1.0
C      1  0.7423760000000  0.5655020000000  0.3440010000000 1.0
C      1  0.6001590000000  0.4375840000000  0.4903990000000 1.0
C      1  0.4293050000000  0.5008500000000  0.4992340000000 1.0
C      1  0.4368300000000  0.4496890000000  0.5392650000000 1.0
C      1  0.5475810000000  0.5534450000000  0.4669250000000 1.0
C      1  0.4466320000000  0.4869830000000  0.4497890000000 1.0
C      1  0.6189660000000  0.4617620000000  0.4514170000000 1.0
C      1  0.5609320000000  0.4682580000000  0.5410660000000 1.0
C      1  0.4008980000000  0.4501670000000  0.6051940000000 1.0
C      1  0.6153560000000  0.4151570000000  0.4865100000000 1.0
C      1  0.3676600000000  0.5843950000000  0.5109050000000 1.0
C      1  0.4215930000000  0.4737150000000  0.5391970000000 1.0
C      1  0.6666680000000  0.5314640000000  0.3987470000000 1.0
C      1  0.7219980000000  0.5623750000000  0.3606600000000 1.0
C      1  0.3694530000000  0.5066280000000  0.5525090000000 1.0
C      1  0.2698410000000  0.6163470000000  0.5344950000000 1.0
C      1  0.5217380000000  0.5182690000000  0.4887300000000 1.0
C      1  0.3919890000000  0.5754920000000  0.5053360000000 1.0
C      1  0.5578800000000  0.4453180000000  0.5252530000000 1.0
C      1  0.4251140000000  0.4244100000000  0.5461950000000 1.0
C      1  0.4714540000000  0.4756940000000  0.4048410000000 1.0
C      1  0.4361960000000  0.4932520000000  0.4733090000000 1.0
C      1  0.4387040000000  0.5490610000000  0.4975370000000 1.0
C      1  0.5056890000000  0.4298310000000  0.5173710000000 1.0
C      1  0.6695000000000  0.5767330000000  0.4107210000000 1.0
C      1  0.4193060000000  0.4700060000000  0.6076390000000 1.0
C      1  0.4528230000000  0.5230610000000  0.5364090000000 1.0
C      1  0.5631210000000  0.5653470000000  0.4487830000000 1.0
C      1  0.5639620000000  0.4947100000000  0.5415990000000 1.0
C      1  0.4920360000000  0.5190640000000  0.6537600000000 1.0
C      1  0.4049630000000  0.4229310000000  0.5657370000000 1.0
END
