TITL C-627113-6568-876 -0.133243464136908 125000 -712.867872359834 0 0 118 (C1) n - 1
REM
REM in /home/nfs/bkarasulu/CARBON/AIRSS/Generating-Clusters/LCBOP/Only-C1/SD-CG/FIRE-CG
REM
REM
REM
REM
REM
REM ./C.cell (11c1c37f851c82e70ff6c80c92926a4b)
REM AIRSS Version 0.9.1 bugfix July 2018 build 013d7b7c2542+ Fri, 06 Jul 2018 19:26:36 +0100
REM compiler GCC version 9.2.1 20190827 (Red Hat 9.2.1-1)
REM options -cpp -mtune=generic -march=x86-64 -g -O0 -fpre-include=/usr/include/finclude/math-vector-fortran.h
REM seed -1420990009 797255154 -2012921148 -1678999935 -1037206269 -409883033 -1904129738 360167470 -588699921 -2095360314 -1416533945 -812472472 -1484268276 -1636143049 216760865 -36632995 1120834286 -191397722 137393259 976728801 -1178321816 -1973884833 826062671 118894688 1904779205 112755150 886681845 1926366622 357587069 -371653787 1097518775 274225859 2117181026
REM
CELL 1.54180   50.00000   50.00000   50.00000   90.00000   90.00000   90.00000
LATT -1
SFAC C  
C      1  0.5673940000000  0.4303490000000  0.5139240000000 1.0
C      1  0.5082050000000  0.4823000000000  0.5458710000000 1.0
C      1  0.4973230000000  0.5364750000000  0.4693920000000 1.0
C      1  0.5467320000000  0.5260510000000  0.5096760000000 1.0
C      1  0.4830470000000  0.4101610000000  0.4559590000000 1.0
C      1  0.5008420000000  0.4318870000000  0.4182590000000 1.0
C      1  0.5681390000000  0.5000370000000  0.4756590000000 1.0
C      1  0.5664250000000  0.4601010000000  0.4372250000000 1.0
C      1  0.5472500000000  0.5262880000000  0.5968120000000 1.0
C      1  0.5125000000000  0.5894080000000  0.5356700000000 1.0
C      1  0.5225230000000  0.4846640000000  0.5216370000000 1.0
C      1  0.4661040000000  0.5247390000000  0.5329940000000 1.0
C      1  0.5088820000000  0.5036610000000  0.5647130000000 1.0
C      1  0.6052650000000  0.4597290000000  0.5013510000000 1.0
C      1  0.5798960000000  0.5454510000000  0.4669140000000 1.0
C      1  0.5953220000000  0.4457380000000  0.4771920000000 1.0
C      1  0.5207070000000  0.5725410000000  0.5933180000000 1.0
C      1  0.4341410000000  0.4330980000000  0.5475500000000 1.0
C      1  0.3976860000000  0.4561630000000  0.5160010000000 1.0
C      1  0.5505860000000  0.4996870000000  0.5929380000000 1.0
C      1  0.4611640000000  0.4293430000000  0.4493530000000 1.0
C      1  0.5424640000000  0.4511700000000  0.5712930000000 1.0
C      1  0.5428800000000  0.5142340000000  0.4827910000000 1.0
C      1  0.5187910000000  0.4739060000000  0.4094890000000 1.0
C      1  0.4675720000000  0.5459660000000  0.4253500000000 1.0
C      1  0.4627660000000  0.4542420000000  0.4609100000000 1.0
C      1  0.4313290000000  0.4995960000000  0.5693260000000 1.0
C      1  0.5622950000000  0.4760410000000  0.4896070000000 1.0
C      1  0.4784960000000  0.5218820000000  0.4116020000000 1.0
C      1  0.5139290000000  0.5783940000000  0.4445210000000 1.0
C      1  0.4653980000000  0.4965180000000  0.4469630000000 1.0
C      1  0.5858610000000  0.4518530000000  0.5241310000000 1.0
C      1  0.4451830000000  0.4385150000000  0.5735810000000 1.0
C      1  0.4930080000000  0.4422510000000  0.4947580000000 1.0
C      1  0.5059090000000  0.5180620000000  0.4189310000000 1.0
C      1  0.4171160000000  0.5001160000000  0.4595010000000 1.0
C      1  0.4431470000000  0.5387710000000  0.4419130000000 1.0
C      1  0.5632220000000  0.5191630000000  0.4305810000000 1.0
C      1  0.4467040000000  0.4760040000000  0.5072720000000 1.0
C      1  0.5738330000000  0.4786610000000  0.5322880000000 1.0
C      1  0.5379610000000  0.5517360000000  0.5963040000000 1.0
C      1  0.4245950000000  0.5269580000000  0.5557370000000 1.0
C      1  0.4524850000000  0.4211360000000  0.5280210000000 1.0
C      1  0.5495860000000  0.4782120000000  0.5161410000000 1.0
C      1  0.5416330000000  0.5783300000000  0.4961540000000 1.0
C      1  0.4853990000000  0.5902480000000  0.5447380000000 1.0
C      1  0.4193720000000  0.5204860000000  0.5256270000000 1.0
C      1  0.4027530000000  0.5004500000000  0.4842940000000 1.0
C      1  0.4991240000000  0.4598420000000  0.4238370000000 1.0
C      1  0.4969620000000  0.4085390000000  0.4311320000000 1.0
C      1  0.3936520000000  0.4760800000000  0.4972640000000 1.0
C      1  0.4141990000000  0.5476360000000  0.4822110000000 1.0
C      1  0.4293640000000  0.5570100000000  0.4599140000000 1.0
C      1  0.5166980000000  0.5297210000000  0.5526500000000 1.0
C      1  0.5041810000000  0.4903890000000  0.4992230000000 1.0
C      1  0.5505210000000  0.4273950000000  0.4670780000000 1.0
C      1  0.6110590000000  0.4880340000000  0.5063810000000 1.0
C      1  0.5331370000000  0.4057120000000  0.4649850000000 1.0
C      1  0.4838920000000  0.5615310000000  0.4783970000000 1.0
C      1  0.5918590000000  0.4557080000000  0.4502850000000 1.0
C      1  0.5444410000000  0.4522650000000  0.4540650000000 1.0
C      1  0.4466810000000  0.4659530000000  0.4809390000000 1.0
C      1  0.4716580000000  0.5581780000000  0.5032770000000 1.0
C      1  0.4082100000000  0.5255490000000  0.4992960000000 1.0
C      1  0.4818200000000  0.5020250000000  0.5879900000000 1.0
C      1  0.4374530000000  0.4232760000000  0.4012130000000 1.0
C      1  0.4790980000000  0.4716700000000  0.4439930000000 1.0
C      1  0.5588430000000  0.4736670000000  0.4143580000000 1.0
C      1  0.4666600000000  0.4628030000000  0.5229130000000 1.0
C      1  0.4673960000000  0.5009990000000  0.5451930000000 1.0
C      1  0.5834970000000  0.5504170000000  0.4953110000000 1.0
C      1  0.4409930000000  0.5108540000000  0.4483830000000 1.0
C      1  0.4793310000000  0.5414230000000  0.6229210000000 1.0
C      1  0.4841560000000  0.5180180000000  0.6109410000000 1.0
C      1  0.5154850000000  0.5258230000000  0.4464880000000 1.0
C      1  0.4722290000000  0.5478680000000  0.5467760000000 1.0
C      1  0.4708540000000  0.5709020000000  0.5287490000000 1.0
C      1  0.4549560000000  0.4888710000000  0.5847860000000 1.0
C      1  0.4803560000000  0.5677310000000  0.6173560000000 1.0
C      1  0.4711860000000  0.5787620000000  0.4596220000000 1.0
C      1  0.4433670000000  0.5815570000000  0.4612300000000 1.0
C      1  0.5482960000000  0.4739880000000  0.5846840000000 1.0
C      1  0.5260480000000  0.5014610000000  0.4619010000000 1.0
C      1  0.4806750000000  0.4770370000000  0.5414820000000 1.0
C      1  0.4930010000000  0.5801910000000  0.5950780000000 1.0
C      1  0.4479380000000  0.5740830000000  0.5739030000000 1.0
C      1  0.5769430000000  0.5274940000000  0.5134290000000 1.0
C      1  0.4544960000000  0.4701790000000  0.4059260000000 1.0
C      1  0.5702830000000  0.5752840000000  0.5017790000000 1.0
C      1  0.4751280000000  0.5869080000000  0.5727120000000 1.0
C      1  0.4729490000000  0.4365450000000  0.5145810000000 1.0
C      1  0.4140890000000  0.4530820000000  0.5398630000000 1.0
C      1  0.5054670000000  0.4653190000000  0.4836060000000 1.0
C      1  0.4855770000000  0.5705100000000  0.4353030000000 1.0
C      1  0.5414050000000  0.4228180000000  0.5251390000000 1.0
C      1  0.4910650000000  0.5152490000000  0.4904690000000 1.0
C      1  0.5355500000000  0.5762660000000  0.4666000000000 1.0
C      1  0.5430580000000  0.5389470000000  0.4384680000000 1.0
C      1  0.5244900000000  0.5008190000000  0.4063810000000 1.0
C      1  0.5265600000000  0.5698950000000  0.5199120000000 1.0
C      1  0.4535540000000  0.4602000000000  0.5876290000000 1.0
C      1  0.4216760000000  0.4797320000000  0.5489150000000 1.0
C      1  0.5795520000000  0.5175530000000  0.4556980000000 1.0
C      1  0.5300610000000  0.5409540000000  0.5282180000000 1.0
C      1  0.5555090000000  0.5583530000000  0.4551730000000 1.0
C      1  0.4314770000000  0.5527750000000  0.5674720000000 1.0
C      1  0.5725590000000  0.4282770000000  0.4853000000000 1.0
C      1  0.4709860000000  0.5287380000000  0.5060500000000 1.0
C      1  0.4956120000000  0.5463750000000  0.5618050000000 1.0
C      1  0.5202120000000  0.4096260000000  0.5086890000000 1.0
C      1  0.5372720000000  0.4333100000000  0.5515540000000 1.0
C      1  0.5245660000000  0.4716860000000  0.4628790000000 1.0
C      1  0.5903730000000  0.5023940000000  0.5219770000000 1.0
C      1  0.5536700000000  0.5009370000000  0.4115550000000 1.0
C      1  0.5095040000000  0.4044820000000  0.4809400000000 1.0
C      1  0.4635380000000  0.4968820000000  0.4027560000000 1.0
C      1  0.4295330000000  0.4925400000000  0.5232490000000 1.0
C      1  0.4501870000000  0.4421320000000  0.4155320000000 1.0
END
