TITL C-627111-6168-1357 0.00453809630160854 125000 -386.355597801879 0 0 65 (C1) n - 1
REM
REM in /home/nfs/bkarasulu/CARBON/AIRSS/Generating-Clusters/LCBOP/Only-C1/SD-CG/FIRE-CG
REM
REM
REM
REM
REM
REM ./C.cell (11c1c37f851c82e70ff6c80c92926a4b)
REM AIRSS Version 0.9.1 bugfix July 2018 build 013d7b7c2542+ Fri, 06 Jul 2018 19:26:36 +0100
REM compiler GCC version 9.2.1 20190827 (Red Hat 9.2.1-1)
REM options -cpp -mtune=generic -march=x86-64 -g -O0 -fpre-include=/usr/include/finclude/math-vector-fortran.h
REM seed 224123881 -1172283258 -280802856 905664623 751986690 -1198051944 306042182 992789111 -435201610 -1672980333 581617612 -1043258430 143517372 1031547860 885157898 1327268936 1187136650 -30201902 1702629915 494024362 -1004437413 -1390072134 -839078785 1239497381 -870007545 636487875 -892342796 1188319779 954331296 -27776072 -2125427001 696665064 1816795840
REM
CELL 1.54180   50.00000   50.00000   50.00000   90.00000   90.00000   90.00000
LATT -1
SFAC C  
C      1  0.5585420000000  0.5336650000000  0.5339910000000 1.0
C      1  0.4965870000000  0.5693480000000  0.4433810000000 1.0
C      1  0.5485570000000  0.4424310000000  0.5223920000000 1.0
C      1  0.4046170000000  0.5210210000000  0.5011980000000 1.0
C      1  0.4194100000000  0.5270980000000  0.4800880000000 1.0
C      1  0.4811330000000  0.5237410000000  0.5122760000000 1.0
C      1  0.5729920000000  0.4838060000000  0.5060330000000 1.0
C      1  0.4974540000000  0.4505570000000  0.4290230000000 1.0
C      1  0.4763730000000  0.4715960000000  0.4894970000000 1.0
C      1  0.4800050000000  0.5451470000000  0.4414500000000 1.0
C      1  0.4938140000000  0.4949160000000  0.4467850000000 1.0
C      1  0.4804680000000  0.5461950000000  0.5529640000000 1.0
C      1  0.3899970000000  0.5165190000000  0.5228430000000 1.0
C      1  0.5384470000000  0.4432380000000  0.4717050000000 1.0
C      1  0.4993120000000  0.5807860000000  0.5169860000000 1.0
C      1  0.4719330000000  0.4614150000000  0.5580450000000 1.0
C      1  0.5014470000000  0.4710770000000  0.5024700000000 1.0
C      1  0.5618890000000  0.5111830000000  0.4625830000000 1.0
C      1  0.5469940000000  0.4917930000000  0.5072710000000 1.0
C      1  0.4331240000000  0.5367810000000  0.4577210000000 1.0
C      1  0.4402180000000  0.4606780000000  0.5206990000000 1.0
C      1  0.5326280000000  0.5480830000000  0.4643980000000 1.0
C      1  0.5113150000000  0.4726210000000  0.4403930000000 1.0
C      1  0.5604680000000  0.4839310000000  0.4538910000000 1.0
C      1  0.5607150000000  0.5373370000000  0.5054760000000 1.0
C      1  0.5243330000000  0.5315920000000  0.4416620000000 1.0
C      1  0.5794900000000  0.4609810000000  0.4901250000000 1.0
C      1  0.4966410000000  0.4656810000000  0.5706980000000 1.0
C      1  0.4533150000000  0.4748870000000  0.5417840000000 1.0
C      1  0.5058760000000  0.5172430000000  0.5048110000000 1.0
C      1  0.4839170000000  0.5707530000000  0.5388320000000 1.0
C      1  0.5126430000000  0.5690070000000  0.4683570000000 1.0
C      1  0.4975170000000  0.5150690000000  0.5873660000000 1.0
C      1  0.4766500000000  0.4345950000000  0.4348930000000 1.0
C      1  0.4589630000000  0.5475340000000  0.4608610000000 1.0
C      1  0.5829870000000  0.4683870000000  0.4629680000000 1.0
C      1  0.5536810000000  0.5343240000000  0.4779970000000 1.0
C      1  0.5172110000000  0.3941870000000  0.4625990000000 1.0
C      1  0.4545390000000  0.4551190000000  0.4966870000000 1.0
C      1  0.5460680000000  0.5547420000000  0.5487810000000 1.0
C      1  0.4983800000000  0.4883950000000  0.5872150000000 1.0
C      1  0.5362160000000  0.4674100000000  0.4541740000000 1.0
C      1  0.4487380000000  0.4351240000000  0.4776350000000 1.0
C      1  0.4748630000000  0.4882040000000  0.4666760000000 1.0
C      1  0.5244950000000  0.5915980000000  0.5235340000000 1.0
C      1  0.4527590000000  0.5031680000000  0.5440860000000 1.0
C      1  0.5435890000000  0.4579160000000  0.5461570000000 1.0
C      1  0.5446630000000  0.5805340000000  0.5374880000000 1.0
C      1  0.4683990000000  0.5254930000000  0.5372350000000 1.0
C      1  0.5258570000000  0.4190830000000  0.4653590000000 1.0
C      1  0.5563460000000  0.4435770000000  0.4947440000000 1.0
C      1  0.5200790000000  0.4535830000000  0.5610970000000 1.0
C      1  0.5623710000000  0.5087040000000  0.5475690000000 1.0
C      1  0.4213760000000  0.5359300000000  0.4330160000000 1.0
C      1  0.4142620000000  0.4525230000000  0.5237140000000 1.0
C      1  0.4938300000000  0.5725240000000  0.4903980000000 1.0
C      1  0.5267080000000  0.5483150000000  0.5682270000000 1.0
C      1  0.5192760000000  0.4927610000000  0.5052930000000 1.0
C      1  0.4673350000000  0.5632710000000  0.4833700000000 1.0
C      1  0.5006050000000  0.5382750000000  0.5719330000000 1.0
C      1  0.5076850000000  0.3700930000000  0.4597220000000 1.0
C      1  0.4582490000000  0.4284020000000  0.4533960000000 1.0
C      1  0.5574880000000  0.4824050000000  0.5520860000000 1.0
C      1  0.3766540000000  0.5116540000000  0.5447040000000 1.0
C      1  0.4975120000000  0.5219960000000  0.4391900000000 1.0
END
