TITL C-627113-6568-1116 0.0394257171607618 125000 -816.088680785929 0 0 133 (C1) n - 1
REM
REM in /home/nfs/bkarasulu/CARBON/AIRSS/Generating-Clusters/LCBOP/Only-C1/SD-CG/FIRE-CG
REM
REM
REM
REM
REM
REM ./C.cell (11c1c37f851c82e70ff6c80c92926a4b)
REM AIRSS Version 0.9.1 bugfix July 2018 build 013d7b7c2542+ Fri, 06 Jul 2018 19:26:36 +0100
REM compiler GCC version 9.2.1 20190827 (Red Hat 9.2.1-1)
REM options -cpp -mtune=generic -march=x86-64 -g -O0 -fpre-include=/usr/include/finclude/math-vector-fortran.h
REM seed -48949870 -67651656 -655499670 -1321653086 1890402242 1283598601 -592875279 145264158 -2003029434 -558094818 329164204 1796870636 247922215 -1785655861 -692397791 1511575340 874139447 -1917449654 -403947439 -2034209289 2056838287 1345436812 -1056807433 282902610 1415600157 444402173 -282441432 -637729761 -1077665497 909976196 1039582610 -1822112797 -1860042515
REM
CELL 1.54180   50.00000   50.00000   50.00000   90.00000   90.00000   90.00000
LATT -1
SFAC C  
C      1  0.4060030000000  0.6402250000000  0.6155060000000 1.0
C      1  0.4168660000000  0.6225720000000  0.5996940000000 1.0
C      1  0.4729290000000  0.5126610000000  0.5983450000000 1.0
C      1  0.5112390000000  0.5711210000000  0.5445350000000 1.0
C      1  0.4801150000000  0.5674190000000  0.5913890000000 1.0
C      1  0.5567480000000  0.5714260000000  0.4370330000000 1.0
C      1  0.5213580000000  0.4910120000000  0.5485850000000 1.0
C      1  0.5829400000000  0.4753090000000  0.4670900000000 1.0
C      1  0.4741220000000  0.4631700000000  0.4025660000000 1.0
C      1  0.5893670000000  0.4283390000000  0.4543390000000 1.0
C      1  0.4902200000000  0.5208070000000  0.4969840000000 1.0
C      1  0.4025200000000  0.5497800000000  0.5598690000000 1.0
C      1  0.3866810000000  0.5048550000000  0.5458610000000 1.0
C      1  0.4542590000000  0.5272260000000  0.5813800000000 1.0
C      1  0.4084070000000  0.5371460000000  0.5848230000000 1.0
C      1  0.3563160000000  0.4889540000000  0.4561910000000 1.0
C      1  0.5432520000000  0.4049810000000  0.4736980000000 1.0
C      1  0.4582920000000  0.5608030000000  0.4865340000000 1.0
C      1  0.5877520000000  0.5320880000000  0.5721220000000 1.0
C      1  0.5270270000000  0.3966390000000  0.4522980000000 1.0
C      1  0.4427360000000  0.5158250000000  0.4500860000000 1.0
C      1  0.5562230000000  0.4133170000000  0.5645460000000 1.0
C      1  0.4814250000000  0.5088800000000  0.3867890000000 1.0
C      1  0.4386160000000  0.4358540000000  0.4575450000000 1.0
C      1  0.4390140000000  0.5847560000000  0.5671780000000 1.0
C      1  0.4265530000000  0.4919930000000  0.4951570000000 1.0
C      1  0.5302550000000  0.4723660000000  0.5065060000000 1.0
C      1  0.5270420000000  0.5604550000000  0.5219280000000 1.0
C      1  0.5965720000000  0.5587570000000  0.5004350000000 1.0
C      1  0.6399210000000  0.5303600000000  0.4230570000000 1.0
C      1  0.4630660000000  0.5451470000000  0.5316860000000 1.0
C      1  0.5243960000000  0.5135800000000  0.3638120000000 1.0
C      1  0.4427900000000  0.4990350000000  0.4726290000000 1.0
C      1  0.4608580000000  0.5285070000000  0.5540520000000 1.0
C      1  0.4532800000000  0.4873040000000  0.5314430000000 1.0
C      1  0.4065580000000  0.4701320000000  0.4527950000000 1.0
C      1  0.4711130000000  0.4599120000000  0.4298620000000 1.0
C      1  0.5441310000000  0.4224250000000  0.4960510000000 1.0
C      1  0.5432770000000  0.5417350000000  0.5618420000000 1.0
C      1  0.5181860000000  0.4245730000000  0.5086560000000 1.0
C      1  0.5164000000000  0.4681220000000  0.5638320000000 1.0
C      1  0.5063140000000  0.4737230000000  0.5897330000000 1.0
C      1  0.4677940000000  0.4449360000000  0.5728490000000 1.0
C      1  0.5692680000000  0.5133050000000  0.4279270000000 1.0
C      1  0.5201520000000  0.4996230000000  0.5967790000000 1.0
C      1  0.5560030000000  0.4374380000000  0.5546820000000 1.0
C      1  0.5238740000000  0.4567420000000  0.4116200000000 1.0
C      1  0.4621720000000  0.5221760000000  0.4045810000000 1.0
C      1  0.5003640000000  0.5216670000000  0.5984410000000 1.0
C      1  0.4488520000000  0.4167040000000  0.5011010000000 1.0
C      1  0.4318700000000  0.4626010000000  0.4961450000000 1.0
C      1  0.5121860000000  0.5761290000000  0.4743670000000 1.0
C      1  0.3804270000000  0.4793240000000  0.4539630000000 1.0
C      1  0.5494720000000  0.5017130000000  0.5870480000000 1.0
C      1  0.4650200000000  0.5580150000000  0.4591860000000 1.0
C      1  0.4878250000000  0.4307490000000  0.5578670000000 1.0
C      1  0.5080000000000  0.4475230000000  0.5477880000000 1.0
C      1  0.4327230000000  0.4873510000000  0.5874670000000 1.0
C      1  0.5636180000000  0.4800050000000  0.5731610000000 1.0
C      1  0.6914670000000  0.5266970000000  0.4133670000000 1.0
C      1  0.4278510000000  0.6045740000000  0.5836580000000 1.0
C      1  0.5604550000000  0.5270600000000  0.5782840000000 1.0
C      1  0.5796240000000  0.4474070000000  0.4721360000000 1.0
C      1  0.6659070000000  0.5285130000000  0.4181710000000 1.0
C      1  0.5438500000000  0.4875650000000  0.5300190000000 1.0
C      1  0.5169270000000  0.4722880000000  0.3879680000000 1.0
C      1  0.4241680000000  0.4707320000000  0.5638610000000 1.0
C      1  0.4781850000000  0.4130430000000  0.5380060000000 1.0
C      1  0.5070480000000  0.5770890000000  0.4458350000000 1.0
C      1  0.6009630000000  0.5419340000000  0.5506840000000 1.0
C      1  0.4856700000000  0.4726330000000  0.4512230000000 1.0
C      1  0.4567590000000  0.4633750000000  0.5141580000000 1.0
C      1  0.4517460000000  0.4214950000000  0.5297450000000 1.0
C      1  0.4908620000000  0.5211020000000  0.4438540000000 1.0
C      1  0.3858850000000  0.5321870000000  0.5447630000000 1.0
C      1  0.4710350000000  0.5418560000000  0.5046710000000 1.0
C      1  0.5624660000000  0.4656620000000  0.5449410000000 1.0
C      1  0.5204900000000  0.5566900000000  0.5686760000000 1.0
C      1  0.5149150000000  0.4747190000000  0.4555790000000 1.0
C      1  0.4263490000000  0.4759460000000  0.4311480000000 1.0
C      1  0.5678950000000  0.4404680000000  0.4982420000000 1.0
C      1  0.4781980000000  0.4649860000000  0.5916500000000 1.0
C      1  0.5987440000000  0.4117920000000  0.4365190000000 1.0
C      1  0.5099860000000  0.4523220000000  0.5168330000000 1.0
C      1  0.5547460000000  0.5148350000000  0.5214700000000 1.0
C      1  0.5362830000000  0.5114360000000  0.4803810000000 1.0
C      1  0.5792720000000  0.4581230000000  0.5201480000000 1.0
C      1  0.5133890000000  0.4315890000000  0.4213450000000 1.0
C      1  0.4708040000000  0.5512740000000  0.4129940000000 1.0
C      1  0.4676250000000  0.5807730000000  0.5690410000000 1.0
C      1  0.4804950000000  0.5692070000000  0.4366750000000 1.0
C      1  0.5308020000000  0.3724540000000  0.4401370000000 1.0
C      1  0.4197740000000  0.4517680000000  0.4725470000000 1.0
C      1  0.5837900000000  0.4947720000000  0.4879270000000 1.0
C      1  0.5158700000000  0.5302630000000  0.4876980000000 1.0
C      1  0.4999340000000  0.5236420000000  0.3706940000000 1.0
C      1  0.4696590000000  0.4866190000000  0.4709110000000 1.0
C      1  0.4867220000000  0.5851150000000  0.5479320000000 1.0
C      1  0.5330660000000  0.4888490000000  0.3715580000000 1.0
C      1  0.4849050000000  0.4925460000000  0.4942430000000 1.0
C      1  0.5946520000000  0.4807340000000  0.5107610000000 1.0
C      1  0.6024680000000  0.5515900000000  0.5256380000000 1.0
C      1  0.6139910000000  0.5321900000000  0.4281330000000 1.0
C      1  0.4818830000000  0.4143590000000  0.4595270000000 1.0
C      1  0.5273650000000  0.4839080000000  0.4799330000000 1.0
C      1  0.5203080000000  0.5577800000000  0.4943620000000 1.0
C      1  0.5869950000000  0.5614540000000  0.4755050000000 1.0
C      1  0.4894860000000  0.4812590000000  0.3889180000000 1.0
C      1  0.4604480000000  0.4858150000000  0.5986680000000 1.0
C      1  0.4365610000000  0.5744780000000  0.4985400000000 1.0
C      1  0.4713710000000  0.5038280000000  0.5444650000000 1.0
C      1  0.5869960000000  0.5338220000000  0.4350090000000 1.0
C      1  0.5311410000000  0.5772070000000  0.4312240000000 1.0
C      1  0.4388160000000  0.5032480000000  0.4244700000000 1.0
C      1  0.5061290000000  0.4143980000000  0.4435510000000 1.0
C      1  0.4227850000000  0.5755680000000  0.5217340000000 1.0
C      1  0.5027000000000  0.5494770000000  0.5896720000000 1.0
C      1  0.5772550000000  0.5565090000000  0.4493960000000 1.0
C      1  0.4271560000000  0.4972330000000  0.5233460000000 1.0
C      1  0.4567550000000  0.4198260000000  0.4728120000000 1.0
C      1  0.5622890000000  0.5129670000000  0.4934330000000 1.0
C      1  0.4092870000000  0.4878520000000  0.5438500000000 1.0
C      1  0.4662190000000  0.5307890000000  0.4516190000000 1.0
C      1  0.4988150000000  0.5050040000000  0.5424410000000 1.0
C      1  0.4204650000000  0.5703820000000  0.5496590000000 1.0
C      1  0.4447310000000  0.4530120000000  0.4352580000000 1.0
C      1  0.4846030000000  0.4659150000000  0.5076220000000 1.0
C      1  0.5523640000000  0.4928280000000  0.4284300000000 1.0
C      1  0.5322180000000  0.4739340000000  0.4328190000000 1.0
C      1  0.4276620000000  0.5170730000000  0.5872490000000 1.0
C      1  0.5453790000000  0.5394510000000  0.5330350000000 1.0
C      1  0.4424680000000  0.4457620000000  0.5568430000000 1.0
C      1  0.4988980000000  0.4056600000000  0.5189510000000 1.0
END
