TITL C-627111-6168-1839 4.4151676525446e-08 125000 -1023.53103375988 0 0 169 (C1) n - 1
REM
REM in /home/nfs/bkarasulu/CARBON/AIRSS/Generating-Clusters/LCBOP/Only-C1/SD-CG/FIRE-CG
REM
REM
REM
REM
REM
REM ./C.cell (11c1c37f851c82e70ff6c80c92926a4b)
REM AIRSS Version 0.9.1 bugfix July 2018 build 013d7b7c2542+ Fri, 06 Jul 2018 19:26:36 +0100
REM compiler GCC version 9.2.1 20190827 (Red Hat 9.2.1-1)
REM options -cpp -mtune=generic -march=x86-64 -g -O0 -fpre-include=/usr/include/finclude/math-vector-fortran.h
REM seed -104611490 -1010127059 267343936 608108946 196562335 330940433 -1473228483 963333237 -1540254047 772282214 1370251356 -67185344 -760337743 -665304326 1619535534 1788091235 -944756003 1548103867 1286642011 -697290029 1384890406 363558636 -435420222 796776380 1686684998 1552413930 601633467 920484763 123021423 1724577170 -2144272911 768800575 266060413
REM
CELL 1.54180   50.00000   50.00000   50.00000   90.00000   90.00000   90.00000
LATT -1
SFAC C  
C      1  0.4055350000000  0.5254790000000  0.4218210000000 1.0
C      1  0.5563230000000  0.4547460000000  0.4785810000000 1.0
C      1  0.4238470000000  0.4445260000000  0.4751690000000 1.0
C      1  0.6127110000000  0.4363670000000  0.5319170000000 1.0
C      1  0.3772690000000  0.5466610000000  0.4581520000000 1.0
C      1  0.4854960000000  0.5816660000000  0.4361440000000 1.0
C      1  0.5203120000000  0.4121120000000  0.4108520000000 1.0
C      1  0.5795040000000  0.4885990000000  0.4219220000000 1.0
C      1  0.5563700000000  0.4715120000000  0.4159200000000 1.0
C      1  0.5733960000000  0.4678970000000  0.5851370000000 1.0
C      1  0.4959650000000  0.4552300000000  0.6149170000000 1.0
C      1  0.5127040000000  0.5104190000000  0.5130030000000 1.0
C      1  0.6295620000000  0.5126950000000  0.4996330000000 1.0
C      1  0.4417780000000  0.5851470000000  0.5482900000000 1.0
C      1  0.5419040000000  0.4780190000000  0.4749190000000 1.0
C      1  0.4612310000000  0.3934270000000  0.4839270000000 1.0
C      1  0.4354010000000  0.5217380000000  0.5564340000000 1.0
C      1  0.6134940000000  0.4885990000000  0.5037500000000 1.0
C      1  0.5578130000000  0.4113500000000  0.4969240000000 1.0
C      1  0.4592800000000  0.4298770000000  0.5500120000000 1.0
C      1  0.5969440000000  0.4158010000000  0.5417660000000 1.0
C      1  0.4431720000000  0.5239440000000  0.3858210000000 1.0
C      1  0.3537500000000  0.5507870000000  0.4685970000000 1.0
C      1  0.3692210000000  0.4893530000000  0.5472810000000 1.0
C      1  0.6116170000000  0.5519620000000  0.4766220000000 1.0
C      1  0.5483330000000  0.5034510000000  0.4849010000000 1.0
C      1  0.4874480000000  0.4309730000000  0.4929140000000 1.0
C      1  0.4250270000000  0.5599220000000  0.4471330000000 1.0
C      1  0.5097380000000  0.3888130000000  0.4727190000000 1.0
C      1  0.5078240000000  0.3777360000000  0.5367820000000 1.0
C      1  0.4500370000000  0.5396890000000  0.4848370000000 1.0
C      1  0.5050230000000  0.6236610000000  0.4917960000000 1.0
C      1  0.4635660000000  0.4696820000000  0.6477250000000 1.0
C      1  0.5657050000000  0.5665190000000  0.4926430000000 1.0
C      1  0.4744460000000  0.4963750000000  0.4904080000000 1.0
C      1  0.4775630000000  0.4324280000000  0.4095190000000 1.0
C      1  0.3927190000000  0.4524230000000  0.5237900000000 1.0
C      1  0.5727520000000  0.4466930000000  0.4567720000000 1.0
C      1  0.4983440000000  0.4680190000000  0.5256300000000 1.0
C      1  0.5471480000000  0.5844050000000  0.5782590000000 1.0
C      1  0.4329490000000  0.4323510000000  0.4993140000000 1.0
C      1  0.5396740000000  0.5532630000000  0.6134180000000 1.0
C      1  0.4084650000000  0.4946510000000  0.4261250000000 1.0
C      1  0.4961930000000  0.5144780000000  0.3813510000000 1.0
C      1  0.6507760000000  0.5211170000000  0.5151980000000 1.0
C      1  0.5045690000000  0.4317530000000  0.3966150000000 1.0
C      1  0.4134820000000  0.4854620000000  0.3975890000000 1.0
C      1  0.3942790000000  0.4771910000000  0.4471420000000 1.0
C      1  0.4846520000000  0.5759960000000  0.5249510000000 1.0
C      1  0.5037430000000  0.5781370000000  0.5044380000000 1.0
C      1  0.5494990000000  0.4792540000000  0.5801650000000 1.0
C      1  0.4710090000000  0.4523760000000  0.5671350000000 1.0
C      1  0.5599230000000  0.5606650000000  0.5914450000000 1.0
C      1  0.5070430000000  0.4453960000000  0.3725150000000 1.0
C      1  0.5425740000000  0.5783400000000  0.4802940000000 1.0
C      1  0.4307980000000  0.4984610000000  0.3804920000000 1.0
C      1  0.5620570000000  0.5565490000000  0.4338140000000 1.0
C      1  0.5347270000000  0.4920830000000  0.4101540000000 1.0
C      1  0.4607140000000  0.5154430000000  0.4746310000000 1.0
C      1  0.4191800000000  0.4468970000000  0.5704350000000 1.0
C      1  0.5744380000000  0.5354000000000  0.5853820000000 1.0
C      1  0.5140480000000  0.5848130000000  0.4308150000000 1.0
C      1  0.5549910000000  0.5006470000000  0.5348470000000 1.0
C      1  0.5018560000000  0.5328550000000  0.5249220000000 1.0
C      1  0.4345560000000  0.4834330000000  0.5089500000000 1.0
C      1  0.5448500000000  0.6016660000000  0.4630020000000 1.0
C      1  0.4945570000000  0.4896240000000  0.5085120000000 1.0
C      1  0.5154540000000  0.6047650000000  0.5101800000000 1.0
C      1  0.5187580000000  0.4442860000000  0.6254270000000 1.0
C      1  0.4699040000000  0.5832820000000  0.5460630000000 1.0
C      1  0.5561670000000  0.4442180000000  0.4319890000000 1.0
C      1  0.4854990000000  0.4455620000000  0.5906280000000 1.0
C      1  0.4649450000000  0.5241870000000  0.5511870000000 1.0
C      1  0.4875340000000  0.3827940000000  0.4916060000000 1.0
C      1  0.4986160000000  0.5482120000000  0.5917930000000 1.0
C      1  0.4352170000000  0.4916950000000  0.5637540000000 1.0
C      1  0.4356170000000  0.5611110000000  0.4202730000000 1.0
C      1  0.5044680000000  0.5285150000000  0.5715960000000 1.0
C      1  0.3971910000000  0.5094800000000  0.4969470000000 1.0
C      1  0.4128840000000  0.4736460000000  0.5631860000000 1.0
C      1  0.5280530000000  0.4365160000000  0.5529440000000 1.0
C      1  0.6051910000000  0.4617200000000  0.5441530000000 1.0
C      1  0.4827710000000  0.5074170000000  0.5663760000000 1.0
C      1  0.4681850000000  0.4098110000000  0.5298750000000 1.0
C      1  0.5207610000000  0.6070310000000  0.4493110000000 1.0
C      1  0.5451710000000  0.5250340000000  0.4663880000000 1.0
C      1  0.5989970000000  0.4563640000000  0.4621970000000 1.0
C      1  0.5647640000000  0.5169100000000  0.6063850000000 1.0
C      1  0.4574130000000  0.5086450000000  0.4480570000000 1.0
C      1  0.5405670000000  0.5066160000000  0.5114630000000 1.0
C      1  0.4302650000000  0.5689580000000  0.5689250000000 1.0
C      1  0.5243360000000  0.5104020000000  0.3895010000000 1.0
C      1  0.6057430000000  0.4803000000000  0.4760270000000 1.0
C      1  0.4597710000000  0.4191000000000  0.5009590000000 1.0
C      1  0.5799560000000  0.5753200000000  0.4475650000000 1.0
C      1  0.5403190000000  0.5250010000000  0.6197000000000 1.0
C      1  0.5176120000000  0.5376120000000  0.4642740000000 1.0
C      1  0.6015140000000  0.4858560000000  0.5296700000000 1.0
C      1  0.5411000000000  0.4905140000000  0.5573120000000 1.0
C      1  0.5158210000000  0.5120690000000  0.6256870000000 1.0
C      1  0.4736090000000  0.5349010000000  0.5269130000000 1.0
C      1  0.5235360000000  0.5903990000000  0.5941780000000 1.0
C      1  0.5230120000000  0.4977820000000  0.4356420000000 1.0
C      1  0.4684960000000  0.4577800000000  0.4174520000000 1.0
C      1  0.4660400000000  0.5210020000000  0.6170320000000 1.0
C      1  0.5323380000000  0.6047510000000  0.5331190000000 1.0
C      1  0.4938910000000  0.4681540000000  0.3671870000000 1.0
C      1  0.5368820000000  0.4199550000000  0.4332360000000 1.0
C      1  0.5045770000000  0.5191170000000  0.4423090000000 1.0
C      1  0.4405960000000  0.5999280000000  0.4987610000000 1.0
C      1  0.4859980000000  0.4878850000000  0.3853100000000 1.0
C      1  0.4464180000000  0.5339340000000  0.6032440000000 1.0
C      1  0.4329270000000  0.5420280000000  0.5790340000000 1.0
C      1  0.3729530000000  0.4512620000000  0.5033250000000 1.0
C      1  0.4745640000000  0.4048670000000  0.4179190000000 1.0
C      1  0.5334930000000  0.3848150000000  0.5279500000000 1.0
C      1  0.5555250000000  0.3700770000000  0.5344060000000 1.0
C      1  0.5694430000000  0.6017180000000  0.4489720000000 1.0
C      1  0.4256620000000  0.5325160000000  0.5292800000000 1.0
C      1  0.4824620000000  0.4762290000000  0.6289170000000 1.0
C      1  0.5340300000000  0.4073850000000  0.5100060000000 1.0
C      1  0.3911940000000  0.4733680000000  0.5442360000000 1.0
C      1  0.5878570000000  0.5659480000000  0.4740820000000 1.0
C      1  0.6700330000000  0.5291470000000  0.5308120000000 1.0
C      1  0.4123470000000  0.4697860000000  0.4692120000000 1.0
C      1  0.3682140000000  0.4690340000000  0.4550420000000 1.0
C      1  0.5599010000000  0.5547890000000  0.5179170000000 1.0
C      1  0.5364110000000  0.5675240000000  0.4241720000000 1.0
C      1  0.4304080000000  0.4320890000000  0.5491170000000 1.0
C      1  0.4713610000000  0.5299670000000  0.3801730000000 1.0
C      1  0.4880290000000  0.4428280000000  0.4681310000000 1.0
C      1  0.5170570000000  0.5631000000000  0.4823280000000 1.0
C      1  0.4012740000000  0.5277980000000  0.5163310000000 1.0
C      1  0.5228430000000  0.4773750000000  0.4545800000000 1.0
C      1  0.4422100000000  0.5622960000000  0.4692560000000 1.0
C      1  0.3624520000000  0.4580120000000  0.4793390000000 1.0
C      1  0.5639060000000  0.5298980000000  0.4449010000000 1.0
C      1  0.4749380000000  0.5973720000000  0.4593140000000 1.0
C      1  0.4648260000000  0.4817090000000  0.5667920000000 1.0
C      1  0.4489660000000  0.5399040000000  0.5128330000000 1.0
C      1  0.5843650000000  0.5097300000000  0.4405410000000 1.0
C      1  0.5272760000000  0.4040210000000  0.4570120000000 1.0
C      1  0.5780150000000  0.4260150000000  0.5610420000000 1.0
C      1  0.4856470000000  0.3864780000000  0.5222530000000 1.0
C      1  0.4776390000000  0.4842390000000  0.4123190000000 1.0
C      1  0.4798190000000  0.5070370000000  0.4316050000000 1.0
C      1  0.5828570000000  0.5056470000000  0.5402900000000 1.0
C      1  0.5421130000000  0.5842820000000  0.5505020000000 1.0
C      1  0.4993690000000  0.3920700000000  0.4169730000000 1.0
C      1  0.4356230000000  0.4950770000000  0.4387840000000 1.0
C      1  0.4883210000000  0.5039410000000  0.6240040000000 1.0
C      1  0.4172550000000  0.4360480000000  0.5234610000000 1.0
C      1  0.4311920000000  0.5963430000000  0.5241470000000 1.0
C      1  0.4146410000000  0.4883620000000  0.4906450000000 1.0
C      1  0.6189860000000  0.5252720000000  0.4760720000000 1.0
C      1  0.4527420000000  0.5884240000000  0.4755430000000 1.0
C      1  0.5884590000000  0.4530450000000  0.5669000000000 1.0
C      1  0.6043510000000  0.5056450000000  0.4605450000000 1.0
C      1  0.5030770000000  0.4585440000000  0.4536970000000 1.0
C      1  0.5128070000000  0.4448450000000  0.5309710000000 1.0
C      1  0.5117940000000  0.4264920000000  0.5091610000000 1.0
C      1  0.5144760000000  0.5660820000000  0.6066110000000 1.0
C      1  0.4977910000000  0.6151410000000  0.4655910000000 1.0
C      1  0.5411480000000  0.5576320000000  0.5396060000000 1.0
C      1  0.5180440000000  0.5408050000000  0.5474600000000 1.0
C      1  0.4011870000000  0.5432530000000  0.4446860000000 1.0
C      1  0.5501140000000  0.4241730000000  0.5619360000000 1.0
C      1  0.5865890000000  0.5244670000000  0.5619230000000 1.0
C      1  0.4271850000000  0.5385110000000  0.4045790000000 1.0
END
