TITL C-627107-135-1576 -4.29112567474115 125000 -1031.88319180856 0 0 169 (C1) n - 1
REM
REM in /home/nfs/bkarasulu/CARBON/AIRSS/Generating-Clusters/LCBOP/Only-C1/SD-CG/FIRE-CG
REM
REM
REM
REM
REM
REM ./C.cell (11c1c37f851c82e70ff6c80c92926a4b)
REM AIRSS Version 0.9.1 bugfix July 2018 build 013d7b7c2542+ Fri, 06 Jul 2018 19:26:36 +0100
REM compiler GCC version 9.2.1 20190827 (Red Hat 9.2.1-1)
REM options -cpp -mtune=generic -march=x86-64 -g -O0 -fpre-include=/usr/include/finclude/math-vector-fortran.h
REM seed 900618175 2120378506 1180442715 -295436907 517160409 -467121808 -482534396 2108059328 -1094947622 -381830600 -1264032551 2024461058 1883824813 -1260548595 2084442886 -1440338794 -371123236 -1320365880 -76086213 2145882140 605938112 948715310 -563348646 -466235393 -2050910895 302338166 1815954360 1218133766 1703740548 1029458780 1759264595 1560383819 -91757381
REM
CELL 1.54180   50.00000   50.00000   50.00000   90.00000   90.00000   90.00000
LATT -1
SFAC C  
C      1  0.4581310000000  0.3838640000000  0.4757460000000 1.0
C      1  0.5997960000000  0.5437590000000  0.5212780000000 1.0
C      1  0.5727020000000  0.4382950000000  0.4088600000000 1.0
C      1  0.4097490000000  0.5363730000000  0.6146170000000 1.0
C      1  0.5799930000000  0.5376590000000  0.4665570000000 1.0
C      1  0.5925430000000  0.4266540000000  0.5181060000000 1.0
C      1  0.4620810000000  0.5131000000000  0.4041080000000 1.0
C      1  0.4736660000000  0.3749070000000  0.4193700000000 1.0
C      1  0.5329180000000  0.5413240000000  0.4548880000000 1.0
C      1  0.5627860000000  0.5078010000000  0.5490480000000 1.0
C      1  0.3940400000000  0.5643530000000  0.5434750000000 1.0
C      1  0.5438540000000  0.4399700000000  0.6090350000000 1.0
C      1  0.4599010000000  0.4409440000000  0.4939390000000 1.0
C      1  0.5682200000000  0.4135760000000  0.4220550000000 1.0
C      1  0.5503500000000  0.4486680000000  0.3947470000000 1.0
C      1  0.4211080000000  0.5467920000000  0.5923560000000 1.0
C      1  0.6048820000000  0.5944360000000  0.4632810000000 1.0
C      1  0.5969390000000  0.4901530000000  0.4705680000000 1.0
C      1  0.4653900000000  0.6318220000000  0.5540120000000 1.0
C      1  0.4236190000000  0.4618610000000  0.4451350000000 1.0
C      1  0.4262090000000  0.3805560000000  0.4372040000000 1.0
C      1  0.5258920000000  0.5206740000000  0.4366760000000 1.0
C      1  0.5026880000000  0.4825080000000  0.5251580000000 1.0
C      1  0.5156650000000  0.4315870000000  0.5189950000000 1.0
C      1  0.4868440000000  0.5350880000000  0.4577850000000 1.0
C      1  0.5001460000000  0.4112180000000  0.4778980000000 1.0
C      1  0.4306320000000  0.4743500000000  0.5403660000000 1.0
C      1  0.5077200000000  0.5545230000000  0.4604330000000 1.0
C      1  0.5619890000000  0.4583300000000  0.5940020000000 1.0
C      1  0.5671940000000  0.4209570000000  0.5071850000000 1.0
C      1  0.4975020000000  0.4802590000000  0.4426940000000 1.0
C      1  0.4380090000000  0.5531520000000  0.5289860000000 1.0
C      1  0.4553820000000  0.3727940000000  0.5016000000000 1.0
C      1  0.4529610000000  0.6112730000000  0.4707940000000 1.0
C      1  0.6032360000000  0.5738570000000  0.4461680000000 1.0
C      1  0.6094250000000  0.4430560000000  0.5014560000000 1.0
C      1  0.5336050000000  0.4956310000000  0.4712010000000 1.0
C      1  0.5863010000000  0.4948140000000  0.5445450000000 1.0
C      1  0.5394240000000  0.5183350000000  0.4114130000000 1.0
C      1  0.5627970000000  0.4760140000000  0.5008940000000 1.0
C      1  0.4604730000000  0.5400180000000  0.4666170000000 1.0
C      1  0.4567840000000  0.5124000000000  0.5859830000000 1.0
C      1  0.5409390000000  0.4326840000000  0.4582560000000 1.0
C      1  0.4244390000000  0.5736630000000  0.4773240000000 1.0
C      1  0.4461300000000  0.4983380000000  0.4223100000000 1.0
C      1  0.5323540000000  0.4191650000000  0.5923840000000 1.0
C      1  0.4658330000000  0.5867120000000  0.4237910000000 1.0
C      1  0.4264560000000  0.3489350000000  0.5658890000000 1.0
C      1  0.4028920000000  0.5639400000000  0.4620410000000 1.0
C      1  0.5252260000000  0.4993050000000  0.5201750000000 1.0
C      1  0.5545570000000  0.6200450000000  0.5116550000000 1.0
C      1  0.4022740000000  0.5503110000000  0.4371640000000 1.0
C      1  0.4902100000000  0.3817020000000  0.4394500000000 1.0
C      1  0.4225240000000  0.4239720000000  0.5214290000000 1.0
C      1  0.5564340000000  0.4571020000000  0.4588980000000 1.0
C      1  0.4755310000000  0.6002780000000  0.5178420000000 1.0
C      1  0.4980180000000  0.5473830000000  0.3948960000000 1.0
C      1  0.4017340000000  0.5209930000000  0.4396720000000 1.0
C      1  0.4906580000000  0.5287760000000  0.5546860000000 1.0
C      1  0.4474980000000  0.4772280000000  0.4433240000000 1.0
C      1  0.5551350000000  0.4598780000000  0.5669590000000 1.0
C      1  0.4691460000000  0.5168800000000  0.5364140000000 1.0
C      1  0.5816740000000  0.6179570000000  0.5039130000000 1.0
C      1  0.4814260000000  0.5715680000000  0.5202150000000 1.0
C      1  0.4913910000000  0.3805050000000  0.5649620000000 1.0
C      1  0.4493180000000  0.4107940000000  0.5318280000000 1.0
C      1  0.4578740000000  0.5591430000000  0.5099550000000 1.0
C      1  0.5341780000000  0.4571940000000  0.6306410000000 1.0
C      1  0.6226070000000  0.4817720000000  0.4809710000000 1.0
C      1  0.4433740000000  0.5191070000000  0.4616260000000 1.0
C      1  0.5399990000000  0.4920180000000  0.4980060000000 1.0
C      1  0.5981110000000  0.6087970000000  0.4848150000000 1.0
C      1  0.4676040000000  0.4867700000000  0.4917050000000 1.0
C      1  0.6049220000000  0.4939960000000  0.5229700000000 1.0
C      1  0.4168550000000  0.3343340000000  0.5852340000000 1.0
C      1  0.5529640000000  0.6445460000000  0.5536010000000 1.0
C      1  0.5289900000000  0.6025820000000  0.5511720000000 1.0
C      1  0.4164090000000  0.4094990000000  0.4759670000000 1.0
C      1  0.4198930000000  0.5734020000000  0.5373210000000 1.0
C      1  0.5124980000000  0.4563280000000  0.5334950000000 1.0
C      1  0.4958430000000  0.4163310000000  0.5061140000000 1.0
C      1  0.5008580000000  0.4982390000000  0.5982370000000 1.0
C      1  0.4364800000000  0.3639860000000  0.5465290000000 1.0
C      1  0.5116600000000  0.5819530000000  0.4636870000000 1.0
C      1  0.5042000000000  0.5559050000000  0.5419200000000 1.0
C      1  0.5817320000000  0.4856400000000  0.4164170000000 1.0
C      1  0.5601780000000  0.6655970000000  0.5671640000000 1.0
C      1  0.4410050000000  0.4689920000000  0.5653090000000 1.0
C      1  0.5684470000000  0.5116750000000  0.4128880000000 1.0
C      1  0.5036860000000  0.4218250000000  0.5869970000000 1.0
C      1  0.5935370000000  0.4177930000000  0.5451610000000 1.0
C      1  0.4011310000000  0.4704600000000  0.4611980000000 1.0
C      1  0.4236340000000  0.5595820000000  0.4185620000000 1.0
C      1  0.5928640000000  0.5169490000000  0.4805390000000 1.0
C      1  0.4104990000000  0.4294780000000  0.4954360000000 1.0
C      1  0.5122530000000  0.4337300000000  0.4638570000000 1.0
C      1  0.4857840000000  0.5149050000000  0.5810100000000 1.0
C      1  0.5320840000000  0.4587870000000  0.5537000000000 1.0
C      1  0.4452130000000  0.5319760000000  0.5455520000000 1.0
C      1  0.5756970000000  0.4704660000000  0.4761450000000 1.0
C      1  0.5288390000000  0.4619660000000  0.4041190000000 1.0
C      1  0.5416710000000  0.4224500000000  0.5140920000000 1.0
C      1  0.5047500000000  0.5753350000000  0.3967120000000 1.0
C      1  0.5648480000000  0.4824600000000  0.6093530000000 1.0
C      1  0.4772340000000  0.4954240000000  0.5179540000000 1.0
C      1  0.5138360000000  0.5809980000000  0.5567520000000 1.0
C      1  0.5200980000000  0.5877530000000  0.3778580000000 1.0
C      1  0.5219800000000  0.4736550000000  0.4284160000000 1.0
C      1  0.4112480000000  0.4938580000000  0.5941830000000 1.0
C      1  0.5541400000000  0.5476260000000  0.4721130000000 1.0
C      1  0.5471870000000  0.5666220000000  0.4924310000000 1.0
C      1  0.4840830000000  0.3913670000000  0.4651870000000 1.0
C      1  0.5363480000000  0.6154540000000  0.4904040000000 1.0
C      1  0.4488660000000  0.5591180000000  0.4834040000000 1.0
C      1  0.4570400000000  0.6052720000000  0.4433710000000 1.0
C      1  0.5519690000000  0.4059970000000  0.5762720000000 1.0
C      1  0.4577940000000  0.6109020000000  0.5381560000000 1.0
C      1  0.4277060000000  0.6016360000000  0.4794530000000 1.0
C      1  0.4915650000000  0.4716200000000  0.5994520000000 1.0
C      1  0.6171360000000  0.4710870000000  0.5079930000000 1.0
C      1  0.5852340000000  0.5340990000000  0.4193590000000 1.0
C      1  0.4468320000000  0.3748040000000  0.4189080000000 1.0
C      1  0.5756150000000  0.4080610000000  0.5631640000000 1.0
C      1  0.4447410000000  0.5386500000000  0.5759630000000 1.0
C      1  0.4519310000000  0.4934520000000  0.4690540000000 1.0
C      1  0.5518750000000  0.5598570000000  0.5193500000000 1.0
C      1  0.4855160000000  0.4068480000000  0.5701380000000 1.0
C      1  0.4506710000000  0.4430470000000  0.5698380000000 1.0
C      1  0.4764000000000  0.4607740000000  0.4839140000000 1.0
C      1  0.4523270000000  0.5626690000000  0.4135950000000 1.0
C      1  0.5216380000000  0.5036200000000  0.6165870000000 1.0
C      1  0.3904450000000  0.4970750000000  0.4528940000000 1.0
C      1  0.4294350000000  0.5163640000000  0.4369180000000 1.0
C      1  0.4073150000000  0.5094970000000  0.6175240000000 1.0
C      1  0.4636640000000  0.5624790000000  0.5813480000000 1.0
C      1  0.4611400000000  0.4189360000000  0.5591420000000 1.0
C      1  0.5319470000000  0.5446360000000  0.5329700000000 1.0
C      1  0.5527940000000  0.4112090000000  0.4441960000000 1.0
C      1  0.4690110000000  0.4218020000000  0.5119410000000 1.0
C      1  0.5384170000000  0.5172000000000  0.5375690000000 1.0
C      1  0.6027520000000  0.5193180000000  0.5076450000000 1.0
C      1  0.4948210000000  0.4579320000000  0.4624310000000 1.0
C      1  0.3910590000000  0.4974590000000  0.5744610000000 1.0
C      1  0.5413010000000  0.4856560000000  0.6261170000000 1.0
C      1  0.5305120000000  0.5883160000000  0.4843640000000 1.0
C      1  0.4472990000000  0.3810870000000  0.5274320000000 1.0
C      1  0.6098240000000  0.4381400000000  0.4715620000000 1.0
C      1  0.4984140000000  0.5102570000000  0.4446810000000 1.0
C      1  0.3802210000000  0.5169580000000  0.5595040000000 1.0
C      1  0.4724810000000  0.6119400000000  0.4916790000000 1.0
C      1  0.4322110000000  0.5985950000000  0.5408760000000 1.0
C      1  0.5086130000000  0.5995110000000  0.4411510000000 1.0
C      1  0.4940230000000  0.5891940000000  0.4189660000000 1.0
C      1  0.4384080000000  0.4897200000000  0.5848840000000 1.0
C      1  0.4000810000000  0.3754780000000  0.4309880000000 1.0
C      1  0.4335630000000  0.3915030000000  0.4625830000000 1.0
C      1  0.5454460000000  0.6220450000000  0.5387320000000 1.0
C      1  0.3806960000000  0.5419880000000  0.5499740000000 1.0
C      1  0.5206290000000  0.5293370000000  0.3922750000000 1.0
C      1  0.3987690000000  0.4538630000000  0.4848300000000 1.0
C      1  0.4702130000000  0.5408150000000  0.4023670000000 1.0
C      1  0.5917420000000  0.5484610000000  0.4427580000000 1.0
C      1  0.6048400000000  0.4468980000000  0.4455140000000 1.0
C      1  0.4924810000000  0.4452210000000  0.5980390000000 1.0
C      1  0.5787890000000  0.5592320000000  0.5276790000000 1.0
C      1  0.5290380000000  0.6334930000000  0.4697790000000 1.0
C      1  0.5894170000000  0.4578460000000  0.4225910000000 1.0
C      1  0.5177530000000  0.6258180000000  0.4462160000000 1.0
C      1  0.5409140000000  0.4786600000000  0.4492690000000 1.0
END
