TITL C-627108-131-1379 -1.44695492516451e-06 125000 -539.285971831792 0 0 89 (C1) n - 1
REM
REM in /home/nfs/bkarasulu/CARBON/AIRSS/Generating-Clusters/LCBOP/Only-C1/SD-CG/FIRE-CG
REM
REM
REM
REM
REM
REM ./C.cell (11c1c37f851c82e70ff6c80c92926a4b)
REM AIRSS Version 0.9.1 bugfix July 2018 build 013d7b7c2542+ Fri, 06 Jul 2018 19:26:36 +0100
REM compiler GCC version 9.2.1 20190827 (Red Hat 9.2.1-1)
REM options -cpp -mtune=generic -march=x86-64 -g -O0 -fpre-include=/usr/include/finclude/math-vector-fortran.h
REM seed -265068851 395920709 -1657601600 -1902492921 -474215993 -632318504 543072029 -1132066686 307601466 1364173034 1270264848 528274801 342843323 -783533913 -699600481 270916126 1653051880 -106095201 1839266861 1251754254 818582614 -95432630 -1702306887 289424121 1029375215 580007478 -1641875340 -1524702062 -887717273 1759980439 -1915026286 1377908193 -1305552788
REM
CELL 1.54180   50.00000   50.00000   50.00000   90.00000   90.00000   90.00000
LATT -1
SFAC C  
C      1  0.5701300000000  0.5705650000000  0.4436540000000 1.0
C      1  0.5190430000000  0.4557660000000  0.5509400000000 1.0
C      1  0.4572430000000  0.5475830000000  0.5716300000000 1.0
C      1  0.5217480000000  0.5698280000000  0.4563200000000 1.0
C      1  0.5241050000000  0.5846580000000  0.5202030000000 1.0
C      1  0.5359700000000  0.4314380000000  0.4510430000000 1.0
C      1  0.4757750000000  0.5389540000000  0.5898770000000 1.0
C      1  0.5522640000000  0.3888520000000  0.5306650000000 1.0
C      1  0.5854740000000  0.5715390000000  0.4873650000000 1.0
C      1  0.5135700000000  0.4874710000000  0.4917890000000 1.0
C      1  0.4938810000000  0.5596370000000  0.5458930000000 1.0
C      1  0.5093010000000  0.5260950000000  0.4662900000000 1.0
C      1  0.5685810000000  0.4087930000000  0.4858690000000 1.0
C      1  0.3818070000000  0.4598970000000  0.4292780000000 1.0
C      1  0.4570880000000  0.4929620000000  0.3977890000000 1.0
C      1  0.4961350000000  0.4730020000000  0.4739410000000 1.0
C      1  0.5425370000000  0.5112430000000  0.5703110000000 1.0
C      1  0.5031670000000  0.5159980000000  0.4951730000000 1.0
C      1  0.5656720000000  0.4799870000000  0.4862630000000 1.0
C      1  0.5951990000000  0.5204160000000  0.5363950000000 1.0
C      1  0.6016830000000  0.5162250000000  0.4803950000000 1.0
C      1  0.5153930000000  0.5367060000000  0.5135680000000 1.0
C      1  0.3755390000000  0.4817930000000  0.5220880000000 1.0
C      1  0.6027260000000  0.5350120000000  0.4592160000000 1.0
C      1  0.4880170000000  0.4933900000000  0.5847610000000 1.0
C      1  0.4256340000000  0.4564070000000  0.5524960000000 1.0
C      1  0.4462120000000  0.4372160000000  0.5536510000000 1.0
C      1  0.4798470000000  0.5062250000000  0.3902070000000 1.0
C      1  0.5386690000000  0.4469480000000  0.4280820000000 1.0
C      1  0.4937060000000  0.4450800000000  0.4747190000000 1.0
C      1  0.3794680000000  0.4644110000000  0.5418360000000 1.0
C      1  0.5039330000000  0.5738060000000  0.4786250000000 1.0
C      1  0.5068590000000  0.5851880000000  0.5429710000000 1.0
C      1  0.5294590000000  0.3877130000000  0.5443650000000 1.0
C      1  0.4792670000000  0.4097800000000  0.5075720000000 1.0
C      1  0.4902780000000  0.3901800000000  0.4902170000000 1.0
C      1  0.5470190000000  0.5965860000000  0.5089930000000 1.0
C      1  0.3906320000000  0.4322570000000  0.5760680000000 1.0
C      1  0.4909260000000  0.4565790000000  0.5531910000000 1.0
C      1  0.4643610000000  0.5194580000000  0.5302400000000 1.0
C      1  0.5171920000000  0.5435800000000  0.4452180000000 1.0
C      1  0.4526830000000  0.5682180000000  0.5235550000000 1.0
C      1  0.4648450000000  0.5486850000000  0.5425740000000 1.0
C      1  0.5950600000000  0.5574140000000  0.5096290000000 1.0
C      1  0.5582630000000  0.4212940000000  0.4647590000000 1.0
C      1  0.4837830000000  0.4110600000000  0.5355420000000 1.0
C      1  0.4597320000000  0.5570280000000  0.4381650000000 1.0
C      1  0.4590140000000  0.4955920000000  0.5459840000000 1.0
C      1  0.4722850000000  0.5140700000000  0.5027200000000 1.0
C      1  0.4763630000000  0.5811700000000  0.4779270000000 1.0
C      1  0.4791590000000  0.4813790000000  0.5609180000000 1.0
C      1  0.4482530000000  0.4908580000000  0.4248260000000 1.0
C      1  0.4266430000000  0.4863290000000  0.4435490000000 1.0
C      1  0.4068370000000  0.5016840000000  0.4864700000000 1.0
C      1  0.6034490000000  0.5279430000000  0.5057440000000 1.0
C      1  0.5820780000000  0.4988690000000  0.5471870000000 1.0
C      1  0.5573940000000  0.4909220000000  0.5578070000000 1.0
C      1  0.5031420000000  0.6064410000000  0.5594650000000 1.0
C      1  0.5432700000000  0.4671030000000  0.5527260000000 1.0
C      1  0.4339630000000  0.4827170000000  0.5462230000000 1.0
C      1  0.5401080000000  0.4636130000000  0.4080990000000 1.0
C      1  0.5881370000000  0.5522600000000  0.5386220000000 1.0
C      1  0.5124350000000  0.5373920000000  0.5424050000000 1.0
C      1  0.4631820000000  0.5787750000000  0.4532720000000 1.0
C      1  0.4673300000000  0.5315710000000  0.4379600000000 1.0
C      1  0.4298150000000  0.4962720000000  0.4714900000000 1.0
C      1  0.5149800000000  0.5637020000000  0.5027030000000 1.0
C      1  0.4754830000000  0.4343590000000  0.4938090000000 1.0
C      1  0.5039490000000  0.3951030000000  0.5466480000000 1.0
C      1  0.5185220000000  0.5248360000000  0.5669760000000 1.0
C      1  0.5403980000000  0.4804840000000  0.4944830000000 1.0
C      1  0.5039550000000  0.3983340000000  0.4681110000000 1.0
C      1  0.3864380000000  0.4960480000000  0.5024820000000 1.0
C      1  0.5911830000000  0.5606340000000  0.4604050000000 1.0
C      1  0.5663430000000  0.3968620000000  0.5095480000000 1.0
C      1  0.4738260000000  0.4339680000000  0.5491160000000 1.0
C      1  0.4691080000000  0.5036510000000  0.4399470000000 1.0
C      1  0.5882350000000  0.4918180000000  0.4784680000000 1.0
C      1  0.4564840000000  0.4993770000000  0.4828050000000 1.0
C      1  0.4757820000000  0.4893650000000  0.4632830000000 1.0
C      1  0.5139500000000  0.5350170000000  0.4183550000000 1.0
C      1  0.3983050000000  0.4504610000000  0.5572170000000 1.0
C      1  0.4036030000000  0.4725960000000  0.4358170000000 1.0
C      1  0.5605070000000  0.5866730000000  0.4860330000000 1.0
C      1  0.5105160000000  0.4254930000000  0.4619650000000 1.0
C      1  0.4966540000000  0.5201810000000  0.5852630000000 1.0
C      1  0.4605820000000  0.5810150000000  0.5012980000000 1.0
C      1  0.5479380000000  0.5807770000000  0.4593080000000 1.0
C      1  0.5005300000000  0.5213590000000  0.3991740000000 1.0
END
