TITL C-627111-6168-1993 0.0473270987631469 125000 -511.018677695407 0 0 85 (C1) n - 1
REM
REM in /home/nfs/bkarasulu/CARBON/AIRSS/Generating-Clusters/LCBOP/Only-C1/SD-CG/FIRE-CG
REM
REM
REM
REM
REM
REM ./C.cell (11c1c37f851c82e70ff6c80c92926a4b)
REM AIRSS Version 0.9.1 bugfix July 2018 build 013d7b7c2542+ Fri, 06 Jul 2018 19:26:36 +0100
REM compiler GCC version 9.2.1 20190827 (Red Hat 9.2.1-1)
REM options -cpp -mtune=generic -march=x86-64 -g -O0 -fpre-include=/usr/include/finclude/math-vector-fortran.h
REM seed 1945798076 -492578979 2111326680 1487493310 -1496981638 1606830757 -811762075 1039407177 -227554904 1014040762 -550685778 -1793041159 1310313759 988597622 -984549820 646231425 -1676668754 477829316 -1410430051 637971841 -156213852 -585168715 953186131 2073823731 -2044389799 2133302050 1715826226 -1369600777 -1595346158 1059517175 1182652138 -620328097 -1649032935
REM
CELL 1.54180   50.00000   50.00000   50.00000   90.00000   90.00000   90.00000
LATT -1
SFAC C  
C      1  0.5450500000000  0.4468490000000  0.4363980000000 1.0
C      1  0.5000870000000  0.5725090000000  0.5255860000000 1.0
C      1  0.3853450000000  0.4629180000000  0.5839050000000 1.0
C      1  0.6088120000000  0.5023220000000  0.4644490000000 1.0
C      1  0.5608620000000  0.6116840000000  0.5168890000000 1.0
C      1  0.5454420000000  0.4291900000000  0.4584850000000 1.0
C      1  0.4953590000000  0.4660920000000  0.5153160000000 1.0
C      1  0.5379590000000  0.5204180000000  0.4863680000000 1.0
C      1  0.4535040000000  0.5030180000000  0.4871430000000 1.0
C      1  0.4189070000000  0.4735190000000  0.5051590000000 1.0
C      1  0.4985020000000  0.4700400000000  0.4395920000000 1.0
C      1  0.4643010000000  0.4029400000000  0.5231790000000 1.0
C      1  0.5515810000000  0.4330250000000  0.5068030000000 1.0
C      1  0.5380980000000  0.4922030000000  0.4219290000000 1.0
C      1  0.4685430000000  0.4718000000000  0.5276690000000 1.0
C      1  0.5646650000000  0.4984060000000  0.4219110000000 1.0
C      1  0.4817820000000  0.5683790000000  0.5467340000000 1.0
C      1  0.4293330000000  0.4966270000000  0.4344230000000 1.0
C      1  0.4322070000000  0.5907150000000  0.4639110000000 1.0
C      1  0.4526770000000  0.5335320000000  0.5660300000000 1.0
C      1  0.5438950000000  0.4559300000000  0.5240290000000 1.0
C      1  0.5905400000000  0.4386580000000  0.4761460000000 1.0
C      1  0.6073650000000  0.4863210000000  0.5099480000000 1.0
C      1  0.4347500000000  0.6271860000000  0.6440600000000 1.0
C      1  0.4653780000000  0.4800760000000  0.4740560000000 1.0
C      1  0.5421350000000  0.5432560000000  0.4731360000000 1.0
C      1  0.6071450000000  0.4547180000000  0.4625680000000 1.0
C      1  0.4440270000000  0.4610520000000  0.5154390000000 1.0
C      1  0.4565230000000  0.5459220000000  0.5093180000000 1.0
C      1  0.4634780000000  0.5595480000000  0.5662470000000 1.0
C      1  0.4060900000000  0.4776010000000  0.5781070000000 1.0
C      1  0.5802520000000  0.5396270000000  0.5216170000000 1.0
C      1  0.4300530000000  0.3961190000000  0.4898660000000 1.0
C      1  0.4460480000000  0.5464560000000  0.4484750000000 1.0
C      1  0.5891970000000  0.4734260000000  0.5248440000000 1.0
C      1  0.4620470000000  0.5199420000000  0.5072070000000 1.0
C      1  0.4279090000000  0.5111190000000  0.4769390000000 1.0
C      1  0.4305160000000  0.5220250000000  0.4502940000000 1.0
C      1  0.5349540000000  0.5506600000000  0.5752470000000 1.0
C      1  0.5257370000000  0.4679290000000  0.4314390000000 1.0
C      1  0.5293960000000  0.4062580000000  0.4625840000000 1.0
C      1  0.5118390000000  0.5139850000000  0.5277610000000 1.0
C      1  0.4760440000000  0.4740340000000  0.4218360000000 1.0
C      1  0.4521430000000  0.4870140000000  0.4197190000000 1.0
C      1  0.4980720000000  0.5130750000000  0.4561190000000 1.0
C      1  0.4494910000000  0.5057740000000  0.5618370000000 1.0
C      1  0.5588630000000  0.5311960000000  0.5380160000000 1.0
C      1  0.4641080000000  0.5663100000000  0.4915770000000 1.0
C      1  0.5979630000000  0.5322920000000  0.5028890000000 1.0
C      1  0.4690860000000  0.5448880000000  0.4321860000000 1.0
C      1  0.5559940000000  0.5028340000000  0.5416070000000 1.0
C      1  0.5318120000000  0.4114150000000  0.5106900000000 1.0
C      1  0.5446970000000  0.5924760000000  0.5238800000000 1.0
C      1  0.5832950000000  0.4780170000000  0.4284910000000 1.0
C      1  0.4536440000000  0.4531590000000  0.4713840000000 1.0
C      1  0.4880780000000  0.4075080000000  0.5342960000000 1.0
C      1  0.4499820000000  0.4397820000000  0.4963550000000 1.0
C      1  0.4122160000000  0.4866640000000  0.4795900000000 1.0
C      1  0.4318840000000  0.4515910000000  0.4530510000000 1.0
C      1  0.5150530000000  0.4501430000000  0.5288080000000 1.0
C      1  0.5633070000000  0.4344830000000  0.4808940000000 1.0
C      1  0.4473130000000  0.5681500000000  0.4679870000000 1.0
C      1  0.5283050000000  0.5711470000000  0.5318420000000 1.0
C      1  0.5619470000000  0.4766020000000  0.5319410000000 1.0
C      1  0.4916710000000  0.5318950000000  0.4383630000000 1.0
C      1  0.4476850000000  0.4125020000000  0.5027330000000 1.0
C      1  0.5206520000000  0.5054750000000  0.5024110000000 1.0
C      1  0.4950410000000  0.5064320000000  0.5472020000000 1.0
C      1  0.4938960000000  0.4846100000000  0.4660270000000 1.0
C      1  0.6074910000000  0.5082080000000  0.4919810000000 1.0
C      1  0.4902830000000  0.5764810000000  0.4982090000000 1.0
C      1  0.5094730000000  0.5805530000000  0.4780510000000 1.0
C      1  0.5708160000000  0.4522980000000  0.4247660000000 1.0
C      1  0.5113710000000  0.4212780000000  0.5284380000000 1.0
C      1  0.6027160000000  0.4793790000000  0.4492420000000 1.0
C      1  0.5067070000000  0.4821590000000  0.4933490000000 1.0
C      1  0.4272380000000  0.4920690000000  0.5713750000000 1.0
C      1  0.4558260000000  0.5771940000000  0.5865480000000 1.0
C      1  0.4702210000000  0.4926400000000  0.5475830000000 1.0
C      1  0.4487630000000  0.5939410000000  0.6058150000000 1.0
C      1  0.5307460000000  0.5670930000000  0.4688230000000 1.0
C      1  0.5254890000000  0.3963570000000  0.4875940000000 1.0
C      1  0.4163220000000  0.4755360000000  0.4519250000000 1.0
C      1  0.5403100000000  0.5506410000000  0.5482700000000 1.0
C      1  0.4416980000000  0.6107020000000  0.6250960000000 1.0
END
