TITL C-627110-360-2109 8.16186327497932e-05 125000 -300.849416914848 0 0 50 (C1) n - 1
REM
REM in /home/nfs/bkarasulu/CARBON/AIRSS/Generating-Clusters/LCBOP/Only-C1/SD-CG/FIRE-CG
REM
REM
REM
REM
REM
REM ./C.cell (11c1c37f851c82e70ff6c80c92926a4b)
REM AIRSS Version 0.9.1 bugfix July 2018 build 013d7b7c2542+ Fri, 06 Jul 2018 19:26:36 +0100
REM compiler GCC version 9.2.1 20190827 (Red Hat 9.2.1-1)
REM options -cpp -mtune=generic -march=x86-64 -g -O0 -fpre-include=/usr/include/finclude/math-vector-fortran.h
REM seed 1222891696 -875234791 654999655 1654834975 1920805975 -171858655 -722125173 -461842812 -331631518 -1330525556 -579305044 -330174999 -764471252 1030510837 -1344069224 979209574 -2068722171 1162476512 387708634 1332758628 326457622 805957041 -1582371114 368867536 -1741073655 -791407627 1520443090 1626915005 -120024123 -1743597189 915748668 -10410439 1608528856
REM
CELL 1.54180   50.00000   50.00000   50.00000   90.00000   90.00000   90.00000
LATT -1
SFAC C  
C      1  0.4766700000000  0.4936470000000  0.5193540000000 1.0
C      1  0.4840490000000  0.4234940000000  0.5187390000000 1.0
C      1  0.5768210000000  0.5251870000000  0.4980190000000 1.0
C      1  0.5254860000000  0.5692040000000  0.5292450000000 1.0
C      1  0.4322060000000  0.5340050000000  0.5089350000000 1.0
C      1  0.4672360000000  0.5060250000000  0.5426140000000 1.0
C      1  0.6157970000000  0.4693820000000  0.4544080000000 1.0
C      1  0.5171400000000  0.4859000000000  0.4603970000000 1.0
C      1  0.4585970000000  0.5399170000000  0.4427320000000 1.0
C      1  0.4438910000000  0.4507470000000  0.5586750000000 1.0
C      1  0.4820480000000  0.5257220000000  0.5567980000000 1.0
C      1  0.5402080000000  0.5279210000000  0.4669630000000 1.0
C      1  0.4356140000000  0.5536430000000  0.5269130000000 1.0
C      1  0.5221850000000  0.4522170000000  0.4895840000000 1.0
C      1  0.4858370000000  0.4638140000000  0.5805390000000 1.0
C      1  0.5901730000000  0.4668600000000  0.4584880000000 1.0
C      1  0.4295710000000  0.4472360000000  0.5105130000000 1.0
C      1  0.4982780000000  0.4761870000000  0.5227260000000 1.0
C      1  0.4960960000000  0.5228710000000  0.4866640000000 1.0
C      1  0.4482440000000  0.4406590000000  0.4922960000000 1.0
C      1  0.4875850000000  0.5678030000000  0.4741940000000 1.0
C      1  0.4948040000000  0.5144450000000  0.5792600000000 1.0
C      1  0.4763980000000  0.4751120000000  0.4358830000000 1.0
C      1  0.4693350000000  0.4960310000000  0.4206860000000 1.0
C      1  0.4825420000000  0.5508710000000  0.5429410000000 1.0
C      1  0.4837740000000  0.4286920000000  0.5452160000000 1.0
C      1  0.4934080000000  0.4687320000000  0.4570280000000 1.0
C      1  0.5783090000000  0.5577180000000  0.4618680000000 1.0
C      1  0.4652220000000  0.5225750000000  0.4216270000000 1.0
C      1  0.5167880000000  0.5126450000000  0.4698250000000 1.0
C      1  0.5772880000000  0.5069740000000  0.5174050000000 1.0
C      1  0.4569920000000  0.5629680000000  0.5404020000000 1.0
C      1  0.5903650000000  0.5770040000000  0.4491450000000 1.0
C      1  0.4279450000000  0.4511070000000  0.5370380000000 1.0
C      1  0.5642020000000  0.4657920000000  0.4636000000000 1.0
C      1  0.4951850000000  0.4478890000000  0.4776990000000 1.0
C      1  0.4423860000000  0.5280270000000  0.4626150000000 1.0
C      1  0.5376860000000  0.4678910000000  0.4707110000000 1.0
C      1  0.5652750000000  0.5371670000000  0.4754510000000 1.0
C      1  0.4737840000000  0.5621630000000  0.4515280000000 1.0
C      1  0.4966640000000  0.5505800000000  0.4948190000000 1.0
C      1  0.5018510000000  0.5571200000000  0.5223800000000 1.0
C      1  0.4470670000000  0.5203930000000  0.4892180000000 1.0
C      1  0.5662620000000  0.4858700000000  0.5293450000000 1.0
C      1  0.5220340000000  0.4627890000000  0.5160830000000 1.0
C      1  0.4947420000000  0.4884160000000  0.5868090000000 1.0
C      1  0.5459380000000  0.4685950000000  0.5293300000000 1.0
C      1  0.4714190000000  0.4463040000000  0.5637430000000 1.0
C      1  0.4758370000000  0.4348470000000  0.4938300000000 1.0
C      1  0.4727650000000  0.5088430000000  0.4957210000000 1.0
END
