TITL C-627109-622-600 -2.79460574835381e-07 125000 -271.849945359385 0 0 45 (C1) n - 1
REM
REM in /home/nfs/bkarasulu/CARBON/AIRSS/Generating-Clusters/LCBOP/Only-C1/SD-CG/FIRE-CG
REM
REM
REM
REM
REM
REM ./C.cell (11c1c37f851c82e70ff6c80c92926a4b)
REM AIRSS Version 0.9.1 bugfix July 2018 build 013d7b7c2542+ Fri, 06 Jul 2018 19:26:36 +0100
REM compiler GCC version 9.2.1 20190827 (Red Hat 9.2.1-1)
REM options -cpp -mtune=generic -march=x86-64 -g -O0 -fpre-include=/usr/include/finclude/math-vector-fortran.h
REM seed 329076573 2065764355 1304676900 -409276637 -1797089584 1271222949 -86422948 1545459016 -862816241 -1291841374 599339120 -1764150122 -858875484 -1027553998 -271613223 486734692 2101169606 1462597398 -310814728 1404368188 -2093016190 -1653515028 1464469346 773823807 2011859829 -14202810 -625009509 -3707471 801492374 -690140790 -1731630503 -1061950857 552330894
REM
CELL 1.54180   50.00000   50.00000   50.00000   90.00000   90.00000   90.00000
LATT -1
SFAC C  
C      1  0.5073400000000  0.4363310000000  0.4736180000000 1.0
C      1  0.4729450000000  0.4898350000000  0.5419340000000 1.0
C      1  0.4940420000000  0.4814460000000  0.5235580000000 1.0
C      1  0.4688300000000  0.4881310000000  0.4434830000000 1.0
C      1  0.5302760000000  0.4518840000000  0.4646210000000 1.0
C      1  0.5655610000000  0.4198970000000  0.5105370000000 1.0
C      1  0.4359910000000  0.4733140000000  0.4825550000000 1.0
C      1  0.4716480000000  0.5334130000000  0.5227580000000 1.0
C      1  0.5415300000000  0.5251690000000  0.4533770000000 1.0
C      1  0.5873590000000  0.5866570000000  0.5166940000000 1.0
C      1  0.4866520000000  0.4445900000000  0.4555280000000 1.0
C      1  0.4963940000000  0.4539530000000  0.5173900000000 1.0
C      1  0.5435640000000  0.5289230000000  0.5443010000000 1.0
C      1  0.5371520000000  0.4977560000000  0.4574200000000 1.0
C      1  0.5178020000000  0.4103560000000  0.5135480000000 1.0
C      1  0.4542870000000  0.5273390000000  0.5715710000000 1.0
C      1  0.5042920000000  0.4319480000000  0.5015290000000 1.0
C      1  0.4363200000000  0.4764190000000  0.5090890000000 1.0
C      1  0.5439480000000  0.4056210000000  0.5178270000000 1.0
C      1  0.4581990000000  0.5388440000000  0.4391810000000 1.0
C      1  0.4300330000000  0.5444160000000  0.5321510000000 1.0
C      1  0.5485500000000  0.4883010000000  0.4831870000000 1.0
C      1  0.5080930000000  0.5002210000000  0.5062370000000 1.0
C      1  0.5483730000000  0.5251310000000  0.5168880000000 1.0
C      1  0.4953390000000  0.5194860000000  0.4887820000000 1.0
C      1  0.4456430000000  0.5210420000000  0.5253060000000 1.0
C      1  0.5729490000000  0.5668340000000  0.5078290000000 1.0
C      1  0.4915610000000  0.4712570000000  0.4442450000000 1.0
C      1  0.4511730000000  0.5554080000000  0.4591180000000 1.0
C      1  0.4474470000000  0.4931790000000  0.5283090000000 1.0
C      1  0.5503500000000  0.5432280000000  0.4714490000000 1.0
C      1  0.5681880000000  0.4423880000000  0.4961340000000 1.0
C      1  0.4780050000000  0.5406430000000  0.4962820000000 1.0
C      1  0.4672700000000  0.5142850000000  0.4334750000000 1.0
C      1  0.5201980000000  0.4758360000000  0.4485460000000 1.0
C      1  0.5521080000000  0.4599100000000  0.4818500000000 1.0
C      1  0.4354760000000  0.5449240000000  0.5607200000000 1.0
C      1  0.5368610000000  0.5017220000000  0.5053080000000 1.0
C      1  0.4467340000000  0.4792510000000  0.4588840000000 1.0
C      1  0.5023020000000  0.5154340000000  0.5721300000000 1.0
C      1  0.4549720000000  0.5559570000000  0.4869440000000 1.0
C      1  0.5262960000000  0.5240570000000  0.5641260000000 1.0
C      1  0.5574310000000  0.5455100000000  0.4988340000000 1.0
C      1  0.4759170000000  0.5086720000000  0.5646790000000 1.0
C      1  0.4346000000000  0.5610830000000  0.5080650000000 1.0
END
