TITL C-627107-135-487 3.23233134630185e-07 125000 -851.479819794719 0 0 140 (C1) n - 1
REM
REM in /home/nfs/bkarasulu/CARBON/AIRSS/Generating-Clusters/LCBOP/Only-C1/SD-CG/FIRE-CG
REM
REM
REM
REM
REM
REM ./C.cell (11c1c37f851c82e70ff6c80c92926a4b)
REM AIRSS Version 0.9.1 bugfix July 2018 build 013d7b7c2542+ Fri, 06 Jul 2018 19:26:36 +0100
REM compiler GCC version 9.2.1 20190827 (Red Hat 9.2.1-1)
REM options -cpp -mtune=generic -march=x86-64 -g -O0 -fpre-include=/usr/include/finclude/math-vector-fortran.h
REM seed -602776723 -1898678691 261007110 -1817975120 1366048425 155584234 1649803800 706645146 610703709 523790273 -1320413528 1113628348 1160560305 -1078162135 -1049065326 841723666 -1468363237 724186322 -1869374352 2336800 507899277 1577779761 2069877353 669156930 -1341140274 1006848743 -1666532992 661059107 1706653498 1766380256 934802726 1142307878 -1150013813
REM
CELL 1.54180   50.00000   50.00000   50.00000   90.00000   90.00000   90.00000
LATT -1
SFAC C  
C      1  0.4162110000000  0.4391820000000  0.4145580000000 1.0
C      1  0.4506310000000  0.5696460000000  0.5828010000000 1.0
C      1  0.5000700000000  0.5446550000000  0.3856550000000 1.0
C      1  0.5546840000000  0.4609740000000  0.4737590000000 1.0
C      1  0.5826860000000  0.4688300000000  0.4696830000000 1.0
C      1  0.5898850000000  0.5353480000000  0.5038010000000 1.0
C      1  0.4726320000000  0.5611600000000  0.5984770000000 1.0
C      1  0.4379270000000  0.4736800000000  0.4863680000000 1.0
C      1  0.5264710000000  0.5832700000000  0.5280390000000 1.0
C      1  0.4564340000000  0.5361150000000  0.4279420000000 1.0
C      1  0.5185250000000  0.3995770000000  0.5541310000000 1.0
C      1  0.5036060000000  0.4471160000000  0.4959970000000 1.0
C      1  0.5088640000000  0.5999940000000  0.5124230000000 1.0
C      1  0.4689510000000  0.5155390000000  0.5377830000000 1.0
C      1  0.4623880000000  0.5830990000000  0.4532110000000 1.0
C      1  0.4595030000000  0.5897010000000  0.5022310000000 1.0
C      1  0.5325290000000  0.4575080000000  0.5631480000000 1.0
C      1  0.5119880000000  0.4642010000000  0.5445680000000 1.0
C      1  0.4645230000000  0.4387320000000  0.4319180000000 1.0
C      1  0.4835510000000  0.5032660000000  0.3647800000000 1.0
C      1  0.5598350000000  0.4962080000000  0.5448770000000 1.0
C      1  0.5577780000000  0.4476750000000  0.4989230000000 1.0
C      1  0.4784120000000  0.5893380000000  0.3976660000000 1.0
C      1  0.4444100000000  0.4767100000000  0.5605550000000 1.0
C      1  0.5237850000000  0.5846200000000  0.4084510000000 1.0
C      1  0.5247090000000  0.5787400000000  0.5996760000000 1.0
C      1  0.5849940000000  0.5608260000000  0.4914400000000 1.0
C      1  0.5716680000000  0.3892550000000  0.6029760000000 1.0
C      1  0.5358020000000  0.5037850000000  0.5325050000000 1.0
C      1  0.5078630000000  0.5405590000000  0.5207880000000 1.0
C      1  0.5146780000000  0.6119630000000  0.4129380000000 1.0
C      1  0.4993760000000  0.5702880000000  0.5895130000000 1.0
C      1  0.4957680000000  0.4541410000000  0.5237660000000 1.0
C      1  0.5438270000000  0.5273120000000  0.4910830000000 1.0
C      1  0.4720860000000  0.4110890000000  0.5541760000000 1.0
C      1  0.5782550000000  0.5131250000000  0.6241810000000 1.0
C      1  0.4291120000000  0.4278260000000  0.4928040000000 1.0
C      1  0.4808310000000  0.5966380000000  0.5169790000000 1.0
C      1  0.5133940000000  0.6119890000000  0.4872730000000 1.0
C      1  0.5639750000000  0.3905520000000  0.4361600000000 1.0
C      1  0.5745310000000  0.4779650000000  0.4231370000000 1.0
C      1  0.5529460000000  0.5190740000000  0.4241760000000 1.0
C      1  0.5603280000000  0.4702210000000  0.5617080000000 1.0
C      1  0.4979590000000  0.5134680000000  0.4656800000000 1.0
C      1  0.5037030000000  0.5266500000000  0.5741000000000 1.0
C      1  0.4768460000000  0.4652920000000  0.4267690000000 1.0
C      1  0.4574840000000  0.4875170000000  0.5376590000000 1.0
C      1  0.5111310000000  0.5048520000000  0.6189660000000 1.0
C      1  0.4693780000000  0.4299950000000  0.6038150000000 1.0
C      1  0.5075470000000  0.5014540000000  0.4080110000000 1.0
C      1  0.4497330000000  0.5359060000000  0.5479850000000 1.0
C      1  0.3687500000000  0.4520540000000  0.4905710000000 1.0
C      1  0.4859520000000  0.6090330000000  0.4183620000000 1.0
C      1  0.5199680000000  0.4873890000000  0.6361780000000 1.0
C      1  0.5121120000000  0.5297280000000  0.4472700000000 1.0
C      1  0.4649800000000  0.4734100000000  0.4923630000000 1.0
C      1  0.4435160000000  0.4476580000000  0.5626030000000 1.0
C      1  0.5937160000000  0.5110010000000  0.4872810000000 1.0
C      1  0.3973500000000  0.4514340000000  0.4290720000000 1.0
C      1  0.4561840000000  0.5022600000000  0.3645700000000 1.0
C      1  0.5913090000000  0.4822780000000  0.4953760000000 1.0
C      1  0.4940600000000  0.5096130000000  0.5546040000000 1.0
C      1  0.5455690000000  0.4009090000000  0.4514380000000 1.0
C      1  0.4193990000000  0.5362200000000  0.4687140000000 1.0
C      1  0.4806140000000  0.5231490000000  0.4858050000000 1.0
C      1  0.4384390000000  0.5589890000000  0.5596150000000 1.0
C      1  0.5277810000000  0.4130810000000  0.4668600000000 1.0
C      1  0.5476960000000  0.5076460000000  0.4737730000000 1.0
C      1  0.5709960000000  0.6074670000000  0.4886780000000 1.0
C      1  0.5835530000000  0.3817340000000  0.6249260000000 1.0
C      1  0.4499490000000  0.5144420000000  0.5995880000000 1.0
C      1  0.5331330000000  0.5719650000000  0.4317320000000 1.0
C      1  0.4157240000000  0.5708550000000  0.5486920000000 1.0
C      1  0.5652490000000  0.5556570000000  0.5731120000000 1.0
C      1  0.4796770000000  0.6048900000000  0.4460930000000 1.0
C      1  0.4981480000000  0.6147610000000  0.4652300000000 1.0
C      1  0.4961840000000  0.4091420000000  0.5692550000000 1.0
C      1  0.5698670000000  0.5831650000000  0.5010740000000 1.0
C      1  0.5309820000000  0.5254050000000  0.5152950000000 1.0
C      1  0.4626420000000  0.4218200000000  0.4560090000000 1.0
C      1  0.4418550000000  0.4941290000000  0.5833700000000 1.0
C      1  0.4004910000000  0.4955170000000  0.4485660000000 1.0
C      1  0.4425230000000  0.4338490000000  0.4141990000000 1.0
C      1  0.4606690000000  0.5613290000000  0.4353300000000 1.0
C      1  0.4450860000000  0.5115680000000  0.4355300000000 1.0
C      1  0.5907050000000  0.5133780000000  0.4572550000000 1.0
C      1  0.4695360000000  0.4026150000000  0.5019350000000 1.0
C      1  0.3926780000000  0.4578660000000  0.4776850000000 1.0
C      1  0.3948390000000  0.5819770000000  0.5377680000000 1.0
C      1  0.4873530000000  0.3855170000000  0.5159630000000 1.0
C      1  0.4491220000000  0.5790380000000  0.4784160000000 1.0
C      1  0.5741520000000  0.4509000000000  0.5424410000000 1.0
C      1  0.4971690000000  0.5206450000000  0.6011490000000 1.0
C      1  0.5121060000000  0.5611630000000  0.5397530000000 1.0
C      1  0.5061450000000  0.5541170000000  0.5663940000000 1.0
C      1  0.4290050000000  0.5591430000000  0.4786930000000 1.0
C      1  0.5742710000000  0.5278470000000  0.5776600000000 1.0
C      1  0.5599490000000  0.4242240000000  0.5402030000000 1.0
C      1  0.5494460000000  0.5710720000000  0.5909250000000 1.0
C      1  0.4210350000000  0.5142630000000  0.4510040000000 1.0
C      1  0.5741740000000  0.5076480000000  0.5977830000000 1.0
C      1  0.5782220000000  0.5166590000000  0.5508790000000 1.0
C      1  0.5788270000000  0.4629110000000  0.5153050000000 1.0
C      1  0.4511450000000  0.4268280000000  0.5422280000000 1.0
C      1  0.4828200000000  0.5283960000000  0.5133220000000 1.0
C      1  0.4548280000000  0.5891330000000  0.3831460000000 1.0
C      1  0.5757900000000  0.5047440000000  0.4334570000000 1.0
C      1  0.5702740000000  0.4808070000000  0.5880520000000 1.0
C      1  0.4585830000000  0.4872170000000  0.4310060000000 1.0
C      1  0.4706320000000  0.4695950000000  0.5203400000000 1.0
C      1  0.5828210000000  0.5372380000000  0.5316460000000 1.0
C      1  0.5247100000000  0.5163420000000  0.4253260000000 1.0
C      1  0.4713940000000  0.5325400000000  0.6058170000000 1.0
C      1  0.4180340000000  0.4539190000000  0.4899320000000 1.0
C      1  0.5027590000000  0.4733810000000  0.4152570000000 1.0
C      1  0.4982220000000  0.4917670000000  0.3447140000000 1.0
C      1  0.4804550000000  0.4122780000000  0.4765330000000 1.0
C      1  0.5520520000000  0.4236000000000  0.5124690000000 1.0
C      1  0.4479870000000  0.4387560000000  0.5896840000000 1.0
C      1  0.5014770000000  0.5714300000000  0.3938420000000 1.0
C      1  0.4969290000000  0.5164180000000  0.3860760000000 1.0
C      1  0.5552660000000  0.5788910000000  0.5257210000000 1.0
C      1  0.5211620000000  0.5561270000000  0.4499250000000 1.0
C      1  0.5060380000000  0.4236250000000  0.4804700000000 1.0
C      1  0.5595260000000  0.3970930000000  0.5807740000000 1.0
C      1  0.5074530000000  0.4862380000000  0.4684670000000 1.0
C      1  0.5460920000000  0.4070140000000  0.5583730000000 1.0
C      1  0.5097190000000  0.3851620000000  0.5311670000000 1.0
C      1  0.4360850000000  0.4174070000000  0.4668050000000 1.0
C      1  0.4903520000000  0.4680350000000  0.4804330000000 1.0
C      1  0.3464520000000  0.4463290000000  0.5027830000000 1.0
C      1  0.5359080000000  0.4823860000000  0.4697090000000 1.0
C      1  0.5269440000000  0.4582920000000  0.4152150000000 1.0
C      1  0.4472740000000  0.4189750000000  0.5138480000000 1.0
C      1  0.5126800000000  0.4923740000000  0.5433700000000 1.0
C      1  0.4924590000000  0.4181380000000  0.5957180000000 1.0
C      1  0.5537840000000  0.4616360000000  0.4166170000000 1.0
C      1  0.3935720000000  0.4684470000000  0.4511290000000 1.0
C      1  0.5689730000000  0.5610620000000  0.5440670000000 1.0
C      1  0.4322890000000  0.5872300000000  0.3702070000000 1.0
END
