TITL C-627109-622-1858 9.29412613580104e-07 125000 -679.169156000284 0 0 111 (C1) n - 1
REM
REM in /home/nfs/bkarasulu/CARBON/AIRSS/Generating-Clusters/LCBOP/Only-C1/SD-CG/FIRE-CG
REM
REM
REM
REM
REM
REM ./C.cell (11c1c37f851c82e70ff6c80c92926a4b)
REM AIRSS Version 0.9.1 bugfix July 2018 build 013d7b7c2542+ Fri, 06 Jul 2018 19:26:36 +0100
REM compiler GCC version 9.2.1 20190827 (Red Hat 9.2.1-1)
REM options -cpp -mtune=generic -march=x86-64 -g -O0 -fpre-include=/usr/include/finclude/math-vector-fortran.h
REM seed -1268295355 1213840093 -12872024 1723088439 -975155800 768995516 -906291557 973955288 261438646 -1982690873 -863002274 1410599147 -424838597 297624657 1873152722 1469275967 1917084105 947769849 -124704097 -50589129 -906742356 -972025741 -1522704686 -1638246265 1053124582 -1635513937 -675089867 -74468540 1665727979 1361583411 1379260355 239438656 -897043742
REM
CELL 1.54180   50.00000   50.00000   50.00000   90.00000   90.00000   90.00000
LATT -1
SFAC C  
C      1  0.4545950000000  0.5580640000000  0.5610740000000 1.0
C      1  0.4766550000000  0.5994880000000  0.5393490000000 1.0
C      1  0.4669550000000  0.3568010000000  0.5266810000000 1.0
C      1  0.5174070000000  0.5207380000000  0.4865940000000 1.0
C      1  0.5566400000000  0.4375980000000  0.4114800000000 1.0
C      1  0.5131540000000  0.5825100000000  0.5708350000000 1.0
C      1  0.5380800000000  0.5377720000000  0.4376720000000 1.0
C      1  0.5105450000000  0.4185700000000  0.4136760000000 1.0
C      1  0.6015180000000  0.4834350000000  0.4859080000000 1.0
C      1  0.5355280000000  0.4226160000000  0.4050590000000 1.0
C      1  0.3809680000000  0.5199900000000  0.4672740000000 1.0
C      1  0.5111930000000  0.5019000000000  0.5528770000000 1.0
C      1  0.5705400000000  0.4707790000000  0.5328800000000 1.0
C      1  0.4765920000000  0.6027030000000  0.5100690000000 1.0
C      1  0.4912520000000  0.4253460000000  0.5178830000000 1.0
C      1  0.5386810000000  0.5040410000000  0.5464610000000 1.0
C      1  0.5086560000000  0.5232590000000  0.6162410000000 1.0
C      1  0.4816920000000  0.4818710000000  0.4010920000000 1.0
C      1  0.5249530000000  0.3818920000000  0.4858230000000 1.0
C      1  0.4639560000000  0.4953350000000  0.4425950000000 1.0
C      1  0.5259250000000  0.5405670000000  0.6009240000000 1.0
C      1  0.4941180000000  0.6241130000000  0.4686730000000 1.0
C      1  0.5472490000000  0.3845980000000  0.5000350000000 1.0
C      1  0.4788280000000  0.5622300000000  0.4793490000000 1.0
C      1  0.4581680000000  0.5579930000000  0.4128470000000 1.0
C      1  0.4797220000000  0.3790270000000  0.5313830000000 1.0
C      1  0.6561320000000  0.5531700000000  0.4546430000000 1.0
C      1  0.5918710000000  0.5367600000000  0.5584070000000 1.0
C      1  0.5241220000000  0.5897810000000  0.4427250000000 1.0
C      1  0.5855050000000  0.4524020000000  0.4483360000000 1.0
C      1  0.4562370000000  0.5847180000000  0.5523330000000 1.0
C      1  0.5543270000000  0.4834830000000  0.4289660000000 1.0
C      1  0.4981610000000  0.4794110000000  0.4762520000000 1.0
C      1  0.4738830000000  0.4707570000000  0.4599550000000 1.0
C      1  0.5522330000000  0.5332620000000  0.5934690000000 1.0
C      1  0.5635120000000  0.5084300000000  0.5032150000000 1.0
C      1  0.4796940000000  0.5437320000000  0.4044320000000 1.0
C      1  0.4524790000000  0.4710550000000  0.4830740000000 1.0
C      1  0.3846100000000  0.5325310000000  0.4447210000000 1.0
C      1  0.4691710000000  0.4451560000000  0.5189150000000 1.0
C      1  0.4686750000000  0.5457510000000  0.4587640000000 1.0
C      1  0.5744030000000  0.5344760000000  0.5785290000000 1.0
C      1  0.3793370000000  0.5058430000000  0.4912420000000 1.0
C      1  0.5342650000000  0.5655030000000  0.4382400000000 1.0
C      1  0.5659110000000  0.4574590000000  0.4287470000000 1.0
C      1  0.5098580000000  0.4078100000000  0.5580030000000 1.0
C      1  0.5035370000000  0.4731950000000  0.4181250000000 1.0
C      1  0.5040710000000  0.3908710000000  0.4720240000000 1.0
C      1  0.4917570000000  0.4085890000000  0.4564350000000 1.0
C      1  0.5042210000000  0.4674390000000  0.5012480000000 1.0
C      1  0.4005020000000  0.4605810000000  0.4972630000000 1.0
C      1  0.4796760000000  0.6233330000000  0.4914080000000 1.0
C      1  0.4901370000000  0.4548060000000  0.4379130000000 1.0
C      1  0.6042420000000  0.5356090000000  0.5347170000000 1.0
C      1  0.5272440000000  0.4906580000000  0.4210260000000 1.0
C      1  0.5047140000000  0.5682350000000  0.5233120000000 1.0
C      1  0.4703500000000  0.5148660000000  0.5031080000000 1.0
C      1  0.4516760000000  0.5580690000000  0.4392470000000 1.0
C      1  0.4241410000000  0.4977780000000  0.5146180000000 1.0
C      1  0.4242110000000  0.4861720000000  0.5420180000000 1.0
C      1  0.5224940000000  0.4315460000000  0.5620400000000 1.0
C      1  0.3681560000000  0.4939480000000  0.5755890000000 1.0
C      1  0.4831120000000  0.5146940000000  0.6068730000000 1.0
C      1  0.4818150000000  0.5198250000000  0.4486710000000 1.0
C      1  0.4305450000000  0.5450670000000  0.5702300000000 1.0
C      1  0.4334630000000  0.4929530000000  0.4034800000000 1.0
C      1  0.6260280000000  0.5390270000000  0.4897250000000 1.0
C      1  0.5161510000000  0.4433060000000  0.5139740000000 1.0
C      1  0.4215890000000  0.4573900000000  0.5395760000000 1.0
C      1  0.5916020000000  0.5068740000000  0.4978210000000 1.0
C      1  0.5030560000000  0.5409220000000  0.5280440000000 1.0
C      1  0.5030670000000  0.5063210000000  0.4671860000000 1.0
C      1  0.4973780000000  0.5272900000000  0.5518720000000 1.0
C      1  0.4004830000000  0.4892490000000  0.4995780000000 1.0
C      1  0.4645360000000  0.5185890000000  0.5862360000000 1.0
C      1  0.4211300000000  0.4474260000000  0.5124270000000 1.0
C      1  0.5027780000000  0.5869600000000  0.5453710000000 1.0
C      1  0.4932970000000  0.4028840000000  0.5354100000000 1.0
C      1  0.6082030000000  0.5275880000000  0.5080360000000 1.0
C      1  0.3454580000000  0.5045980000000  0.5316260000000 1.0
C      1  0.5657660000000  0.3981890000000  0.5133970000000 1.0
C      1  0.4580480000000  0.4903550000000  0.4147490000000 1.0
C      1  0.4196570000000  0.4978300000000  0.5677380000000 1.0
C      1  0.5969430000000  0.5107270000000  0.4371720000000 1.0
C      1  0.5102620000000  0.6105960000000  0.4521280000000 1.0
C      1  0.4359040000000  0.5178080000000  0.5792920000000 1.0
C      1  0.4882640000000  0.5773010000000  0.5009610000000 1.0
C      1  0.6186970000000  0.5243200000000  0.4444860000000 1.0
C      1  0.4971020000000  0.5254240000000  0.5059070000000 1.0
C      1  0.4946980000000  0.5273520000000  0.4219260000000 1.0
C      1  0.5009230000000  0.4759870000000  0.5462400000000 1.0
C      1  0.4834330000000  0.4713780000000  0.5230680000000 1.0
C      1  0.5218750000000  0.5198250000000  0.4216910000000 1.0
C      1  0.5568900000000  0.4948340000000  0.5274660000000 1.0
C      1  0.5173490000000  0.5655950000000  0.5911040000000 1.0
C      1  0.6341410000000  0.5391730000000  0.4627510000000 1.0
C      1  0.5199720000000  0.4527480000000  0.5434300000000 1.0
C      1  0.5781890000000  0.4453950000000  0.5312430000000 1.0
C      1  0.5544800000000  0.5234740000000  0.4561340000000 1.0
C      1  0.4948730000000  0.4269430000000  0.4356230000000 1.0
C      1  0.5170620000000  0.5148670000000  0.6409980000000 1.0
C      1  0.4485670000000  0.4970030000000  0.4984130000000 1.0
C      1  0.3567740000000  0.5077700000000  0.5077460000000 1.0
C      1  0.4750270000000  0.5370220000000  0.5659830000000 1.0
C      1  0.4473860000000  0.4482140000000  0.5007610000000 1.0
C      1  0.5767690000000  0.4197990000000  0.5242590000000 1.0
C      1  0.5457890000000  0.5197830000000  0.4836040000000 1.0
C      1  0.5984810000000  0.4627770000000  0.4692690000000 1.0
C      1  0.3493240000000  0.4988570000000  0.5573620000000 1.0
C      1  0.5700620000000  0.5043260000000  0.4417370000000 1.0
C      1  0.3945130000000  0.4929440000000  0.5794320000000 1.0
END
