TITL C-627112-676-497 -830.810330055634 125000 -854.024243858987 0 0 139 (C1) n - 1
REM
REM in /home/nfs/bkarasulu/CARBON/AIRSS/Generating-Clusters/LCBOP/Only-C1/SD-CG/FIRE-CG
REM
REM
REM
REM
REM
REM ./C.cell (11c1c37f851c82e70ff6c80c92926a4b)
REM AIRSS Version 0.9.1 bugfix July 2018 build 013d7b7c2542+ Fri, 06 Jul 2018 19:26:36 +0100
REM compiler GCC version 9.2.1 20190827 (Red Hat 9.2.1-1)
REM options -cpp -mtune=generic -march=x86-64 -g -O0 -fpre-include=/usr/include/finclude/math-vector-fortran.h
REM seed -1494487323 1159610849 1911352531 -1963765331 921559890 2034249863 1444730978 -54733920 -869582766 762470768 1530471066 -1816916595 889245165 1606199190 -2064562322 -1446245940 1180943981 -1260631968 2065486939 -835807175 152279294 1552073502 728674344 294356679 1199509431 690213415 949712813 1214635819 -1532506735 -1764106576 -857508324 1966458923 -1481743164
REM
CELL 1.54180   50.00000   50.00000   50.00000   90.00000   90.00000   90.00000
LATT -1
SFAC C  
C      1  0.4243090000000  0.5776750000000  0.4534850000000 1.0
C      1  0.4146690000000  0.5853000000000  0.5512220000000 1.0
C      1  0.4359560000000  0.4000820000000  0.5387800000000 1.0
C      1  0.5009260000000  0.5498820000000  0.4589620000000 1.0
C      1  0.5376990000000  0.5916630000000  0.5038940000000 1.0
C      1  0.5351050000000  0.4672140000000  0.5436980000000 1.0
C      1  0.4646600000000  0.5216850000000  0.4166620000000 1.0
C      1  0.6158160000000  0.4951100000000  0.5148470000000 1.0
C      1  0.5537830000000  0.5120410000000  0.4502080000000 1.0
C      1  0.4182680000000  0.4201060000000  0.5387560000000 1.0
C      1  0.4801160000000  0.4550760000000  0.5093750000000 1.0
C      1  0.4392040000000  0.4521790000000  0.4074700000000 1.0
C      1  0.5400480000000  0.4245950000000  0.5222000000000 1.0
C      1  0.4682030000000  0.5016620000000  0.4374540000000 1.0
C      1  0.5280000000000  0.4038740000000  0.5050090000000 1.0
C      1  0.3949820000000  0.4532500000000  0.4543760000000 1.0
C      1  0.5033980000000  0.4626220000000  0.4899880000000 1.0
C      1  0.4276240000000  0.4427550000000  0.4871990000000 1.0
C      1  0.4760710000000  0.4382960000000  0.5588510000000 1.0
C      1  0.4914500000000  0.5965270000000  0.5231590000000 1.0
C      1  0.5253280000000  0.5983760000000  0.4337030000000 1.0
C      1  0.5810530000000  0.4352940000000  0.4588710000000 1.0
C      1  0.5610450000000  0.4842910000000  0.4035900000000 1.0
C      1  0.5224860000000  0.4417730000000  0.5378680000000 1.0
C      1  0.4790700000000  0.5955640000000  0.5482670000000 1.0
C      1  0.4622330000000  0.4875820000000  0.6260320000000 1.0
C      1  0.5709490000000  0.5463020000000  0.5771410000000 1.0
C      1  0.4760750000000  0.4940710000000  0.5476930000000 1.0
C      1  0.5757930000000  0.4713020000000  0.4251460000000 1.0
C      1  0.4758180000000  0.5867060000000  0.4496640000000 1.0
C      1  0.5355250000000  0.4914480000000  0.4431710000000 1.0
C      1  0.5959840000000  0.5342980000000  0.5727190000000 1.0
C      1  0.4636660000000  0.4412590000000  0.4201580000000 1.0
C      1  0.4876930000000  0.4849070000000  0.6178560000000 1.0
C      1  0.3984690000000  0.5058370000000  0.4841800000000 1.0
C      1  0.5117200000000  0.5040850000000  0.4021270000000 1.0
C      1  0.4928340000000  0.5753600000000  0.4737820000000 1.0
C      1  0.5899260000000  0.5658180000000  0.4621010000000 1.0
C      1  0.4869530000000  0.3950830000000  0.4784310000000 1.0
C      1  0.5662680000000  0.4237980000000  0.4808630000000 1.0
C      1  0.4232640000000  0.4933310000000  0.4369670000000 1.0
C      1  0.5014830000000  0.5485180000000  0.4033450000000 1.0
C      1  0.5741890000000  0.5026020000000  0.4674930000000 1.0
C      1  0.5159010000000  0.4863830000000  0.5006040000000 1.0
C      1  0.5618990000000  0.4833400000000  0.5092890000000 1.0
C      1  0.4339600000000  0.4958240000000  0.5851910000000 1.0
C      1  0.4576900000000  0.4208690000000  0.4406450000000 1.0
C      1  0.4345480000000  0.5478920000000  0.5782870000000 1.0
C      1  0.4106200000000  0.4700150000000  0.5489270000000 1.0
C      1  0.4816500000000  0.5839080000000  0.4995920000000 1.0
C      1  0.5583250000000  0.5795280000000  0.5451790000000 1.0
C      1  0.5359720000000  0.4816450000000  0.5192690000000 1.0
C      1  0.4314290000000  0.4725420000000  0.5681340000000 1.0
C      1  0.4201920000000  0.4312800000000  0.4151090000000 1.0
C      1  0.4488130000000  0.4870410000000  0.4519440000000 1.0
C      1  0.5733880000000  0.5545480000000  0.5090520000000 1.0
C      1  0.4596600000000  0.3883710000000  0.5349260000000 1.0
C      1  0.4462280000000  0.5412110000000  0.4303850000000 1.0
C      1  0.5782760000000  0.4921830000000  0.5583560000000 1.0
C      1  0.4167770000000  0.5832120000000  0.5235750000000 1.0
C      1  0.4121740000000  0.5321320000000  0.4715920000000 1.0
C      1  0.5142770000000  0.5370480000000  0.5350520000000 1.0
C      1  0.4640500000000  0.5349480000000  0.5296550000000 1.0
C      1  0.5419740000000  0.5355950000000  0.5365520000000 1.0
C      1  0.4845190000000  0.3866610000000  0.5251130000000 1.0
C      1  0.4044700000000  0.5612930000000  0.4636060000000 1.0
C      1  0.5656350000000  0.4354050000000  0.5086830000000 1.0
C      1  0.4925670000000  0.4417050000000  0.5349840000000 1.0
C      1  0.3987910000000  0.4784820000000  0.4453660000000 1.0
C      1  0.5378260000000  0.4949730000000  0.3924760000000 1.0
C      1  0.4393700000000  0.4920410000000  0.6125850000000 1.0
C      1  0.4928660000000  0.5057090000000  0.4482750000000 1.0
C      1  0.4502540000000  0.5695950000000  0.4424740000000 1.0
C      1  0.5563030000000  0.4760970000000  0.5608140000000 1.0
C      1  0.5091900000000  0.5118350000000  0.4913590000000 1.0
C      1  0.4097370000000  0.4559890000000  0.5051740000000 1.0
C      1  0.5791400000000  0.4610730000000  0.5125590000000 1.0
C      1  0.3935640000000  0.5171120000000  0.5412310000000 1.0
C      1  0.5630190000000  0.5656600000000  0.4513490000000 1.0
C      1  0.6189750000000  0.5403810000000  0.5869450000000 1.0
C      1  0.6411480000000  0.5456960000000  0.6004220000000 1.0
C      1  0.4944540000000  0.4879790000000  0.5679080000000 1.0
C      1  0.5948750000000  0.5151070000000  0.5518240000000 1.0
C      1  0.6070980000000  0.4685560000000  0.5091190000000 1.0
C      1  0.4006850000000  0.4846600000000  0.5041760000000 1.0
C      1  0.4998210000000  0.4853510000000  0.5939590000000 1.0
C      1  0.4699540000000  0.5845200000000  0.5708290000000 1.0
C      1  0.5130950000000  0.5012280000000  0.4304590000000 1.0
C      1  0.5537990000000  0.5537430000000  0.5563530000000 1.0
C      1  0.4984500000000  0.5878640000000  0.4301820000000 1.0
C      1  0.4940870000000  0.4036380000000  0.5963190000000 1.0
C      1  0.4603750000000  0.5175440000000  0.5517740000000 1.0
C      1  0.5211960000000  0.4231580000000  0.4639080000000 1.0
C      1  0.4512260000000  0.5253750000000  0.5059060000000 1.0
C      1  0.4547810000000  0.4525350000000  0.4891780000000 1.0
C      1  0.4144720000000  0.5554760000000  0.5155540000000 1.0
C      1  0.4530880000000  0.4538260000000  0.5657160000000 1.0
C      1  0.5212380000000  0.4339270000000  0.4003790000000 1.0
C      1  0.5261530000000  0.4492660000000  0.4209070000000 1.0
C      1  0.5542930000000  0.5394720000000  0.4437590000000 1.0
C      1  0.6063700000000  0.5202420000000  0.5249170000000 1.0
C      1  0.5156280000000  0.4507230000000  0.4670310000000 1.0
C      1  0.5881410000000  0.4816850000000  0.4517440000000 1.0
C      1  0.6173690000000  0.4576450000000  0.4853360000000 1.0
C      1  0.5601940000000  0.5791670000000  0.5166220000000 1.0
C      1  0.4898590000000  0.5451950000000  0.5288800000000 1.0
C      1  0.6632910000000  0.5508120000000  0.6140640000000 1.0
C      1  0.5574690000000  0.5306750000000  0.5116870000000 1.0
C      1  0.4550570000000  0.5665630000000  0.5840820000000 1.0
C      1  0.5038760000000  0.5587210000000  0.4292250000000 1.0
C      1  0.4578590000000  0.4983400000000  0.5005240000000 1.0
C      1  0.5733180000000  0.4420270000000  0.4313660000000 1.0
C      1  0.4043010000000  0.5425180000000  0.5401330000000 1.0
C      1  0.4129380000000  0.5585970000000  0.5630710000000 1.0
C      1  0.4529740000000  0.4805680000000  0.4786980000000 1.0
C      1  0.4234660000000  0.5238780000000  0.4429600000000 1.0
C      1  0.6850440000000  0.5557820000000  0.6275450000000 1.0
C      1  0.4720190000000  0.4832340000000  0.5217170000000 1.0
C      1  0.4151180000000  0.4347580000000  0.4628730000000 1.0
C      1  0.5288950000000  0.4636160000000  0.4454200000000 1.0
C      1  0.6074710000000  0.5542660000000  0.4801130000000 1.0
C      1  0.5407000000000  0.4096290000000  0.4789660000000 1.0
C      1  0.4280430000000  0.4211770000000  0.4415920000000 1.0
C      1  0.5279180000000  0.5863230000000  0.4785030000000 1.0
C      1  0.6008230000000  0.5443560000000  0.5066160000000 1.0
C      1  0.4286950000000  0.5395070000000  0.4965420000000 1.0
C      1  0.4733000000000  0.4050760000000  0.4576130000000 1.0
C      1  0.5186170000000  0.6041650000000  0.5209400000000 1.0
C      1  0.5421090000000  0.5861870000000  0.4541360000000 1.0
C      1  0.4993000000000  0.5238490000000  0.4684450000000 1.0
C      1  0.5669010000000  0.5073470000000  0.4955690000000 1.0
C      1  0.4301300000000  0.4792510000000  0.4100070000000 1.0
C      1  0.4421140000000  0.5206170000000  0.5731110000000 1.0
C      1  0.4889900000000  0.5233600000000  0.3993380000000 1.0
C      1  0.4849000000000  0.4196820000000  0.5779550000000 1.0
C      1  0.3996480000000  0.4914820000000  0.5328820000000 1.0
C      1  0.4104270000000  0.4461250000000  0.5325050000000 1.0
C      1  0.5993390000000  0.4574770000000  0.4641730000000 1.0
C      1  0.5009590000000  0.3937330000000  0.5034030000000 1.0
END
