TITL C-627113-6568-1279 -2.4504161304216e-07 125000 -786.916051252314 0 0 127 (C1) n - 1
REM
REM in /home/nfs/bkarasulu/CARBON/AIRSS/Generating-Clusters/LCBOP/Only-C1/SD-CG/FIRE-CG
REM
REM
REM
REM
REM
REM ./C.cell (11c1c37f851c82e70ff6c80c92926a4b)
REM AIRSS Version 0.9.1 bugfix July 2018 build 013d7b7c2542+ Fri, 06 Jul 2018 19:26:36 +0100
REM compiler GCC version 9.2.1 20190827 (Red Hat 9.2.1-1)
REM options -cpp -mtune=generic -march=x86-64 -g -O0 -fpre-include=/usr/include/finclude/math-vector-fortran.h
REM seed 327142209 1252500732 80082314 1452270527 -964988064 274605412 1162516652 -511620017 -213375636 -1198309390 584986909 1318211104 1036969319 521589429 2033425447 -365580673 -1416270727 1780575522 -1465806518 -450917874 1647233761 170835493 -1189428949 -98410279 1851022481 1578299142 391328713 1623761373 -399855011 1177119119 215302204 -1291803477 -709636636
REM
CELL 1.54180   50.00000   50.00000   50.00000   90.00000   90.00000   90.00000
LATT -1
SFAC C  
C      1  0.4472690000000  0.4840880000000  0.5053960000000 1.0
C      1  0.5528800000000  0.5976190000000  0.5568660000000 1.0
C      1  0.4876040000000  0.4550120000000  0.3783170000000 1.0
C      1  0.4544580000000  0.4698900000000  0.4820790000000 1.0
C      1  0.4152770000000  0.4411290000000  0.5371120000000 1.0
C      1  0.4789830000000  0.5266790000000  0.4893970000000 1.0
C      1  0.4431700000000  0.5195680000000  0.5450770000000 1.0
C      1  0.4425400000000  0.4915000000000  0.5531420000000 1.0
C      1  0.5283540000000  0.5923960000000  0.4882790000000 1.0
C      1  0.4205500000000  0.4443310000000  0.4585320000000 1.0
C      1  0.4811520000000  0.4164550000000  0.5302190000000 1.0
C      1  0.5393720000000  0.6047100000000  0.5349900000000 1.0
C      1  0.4341540000000  0.5891160000000  0.5645240000000 1.0
C      1  0.5093480000000  0.5423150000000  0.4069350000000 1.0
C      1  0.4909990000000  0.5219430000000  0.5615040000000 1.0
C      1  0.4593520000000  0.3959380000000  0.4951410000000 1.0
C      1  0.5353590000000  0.5018030000000  0.5584990000000 1.0
C      1  0.4205460000000  0.4880150000000  0.5970100000000 1.0
C      1  0.4653130000000  0.4495290000000  0.4250030000000 1.0
C      1  0.4878930000000  0.4944760000000  0.6032820000000 1.0
C      1  0.4653970000000  0.4425980000000  0.4787120000000 1.0
C      1  0.5341860000000  0.4605250000000  0.5303060000000 1.0
C      1  0.5723940000000  0.5217780000000  0.4903330000000 1.0
C      1  0.5205170000000  0.4020830000000  0.4427720000000 1.0
C      1  0.5970110000000  0.5377640000000  0.5653130000000 1.0
C      1  0.4952700000000  0.4752730000000  0.5583130000000 1.0
C      1  0.4178580000000  0.4967870000000  0.6214020000000 1.0
C      1  0.5259240000000  0.4908670000000  0.3695810000000 1.0
C      1  0.4937750000000  0.5945140000000  0.5222150000000 1.0
C      1  0.5848730000000  0.5464350000000  0.4957640000000 1.0
C      1  0.4550950000000  0.4763230000000  0.5318710000000 1.0
C      1  0.4392190000000  0.4456270000000  0.4381240000000 1.0
C      1  0.5324400000000  0.4632770000000  0.4553090000000 1.0
C      1  0.4791530000000  0.4634150000000  0.5382170000000 1.0
C      1  0.4869420000000  0.4970050000000  0.5754040000000 1.0
C      1  0.5086720000000  0.5843100000000  0.4690050000000 1.0
C      1  0.4961310000000  0.3720660000000  0.5165260000000 1.0
C      1  0.5351030000000  0.5473720000000  0.4513380000000 1.0
C      1  0.4700530000000  0.4476500000000  0.3972200000000 1.0
C      1  0.5156040000000  0.5246760000000  0.5213690000000 1.0
C      1  0.4879510000000  0.5306460000000  0.5158040000000 1.0
C      1  0.5151080000000  0.4603620000000  0.4818530000000 1.0
C      1  0.5287330000000  0.5058110000000  0.5040250000000 1.0
C      1  0.5482760000000  0.4463370000000  0.5857930000000 1.0
C      1  0.4718410000000  0.5645330000000  0.4297630000000 1.0
C      1  0.5305440000000  0.5210430000000  0.4483400000000 1.0
C      1  0.4944930000000  0.5184800000000  0.4152700000000 1.0
C      1  0.4908350000000  0.4484020000000  0.4678410000000 1.0
C      1  0.6019610000000  0.5258670000000  0.5389520000000 1.0
C      1  0.4709160000000  0.5291780000000  0.5408730000000 1.0
C      1  0.4731210000000  0.5913870000000  0.5015500000000 1.0
C      1  0.4915640000000  0.4418260000000  0.5235920000000 1.0
C      1  0.4448810000000  0.5478200000000  0.4653950000000 1.0
C      1  0.4632350000000  0.5696060000000  0.4577370000000 1.0
C      1  0.5962700000000  0.5449300000000  0.4152280000000 1.0
C      1  0.5562220000000  0.5047430000000  0.5772250000000 1.0
C      1  0.5989810000000  0.5485870000000  0.5201960000000 1.0
C      1  0.5159270000000  0.5744390000000  0.5866260000000 1.0
C      1  0.5470790000000  0.5131320000000  0.6030120000000 1.0
C      1  0.3932630000000  0.4789200000000  0.5158960000000 1.0
C      1  0.5172790000000  0.5688580000000  0.4466240000000 1.0
C      1  0.5755260000000  0.5699440000000  0.4836600000000 1.0
C      1  0.4751870000000  0.4174220000000  0.5768580000000 1.0
C      1  0.5184110000000  0.5230280000000  0.5498990000000 1.0
C      1  0.5054540000000  0.5052570000000  0.4406940000000 1.0
C      1  0.4411710000000  0.5026810000000  0.4444480000000 1.0
C      1  0.5574060000000  0.5019640000000  0.5041460000000 1.0
C      1  0.4217520000000  0.5197000000000  0.5243480000000 1.0
C      1  0.5419210000000  0.4181170000000  0.4427110000000 1.0
C      1  0.4888500000000  0.4567070000000  0.4399300000000 1.0
C      1  0.5864220000000  0.5646470000000  0.5637700000000 1.0
C      1  0.5165000000000  0.4495520000000  0.5108170000000 1.0
C      1  0.5623180000000  0.4619480000000  0.5354130000000 1.0
C      1  0.5528910000000  0.5220740000000  0.3933170000000 1.0
C      1  0.4053640000000  0.4527960000000  0.5117580000000 1.0
C      1  0.5498650000000  0.4938180000000  0.3864190000000 1.0
C      1  0.4804520000000  0.5838470000000  0.4754450000000 1.0
C      1  0.4105280000000  0.4448350000000  0.4842310000000 1.0
C      1  0.4942910000000  0.3973680000000  0.4439520000000 1.0
C      1  0.4819470000000  0.5908690000000  0.5485000000000 1.0
C      1  0.4098690000000  0.4575830000000  0.5599780000000 1.0
C      1  0.4890380000000  0.5049990000000  0.4689660000000 1.0
C      1  0.4506310000000  0.4996890000000  0.3986270000000 1.0
C      1  0.4550770000000  0.5424090000000  0.4199290000000 1.0
C      1  0.5554910000000  0.5875410000000  0.4827650000000 1.0
C      1  0.5736410000000  0.4853080000000  0.5224310000000 1.0
C      1  0.4613420000000  0.4905440000000  0.4620840000000 1.0
C      1  0.5815880000000  0.4946040000000  0.5769060000000 1.0
C      1  0.4621380000000  0.4169590000000  0.5517890000000 1.0
C      1  0.4367680000000  0.5116160000000  0.5013000000000 1.0
C      1  0.4395070000000  0.5317980000000  0.4423110000000 1.0
C      1  0.4478360000000  0.3907030000000  0.4326200000000 1.0
C      1  0.4668490000000  0.4015200000000  0.4490890000000 1.0
C      1  0.5471910000000  0.4650510000000  0.6075720000000 1.0
C      1  0.5756490000000  0.5340650000000  0.4035720000000 1.0
C      1  0.5497070000000  0.4451520000000  0.4418890000000 1.0
C      1  0.5627850000000  0.4730750000000  0.3998990000000 1.0
C      1  0.5422250000000  0.5643910000000  0.5902250000000 1.0
C      1  0.4678660000000  0.5208760000000  0.4057300000000 1.0
C      1  0.4797200000000  0.3935850000000  0.5141660000000 1.0
C      1  0.5172420000000  0.5183450000000  0.3654700000000 1.0
C      1  0.4354190000000  0.4219180000000  0.5431280000000 1.0
C      1  0.5113060000000  0.4753520000000  0.4371440000000 1.0
C      1  0.4530270000000  0.5900850000000  0.5450920000000 1.0
C      1  0.5953400000000  0.5720730000000  0.5368000000000 1.0
C      1  0.5004730000000  0.4207500000000  0.5857730000000 1.0
C      1  0.4961110000000  0.5842290000000  0.5716070000000 1.0
C      1  0.5227230000000  0.4767980000000  0.5513610000000 1.0
C      1  0.5206380000000  0.5986470000000  0.5150640000000 1.0
C      1  0.5278090000000  0.5359230000000  0.3864850000000 1.0
C      1  0.5358010000000  0.4901040000000  0.6160860000000 1.0
C      1  0.4242160000000  0.4793360000000  0.5708780000000 1.0
C      1  0.4485730000000  0.5904580000000  0.5165340000000 1.0
C      1  0.5107900000000  0.4906040000000  0.4870630000000 1.0
C      1  0.5263030000000  0.4281810000000  0.5850250000000 1.0
C      1  0.5967200000000  0.4991700000000  0.5316870000000 1.0
C      1  0.5082650000000  0.4692620000000  0.3690770000000 1.0
C      1  0.5080090000000  0.4911570000000  0.6208930000000 1.0
C      1  0.3976220000000  0.5043410000000  0.5250760000000 1.0
C      1  0.5653740000000  0.4501580000000  0.5622760000000 1.0
C      1  0.4353780000000  0.4904320000000  0.4192890000000 1.0
C      1  0.5003290000000  0.5642340000000  0.4238640000000 1.0
C      1  0.5642270000000  0.4558190000000  0.4202750000000 1.0
C      1  0.5457260000000  0.5410500000000  0.6058800000000 1.0
C      1  0.4595020000000  0.4143010000000  0.4739820000000 1.0
C      1  0.4511050000000  0.5314680000000  0.4872000000000 1.0
C      1  0.5621250000000  0.5760030000000  0.5728370000000 1.0
END
