TITL C-627109-622-960 -3.23451893619163e-07 125000 -887.604236321864 0 0 146 (C1) n - 1
REM
REM in /home/nfs/bkarasulu/CARBON/AIRSS/Generating-Clusters/LCBOP/Only-C1/SD-CG/FIRE-CG
REM
REM
REM
REM
REM
REM ./C.cell (11c1c37f851c82e70ff6c80c92926a4b)
REM AIRSS Version 0.9.1 bugfix July 2018 build 013d7b7c2542+ Fri, 06 Jul 2018 19:26:36 +0100
REM compiler GCC version 9.2.1 20190827 (Red Hat 9.2.1-1)
REM options -cpp -mtune=generic -march=x86-64 -g -O0 -fpre-include=/usr/include/finclude/math-vector-fortran.h
REM seed -1694511844 242341125 1664131226 -1685029388 1921774469 2141707807 2039355624 -1615978952 2129407275 -323968324 411870130 -1721618551 393106760 1847533826 -1164543750 -824664614 1799193125 -14490609 1080620839 517319146 1654106939 -2138377478 -2068292510 -333972320 -1951839316 918180457 508267892 1400123536 -1822296862 -1319429955 2028104963 138616661 1761015020
REM
CELL 1.54180   50.00000   50.00000   50.00000   90.00000   90.00000   90.00000
LATT -1
SFAC C  
C      1  0.5244750000000  0.6119220000000  0.5066190000000 1.0
C      1  0.5856560000000  0.4343290000000  0.4739860000000 1.0
C      1  0.4608330000000  0.4862810000000  0.5867690000000 1.0
C      1  0.4629170000000  0.4872480000000  0.4042770000000 1.0
C      1  0.4834840000000  0.3968350000000  0.4637100000000 1.0
C      1  0.4844600000000  0.4271380000000  0.5178000000000 1.0
C      1  0.3977600000000  0.4796590000000  0.4904930000000 1.0
C      1  0.5086150000000  0.6363920000000  0.4496210000000 1.0
C      1  0.4814070000000  0.4454290000000  0.5903170000000 1.0
C      1  0.5139990000000  0.4836930000000  0.4599420000000 1.0
C      1  0.4852050000000  0.5936470000000  0.4450390000000 1.0
C      1  0.5247090000000  0.5752190000000  0.5362840000000 1.0
C      1  0.5377350000000  0.5541800000000  0.4953800000000 1.0
C      1  0.6189670000000  0.5098410000000  0.4801440000000 1.0
C      1  0.5964220000000  0.5324940000000  0.5192240000000 1.0
C      1  0.5030140000000  0.4559320000000  0.5748310000000 1.0
C      1  0.5390890000000  0.4512450000000  0.5156000000000 1.0
C      1  0.4805260000000  0.5330840000000  0.4973570000000 1.0
C      1  0.5670880000000  0.4046140000000  0.5041280000000 1.0
C      1  0.4160290000000  0.5304550000000  0.4478150000000 1.0
C      1  0.5790070000000  0.4920860000000  0.5549010000000 1.0
C      1  0.5382920000000  0.5310850000000  0.5115180000000 1.0
C      1  0.5517570000000  0.4559010000000  0.5866510000000 1.0
C      1  0.4459610000000  0.5347950000000  0.5992960000000 1.0
C      1  0.4995780000000  0.5320310000000  0.4007260000000 1.0
C      1  0.5313560000000  0.4370950000000  0.4169490000000 1.0
C      1  0.5358210000000  0.4246710000000  0.5284150000000 1.0
C      1  0.4843440000000  0.5927650000000  0.5114900000000 1.0
C      1  0.5075820000000  0.5045920000000  0.3979880000000 1.0
C      1  0.4995630000000  0.5371020000000  0.5881110000000 1.0
C      1  0.4257410000000  0.5635830000000  0.5048920000000 1.0
C      1  0.5011720000000  0.5131280000000  0.5685070000000 1.0
C      1  0.4703240000000  0.5365530000000  0.4715770000000 1.0
C      1  0.4664890000000  0.4769330000000  0.4680520000000 1.0
C      1  0.5226910000000  0.5998210000000  0.4793950000000 1.0
C      1  0.4989780000000  0.5704670000000  0.5227400000000 1.0
C      1  0.5018280000000  0.5234120000000  0.5397740000000 1.0
C      1  0.4562360000000  0.4585230000000  0.5864550000000 1.0
C      1  0.4126350000000  0.5400130000000  0.4978810000000 1.0
C      1  0.4633850000000  0.5488940000000  0.5445720000000 1.0
C      1  0.5263990000000  0.4888940000000  0.4129840000000 1.0
C      1  0.4252280000000  0.4206800000000  0.5071940000000 1.0
C      1  0.4557350000000  0.5573860000000  0.4211300000000 1.0
C      1  0.5212540000000  0.3814810000000  0.5034240000000 1.0
C      1  0.4943290000000  0.4614990000000  0.5485880000000 1.0
C      1  0.4860400000000  0.5436080000000  0.5244340000000 1.0
C      1  0.5409560000000  0.3991770000000  0.5147250000000 1.0
C      1  0.6064410000000  0.4407000000000  0.4565230000000 1.0
C      1  0.5051750000000  0.6094480000000  0.4582620000000 1.0
C      1  0.4613950000000  0.4910420000000  0.5208250000000 1.0
C      1  0.4842450000000  0.5658320000000  0.6524130000000 1.0
C      1  0.4785090000000  0.4422210000000  0.4434970000000 1.0
C      1  0.4723690000000  0.5048540000000  0.5692900000000 1.0
C      1  0.5825740000000  0.5078150000000  0.4473110000000 1.0
C      1  0.4042420000000  0.5403350000000  0.4710510000000 1.0
C      1  0.4593300000000  0.5977480000000  0.4998450000000 1.0
C      1  0.4932360000000  0.4174920000000  0.4436440000000 1.0
C      1  0.4708340000000  0.5186900000000  0.4493820000000 1.0
C      1  0.5272200000000  0.4698150000000  0.5812560000000 1.0
C      1  0.6001490000000  0.5226760000000  0.4646170000000 1.0
C      1  0.4178860000000  0.5265280000000  0.4028570000000 1.0
C      1  0.5380680000000  0.4218750000000  0.5564740000000 1.0
C      1  0.4123180000000  0.5052550000000  0.5651720000000 1.0
C      1  0.4775680000000  0.5475820000000  0.4049550000000 1.0
C      1  0.4340570000000  0.4508400000000  0.5705540000000 1.0
C      1  0.6059500000000  0.4679930000000  0.5075650000000 1.0
C      1  0.5045920000000  0.3930320000000  0.4833370000000 1.0
C      1  0.4482990000000  0.6226760000000  0.4981270000000 1.0
C      1  0.3901590000000  0.4382430000000  0.4181120000000 1.0
C      1  0.5451300000000  0.5315850000000  0.5405070000000 1.0
C      1  0.4021140000000  0.4933340000000  0.5167150000000 1.0
C      1  0.4727590000000  0.6007390000000  0.5586650000000 1.0
C      1  0.5623510000000  0.4931020000000  0.5043080000000 1.0
C      1  0.5680920000000  0.5976270000000  0.5281160000000 1.0
C      1  0.5229570000000  0.4212750000000  0.4387780000000 1.0
C      1  0.5343770000000  0.5552160000000  0.5543430000000 1.0
C      1  0.5488870000000  0.5412220000000  0.4392770000000 1.0
C      1  0.6001100000000  0.5582030000000  0.5249000000000 1.0
C      1  0.5655510000000  0.4590260000000  0.6099690000000 1.0
C      1  0.4166630000000  0.4803180000000  0.4647330000000 1.0
C      1  0.5901580000000  0.5826950000000  0.5279980000000 1.0
C      1  0.4568770000000  0.3961730000000  0.4747510000000 1.0
C      1  0.4438870000000  0.5015820000000  0.5021900000000 1.0
C      1  0.4197220000000  0.5152720000000  0.5091660000000 1.0
C      1  0.4296860000000  0.5429880000000  0.4239000000000 1.0
C      1  0.4582450000000  0.5621170000000  0.4680150000000 1.0
C      1  0.4749260000000  0.5414970000000  0.6047120000000 1.0
C      1  0.5381620000000  0.4203280000000  0.4641430000000 1.0
C      1  0.4504310000000  0.4457190000000  0.4492090000000 1.0
C      1  0.5514830000000  0.5060980000000  0.5549080000000 1.0
C      1  0.4988570000000  0.6168850000000  0.5198070000000 1.0
C      1  0.4639400000000  0.5027640000000  0.4284240000000 1.0
C      1  0.6129210000000  0.4683300000000  0.4569590000000 1.0
C      1  0.6187390000000  0.4812660000000  0.4836440000000 1.0
C      1  0.5007780000000  0.4385720000000  0.4979180000000 1.0
C      1  0.4405420000000  0.4735300000000  0.3945890000000 1.0
C      1  0.4178620000000  0.4388620000000  0.5257910000000 1.0
C      1  0.4931970000000  0.6561870000000  0.4605890000000 1.0
C      1  0.4234930000000  0.4523640000000  0.4529150000000 1.0
C      1  0.5154060000000  0.4620220000000  0.5030580000000 1.0
C      1  0.5918960000000  0.4684660000000  0.5397390000000 1.0
C      1  0.4075430000000  0.4845570000000  0.5442730000000 1.0
C      1  0.5322840000000  0.4956420000000  0.4402830000000 1.0
C      1  0.5273390000000  0.6420520000000  0.4304480000000 1.0
C      1  0.5372740000000  0.5052530000000  0.4994310000000 1.0
C      1  0.4860400000000  0.4888380000000  0.3884390000000 1.0
C      1  0.4099330000000  0.5016710000000  0.4426840000000 1.0
C      1  0.4898050000000  0.4680370000000  0.4547910000000 1.0
C      1  0.5347970000000  0.5738580000000  0.4752720000000 1.0
C      1  0.5175670000000  0.4059320000000  0.5674550000000 1.0
C      1  0.5969520000000  0.5036700000000  0.5739340000000 1.0
C      1  0.6127990000000  0.5154230000000  0.5909510000000 1.0
C      1  0.4026370000000  0.4369510000000  0.4419160000000 1.0
C      1  0.5832650000000  0.5108140000000  0.5108790000000 1.0
C      1  0.5321010000000  0.4618650000000  0.4065400000000 1.0
C      1  0.5598290000000  0.4376020000000  0.5662500000000 1.0
C      1  0.5280220000000  0.4966870000000  0.5707710000000 1.0
C      1  0.4884280000000  0.6200320000000  0.5465590000000 1.0
C      1  0.4644600000000  0.5741900000000  0.4432210000000 1.0
C      1  0.3947720000000  0.4561350000000  0.3985040000000 1.0
C      1  0.4080810000000  0.5010270000000  0.4132260000000 1.0
C      1  0.5216920000000  0.5539790000000  0.5800980000000 1.0
C      1  0.5189910000000  0.4864420000000  0.4881600000000 1.0
C      1  0.5817310000000  0.4405260000000  0.5464770000000 1.0
C      1  0.4936210000000  0.3991390000000  0.5567830000000 1.0
C      1  0.5961740000000  0.4841040000000  0.4395390000000 1.0
C      1  0.5648540000000  0.4153660000000  0.4763510000000 1.0
C      1  0.5160270000000  0.4200660000000  0.4827730000000 1.0
C      1  0.4183360000000  0.4574270000000  0.5475510000000 1.0
C      1  0.4433460000000  0.3999260000000  0.4998690000000 1.0
C      1  0.4130740000000  0.4773680000000  0.3988080000000 1.0
C      1  0.5846020000000  0.4529760000000  0.4951080000000 1.0
C      1  0.4461010000000  0.5754610000000  0.4897510000000 1.0
C      1  0.4437840000000  0.4881390000000  0.4774860000000 1.0
C      1  0.5836880000000  0.4183310000000  0.5255690000000 1.0
C      1  0.4572830000000  0.3894110000000  0.5226580000000 1.0
C      1  0.5421370000000  0.5648070000000  0.4497280000000 1.0
C      1  0.4545510000000  0.5249390000000  0.5572400000000 1.0
C      1  0.5548030000000  0.5138930000000  0.4431810000000 1.0
C      1  0.4795580000000  0.5540020000000  0.6296720000000 1.0
C      1  0.4624650000000  0.5755700000000  0.5558230000000 1.0
C      1  0.5614900000000  0.4647350000000  0.5052780000000 1.0
C      1  0.4774170000000  0.4734950000000  0.5321500000000 1.0
C      1  0.4320930000000  0.5242470000000  0.5752170000000 1.0
C      1  0.4779000000000  0.4048350000000  0.5341450000000 1.0
C      1  0.5404650000000  0.5967160000000  0.5252480000000 1.0
END
