TITL C-627113-6568-1872 -1.72741449643685e-06 125000 -797.881705447697 0 0 131 (C1) n - 1
REM
REM in /home/nfs/bkarasulu/CARBON/AIRSS/Generating-Clusters/LCBOP/Only-C1/SD-CG/FIRE-CG
REM
REM
REM
REM
REM
REM ./C.cell (11c1c37f851c82e70ff6c80c92926a4b)
REM AIRSS Version 0.9.1 bugfix July 2018 build 013d7b7c2542+ Fri, 06 Jul 2018 19:26:36 +0100
REM compiler GCC version 9.2.1 20190827 (Red Hat 9.2.1-1)
REM options -cpp -mtune=generic -march=x86-64 -g -O0 -fpre-include=/usr/include/finclude/math-vector-fortran.h
REM seed -716806752 1854100090 960199179 -2089834565 -1654035409 558793918 2120064184 -1544980806 1203290329 2061755013 -116628661 1922466607 -1728183802 1392812487 -1553393797 287892781 1633979832 -1468336190 -500540821 1927241023 -822769946 2054575518 2086089235 699245297 1341973344 387748939 1740138296 -1750325661 -380589355 -1968336343 -125924702 -162522249 -1017772097
REM
CELL 1.54180   50.00000   50.00000   50.00000   90.00000   90.00000   90.00000
LATT -1
SFAC C  
C      1  0.5554810000000  0.4358100000000  0.4444440000000 1.0
C      1  0.6200740000000  0.4757240000000  0.4954920000000 1.0
C      1  0.6035330000000  0.5370640000000  0.5343370000000 1.0
C      1  0.5055010000000  0.5255220000000  0.6000730000000 1.0
C      1  0.5638520000000  0.5644990000000  0.4769190000000 1.0
C      1  0.4457610000000  0.4034380000000  0.4708630000000 1.0
C      1  0.5172700000000  0.5017810000000  0.4001210000000 1.0
C      1  0.4959150000000  0.5532690000000  0.5995740000000 1.0
C      1  0.4747390000000  0.5859950000000  0.4844240000000 1.0
C      1  0.4324550000000  0.5693860000000  0.4669600000000 1.0
C      1  0.4145450000000  0.5401560000000  0.5062700000000 1.0
C      1  0.4338330000000  0.4450330000000  0.4433900000000 1.0
C      1  0.5299000000000  0.4334980000000  0.5583070000000 1.0
C      1  0.5340690000000  0.4908570000000  0.5403610000000 1.0
C      1  0.4430530000000  0.4821070000000  0.5681480000000 1.0
C      1  0.4533380000000  0.4952080000000  0.5459550000000 1.0
C      1  0.4808020000000  0.5021820000000  0.3334040000000 1.0
C      1  0.4788930000000  0.4821970000000  0.5874650000000 1.0
C      1  0.4557650000000  0.5857850000000  0.4620400000000 1.0
C      1  0.5179100000000  0.4397400000000  0.5121680000000 1.0
C      1  0.5075740000000  0.5513490000000  0.4976500000000 1.0
C      1  0.5405160000000  0.5140870000000  0.4535930000000 1.0
C      1  0.4039160000000  0.4917570000000  0.4948380000000 1.0
C      1  0.4801410000000  0.4267140000000  0.5825580000000 1.0
C      1  0.4929280000000  0.6012660000000  0.5301970000000 1.0
C      1  0.4852250000000  0.5014360000000  0.4363000000000 1.0
C      1  0.5798130000000  0.5774640000000  0.5765230000000 1.0
C      1  0.5816580000000  0.5345380000000  0.3980850000000 1.0
C      1  0.6000910000000  0.4889930000000  0.5419790000000 1.0
C      1  0.5717490000000  0.5163300000000  0.4898090000000 1.0
C      1  0.4722640000000  0.4544270000000  0.5868760000000 1.0
C      1  0.4174840000000  0.4399560000000  0.4887210000000 1.0
C      1  0.4802810000000  0.5287950000000  0.4391780000000 1.0
C      1  0.4212810000000  0.5560010000000  0.5814890000000 1.0
C      1  0.5092970000000  0.4874090000000  0.3762880000000 1.0
C      1  0.4437100000000  0.5218170000000  0.5413810000000 1.0
C      1  0.4630270000000  0.6041530000000  0.3893970000000 1.0
C      1  0.5192230000000  0.4796070000000  0.4851870000000 1.0
C      1  0.5017930000000  0.5771830000000  0.4479440000000 1.0
C      1  0.4272260000000  0.5637500000000  0.6283610000000 1.0
C      1  0.5173900000000  0.4632730000000  0.4328120000000 1.0
C      1  0.4195600000000  0.5351330000000  0.5342300000000 1.0
C      1  0.4924020000000  0.4149250000000  0.4680130000000 1.0
C      1  0.4493390000000  0.4779100000000  0.4953170000000 1.0
C      1  0.5203160000000  0.5955910000000  0.5381030000000 1.0
C      1  0.4120790000000  0.4301540000000  0.5144950000000 1.0
C      1  0.4948320000000  0.4950860000000  0.3541860000000 1.0
C      1  0.5003760000000  0.4433280000000  0.3929460000000 1.0
C      1  0.5545540000000  0.5857030000000  0.4950590000000 1.0
C      1  0.5274160000000  0.4368130000000  0.4408040000000 1.0
C      1  0.5561520000000  0.4796840000000  0.5253700000000 1.0
C      1  0.4609930000000  0.4456810000000  0.4317460000000 1.0
C      1  0.5780180000000  0.4711280000000  0.5411480000000 1.0
C      1  0.4390260000000  0.5590600000000  0.6039010000000 1.0
C      1  0.4288730000000  0.4257790000000  0.4657310000000 1.0
C      1  0.5218320000000  0.4609620000000  0.3828260000000 1.0
C      1  0.4841150000000  0.6038050000000  0.5036830000000 1.0
C      1  0.4232610000000  0.5480860000000  0.4501940000000 1.0
C      1  0.4677280000000  0.5577320000000  0.6035750000000 1.0
C      1  0.5769230000000  0.4502520000000  0.4332110000000 1.0
C      1  0.4913650000000  0.4433070000000  0.4716380000000 1.0
C      1  0.4219610000000  0.4698070000000  0.4849220000000 1.0
C      1  0.5669780000000  0.5234690000000  0.5657620000000 1.0
C      1  0.5394190000000  0.4094580000000  0.5650530000000 1.0
C      1  0.4778720000000  0.5398360000000  0.4649130000000 1.0
C      1  0.5067920000000  0.4891940000000  0.4235250000000 1.0
C      1  0.5518450000000  0.5598010000000  0.4501640000000 1.0
C      1  0.4618880000000  0.5398510000000  0.5542090000000 1.0
C      1  0.4732710000000  0.5215770000000  0.4870750000000 1.0
C      1  0.4750900000000  0.5872380000000  0.4390210000000 1.0
C      1  0.4448590000000  0.4551800000000  0.5742510000000 1.0
C      1  0.5162070000000  0.4482380000000  0.5389310000000 1.0
C      1  0.4230850000000  0.5647710000000  0.4939290000000 1.0
C      1  0.4999000000000  0.5261930000000  0.5348970000000 1.0
C      1  0.5464860000000  0.5007580000000  0.4005130000000 1.0
C      1  0.5270080000000  0.5007260000000  0.4716890000000 1.0
C      1  0.4689590000000  0.5962920000000  0.4135230000000 1.0
C      1  0.5792180000000  0.5436490000000  0.4902480000000 1.0
C      1  0.4640370000000  0.4143580000000  0.5608070000000 1.0
C      1  0.4729910000000  0.5912550000000  0.5475290000000 1.0
C      1  0.4774780000000  0.4812270000000  0.5345790000000 1.0
C      1  0.4903200000000  0.5295110000000  0.5081960000000 1.0
C      1  0.4102190000000  0.5494770000000  0.5573850000000 1.0
C      1  0.4852060000000  0.5243010000000  0.5585910000000 1.0
C      1  0.6115720000000  0.4673640000000  0.4714310000000 1.0
C      1  0.4759950000000  0.4578100000000  0.4533220000000 1.0
C      1  0.4226550000000  0.4712060000000  0.4531950000000 1.0
C      1  0.5123660000000  0.4122310000000  0.4472140000000 1.0
C      1  0.5076060000000  0.4762520000000  0.5409090000000 1.0
C      1  0.5931430000000  0.5158220000000  0.5506380000000 1.0
C      1  0.5221410000000  0.5874220000000  0.5657350000000 1.0
C      1  0.5566390000000  0.5141830000000  0.5930860000000 1.0
C      1  0.5608140000000  0.5231820000000  0.4117390000000 1.0
C      1  0.5168290000000  0.3886360000000  0.4341540000000 1.0
C      1  0.5706280000000  0.5533640000000  0.5704620000000 1.0
C      1  0.5529560000000  0.5334070000000  0.4377130000000 1.0
C      1  0.4636770000000  0.4964170000000  0.4798350000000 1.0
C      1  0.5128210000000  0.3693360000000  0.5530860000000 1.0
C      1  0.4649190000000  0.4645990000000  0.5145470000000 1.0
C      1  0.4398740000000  0.4311370000000  0.5594070000000 1.0
C      1  0.4079570000000  0.5190690000000  0.4873530000000 1.0
C      1  0.4143660000000  0.5223380000000  0.4587120000000 1.0
C      1  0.5103300000000  0.4538440000000  0.4892750000000 1.0
C      1  0.6187740000000  0.4841130000000  0.5210760000000 1.0
C      1  0.5324640000000  0.5181530000000  0.6048060000000 1.0
C      1  0.4172600000000  0.4977460000000  0.4441550000000 1.0
C      1  0.4199100000000  0.4279210000000  0.5400240000000 1.0
C      1  0.5427520000000  0.5172180000000  0.5484710000000 1.0
C      1  0.5293360000000  0.5756430000000  0.4422120000000 1.0
C      1  0.5373400000000  0.5826200000000  0.5181100000000 1.0
C      1  0.4707000000000  0.4095340000000  0.5122400000000 1.0
C      1  0.4885240000000  0.3750860000000  0.5433990000000 1.0
C      1  0.5637060000000  0.4936710000000  0.5017580000000 1.0
C      1  0.5715880000000  0.4585210000000  0.4065910000000 1.0
C      1  0.5266570000000  0.5365670000000  0.5370750000000 1.0
C      1  0.4951250000000  0.4125920000000  0.6004520000000 1.0
C      1  0.5282460000000  0.5557470000000  0.5164600000000 1.0
C      1  0.4732630000000  0.4854790000000  0.4558000000000 1.0
C      1  0.5892140000000  0.6012970000000  0.5813330000000 1.0
C      1  0.5977410000000  0.4593800000000  0.4498700000000 1.0
C      1  0.5500840000000  0.4713340000000  0.3934690000000 1.0
C      1  0.5336410000000  0.3834460000000  0.5623700000000 1.0
C      1  0.4714620000000  0.4022130000000  0.4837390000000 1.0
C      1  0.5977140000000  0.5493370000000  0.5110080000000 1.0
C      1  0.4665520000000  0.4372590000000  0.5149130000000 1.0
C      1  0.4725640000000  0.3975700000000  0.5384780000000 1.0
C      1  0.4619720000000  0.5676270000000  0.5529620000000 1.0
C      1  0.4897050000000  0.5084350000000  0.5826500000000 1.0
C      1  0.5119730000000  0.5730430000000  0.5863710000000 1.0
C      1  0.4939520000000  0.5641380000000  0.4747830000000 1.0
C      1  0.4769670000000  0.4408490000000  0.4078440000000 1.0
END
