TITL C-627107-135-1965 6.17547958594114 125000 -295.360424361161 0 0 50 (C1) n - 1
REM
REM in /home/nfs/bkarasulu/CARBON/AIRSS/Generating-Clusters/LCBOP/Only-C1/SD-CG/FIRE-CG
REM
REM
REM
REM
REM
REM ./C.cell (11c1c37f851c82e70ff6c80c92926a4b)
REM AIRSS Version 0.9.1 bugfix July 2018 build 013d7b7c2542+ Fri, 06 Jul 2018 19:26:36 +0100
REM compiler GCC version 9.2.1 20190827 (Red Hat 9.2.1-1)
REM options -cpp -mtune=generic -march=x86-64 -g -O0 -fpre-include=/usr/include/finclude/math-vector-fortran.h
REM seed 1982415426 337479626 610725599 1525071842 1199546468 568725443 -1498624770 1311551657 -1672515440 935132547 -225722951 902911520 51781648 1919021865 1506393554 38891145 1546165597 640893436 -1942671704 -985750399 2068135357 1706038034 -1814516246 1200345405 1676266978 739106333 392812375 297147373 1487013961 1988024372 891810782 -1296148874 -508999297
REM
CELL 1.54180   50.00000   50.00000   50.00000   90.00000   90.00000   90.00000
LATT -1
SFAC C  
C      1  0.4235430000000  0.4291740000000  0.5156240000000 1.0
C      1  0.4429720000000  0.4459770000000  0.5046650000000 1.0
C      1  0.4486460000000  0.5127480000000  0.5180940000000 1.0
C      1  0.4560950000000  0.4651360000000  0.5207640000000 1.0
C      1  0.4870980000000  0.4196150000000  0.5445830000000 1.0
C      1  0.5485420000000  0.5209070000000  0.4536360000000 1.0
C      1  0.4996210000000  0.5886490000000  0.5057930000000 1.0
C      1  0.5250510000000  0.4747920000000  0.5684310000000 1.0
C      1  0.4781730000000  0.3970990000000  0.5572220000000 1.0
C      1  0.5807380000000  0.5167480000000  0.5094740000000 1.0
C      1  0.5346100000000  0.5603860000000  0.4870640000000 1.0
C      1  0.5752670000000  0.5150410000000  0.4606830000000 1.0
C      1  0.5389720000000  0.4162280000000  0.4912060000000 1.0
C      1  0.5192510000000  0.4770260000000  0.4470960000000 1.0
C      1  0.5415170000000  0.6433340000000  0.4356110000000 1.0
C      1  0.5376560000000  0.5449040000000  0.4636830000000 1.0
C      1  0.5160290000000  0.4991800000000  0.5111230000000 1.0
C      1  0.5274910000000  0.6054240000000  0.4698700000000 1.0
C      1  0.5377170000000  0.4928270000000  0.5534230000000 1.0
C      1  0.5641780000000  0.4108120000000  0.4874060000000 1.0
C      1  0.4620830000000  0.5729140000000  0.5385890000000 1.0
C      1  0.5485520000000  0.6622700000000  0.4184500000000 1.0
C      1  0.5344850000000  0.6244020000000  0.4527680000000 1.0
C      1  0.4438130000000  0.5242900000000  0.5435010000000 1.0
C      1  0.4353440000000  0.4586980000000  0.4581640000000 1.0
C      1  0.5558510000000  0.5249980000000  0.5198850000000 1.0
C      1  0.4228260000000  0.4736240000000  0.4408560000000 1.0
C      1  0.5884700000000  0.5128290000000  0.4839930000000 1.0
C      1  0.4707080000000  0.4268010000000  0.4688980000000 1.0
C      1  0.4910070000000  0.4944800000000  0.5035910000000 1.0
C      1  0.5370930000000  0.5056570000000  0.5285980000000 1.0
C      1  0.5121710000000  0.4231600000000  0.4950030000000 1.0
C      1  0.5048910000000  0.4574240000000  0.5697260000000 1.0
C      1  0.4494990000000  0.4438310000000  0.4770910000000 1.0
C      1  0.4999180000000  0.4182430000000  0.5196870000000 1.0
C      1  0.4802630000000  0.5852360000000  0.5236290000000 1.0
C      1  0.4834900000000  0.4453070000000  0.5562440000000 1.0
C      1  0.4654680000000  0.4028810000000  0.4566930000000 1.0
C      1  0.4611740000000  0.4611780000000  0.5487590000000 1.0
C      1  0.5554700000000  0.6808940000000  0.4015700000000 1.0
C      1  0.5457090000000  0.5496610000000  0.5106640000000 1.0
C      1  0.4416520000000  0.5055330000000  0.5644890000000 1.0
C      1  0.4483020000000  0.5516130000000  0.5466170000000 1.0
C      1  0.4066220000000  0.4128620000000  0.5268770000000 1.0
C      1  0.4974950000000  0.4350500000000  0.4736920000000 1.0
C      1  0.5089170000000  0.4549450000000  0.4576330000000 1.0
C      1  0.4487540000000  0.4795750000000  0.5662320000000 1.0
C      1  0.5204620000000  0.5849260000000  0.4874760000000 1.0
C      1  0.5320950000000  0.5001700000000  0.4445980000000 1.0
C      1  0.4642460000000  0.4905390000000  0.5105770000000 1.0
END
