TITL C-627113-6568-1962 2707.41678408585 125000 -1181.4474043914 0 0 190 (C1) n - 1
REM
REM in /home/nfs/bkarasulu/CARBON/AIRSS/Generating-Clusters/LCBOP/Only-C1/SD-CG/FIRE-CG
REM
REM
REM
REM
REM
REM ./C.cell (11c1c37f851c82e70ff6c80c92926a4b)
REM AIRSS Version 0.9.1 bugfix July 2018 build 013d7b7c2542+ Fri, 06 Jul 2018 19:26:36 +0100
REM compiler GCC version 9.2.1 20190827 (Red Hat 9.2.1-1)
REM options -cpp -mtune=generic -march=x86-64 -g -O0 -fpre-include=/usr/include/finclude/math-vector-fortran.h
REM seed 779913070 297043798 1552325506 -243066619 -1928373779 1070488762 1171567302 2977539 1491156434 -1014031492 1114219762 -799933093 423905199 4440358 -1935085494 -2041363790 -2071439168 -139006384 1255958414 -1850112481 1964548468 1030587971 -301451551 1928111307 1658779985 586649545 2091076272 915951389 -1533342314 239715942 143815068 763802691 -1043048575
REM
CELL 1.54180   50.00000   50.00000   50.00000   90.00000   90.00000   90.00000
LATT -1
SFAC C  
C      1  0.3999560000000  0.4992670000000  0.4308560000000 1.0
C      1  0.4830250000000  0.4885270000000  0.6159330000000 1.0
C      1  0.4972160000000  0.5128670000000  0.3930350000000 1.0
C      1  0.4253630000000  0.4933510000000  0.5788670000000 1.0
C      1  0.4337120000000  0.5794010000000  0.6199400000000 1.0
C      1  0.4678630000000  0.3969690000000  0.4980080000000 1.0
C      1  0.5517470000000  0.3972360000000  0.4877500000000 1.0
C      1  0.5062030000000  0.5538350000000  0.4872840000000 1.0
C      1  0.5279700000000  0.4740260000000  0.3839700000000 1.0
C      1  0.4836000000000  0.5357990000000  0.6151030000000 1.0
C      1  0.4702830000000  0.4480440000000  0.5551420000000 1.0
C      1  0.4357070000000  0.5333940000000  0.5279920000000 1.0
C      1  0.4758130000000  0.5574920000000  0.6309050000000 1.0
C      1  0.5602880000000  0.5119060000000  0.4746620000000 1.0
C      1  0.5599670000000  0.3974200000000  0.5173390000000 1.0
C      1  0.4987630000000  0.5026480000000  0.5024840000000 1.0
C      1  0.6265110000000  0.5265050000000  0.4645620000000 1.0
C      1  0.4489860000000  0.4299990000000  0.5616630000000 1.0
C      1  0.6086490000000  0.5226640000000  0.4432950000000 1.0
C      1  0.5993650000000  0.5147600000000  0.5370460000000 1.0
C      1  0.5315830000000  0.6133010000000  0.5478970000000 1.0
C      1  0.4982750000000  0.4264010000000  0.4092430000000 1.0
C      1  0.5342900000000  0.5138010000000  0.5625130000000 1.0
C      1  0.4719740000000  0.5066300000000  0.5448080000000 1.0
C      1  0.4830560000000  0.5101220000000  0.4803760000000 1.0
C      1  0.5688550000000  0.4627810000000  0.4102300000000 1.0
C      1  0.3980020000000  0.4506470000000  0.5226400000000 1.0
C      1  0.4059070000000  0.5257850000000  0.5094020000000 1.0
C      1  0.4986160000000  0.4035810000000  0.4970450000000 1.0
C      1  0.4525360000000  0.4632870000000  0.5131540000000 1.0
C      1  0.5733260000000  0.5888840000000  0.4288180000000 1.0
C      1  0.5962060000000  0.5458950000000  0.4315080000000 1.0
C      1  0.3917620000000  0.5184240000000  0.4120590000000 1.0
C      1  0.4066200000000  0.5609240000000  0.4339910000000 1.0
C      1  0.5738060000000  0.4195860000000  0.5308450000000 1.0
C      1  0.4812270000000  0.4598430000000  0.6160860000000 1.0
C      1  0.4053410000000  0.4773960000000  0.5659920000000 1.0
C      1  0.4560960000000  0.5747440000000  0.6361810000000 1.0
C      1  0.4260730000000  0.5779800000000  0.4952040000000 1.0
C      1  0.5278360000000  0.4334650000000  0.4111890000000 1.0
C      1  0.4450620000000  0.4390940000000  0.5013700000000 1.0
C      1  0.5229490000000  0.3963860000000  0.4771950000000 1.0
C      1  0.4841690000000  0.5927900000000  0.5448440000000 1.0
C      1  0.4472090000000  0.5084230000000  0.5327120000000 1.0
C      1  0.4222530000000  0.3977440000000  0.4814060000000 1.0
C      1  0.5235100000000  0.5380010000000  0.5519060000000 1.0
C      1  0.4845220000000  0.4368310000000  0.4630290000000 1.0
C      1  0.4572040000000  0.5734040000000  0.4193740000000 1.0
C      1  0.5616100000000  0.4510320000000  0.5679410000000 1.0
C      1  0.4526570000000  0.4143600000000  0.5162420000000 1.0
C      1  0.5888670000000  0.5710760000000  0.4458710000000 1.0
C      1  0.5410520000000  0.4612970000000  0.4672520000000 1.0
C      1  0.5837930000000  0.5402600000000  0.4050640000000 1.0
C      1  0.4466440000000  0.4414000000000  0.4009620000000 1.0
C      1  0.5408240000000  0.5274520000000  0.4117320000000 1.0
C      1  0.4750930000000  0.4559490000000  0.5280120000000 1.0
C      1  0.5479080000000  0.5722440000000  0.5310990000000 1.0
C      1  0.4206280000000  0.5405230000000  0.5900470000000 1.0
C      1  0.5280280000000  0.5787700000000  0.4104370000000 1.0
C      1  0.3993830000000  0.4765130000000  0.5375720000000 1.0
C      1  0.5716990000000  0.4464750000000  0.5200100000000 1.0
C      1  0.5207570000000  0.4365270000000  0.5243820000000 1.0
C      1  0.5414820000000  0.5376010000000  0.4391130000000 1.0
C      1  0.5814570000000  0.4387900000000  0.4218780000000 1.0
C      1  0.5712730000000  0.4255500000000  0.5591890000000 1.0
C      1  0.5399800000000  0.4173430000000  0.4330210000000 1.0
C      1  0.5958360000000  0.5429210000000  0.5461330000000 1.0
C      1  0.5250400000000  0.5832540000000  0.4386960000000 1.0
C      1  0.4066760000000  0.5521910000000  0.5668040000000 1.0
C      1  0.4375370000000  0.5158330000000  0.5926630000000 1.0
C      1  0.4393670000000  0.4451770000000  0.4503550000000 1.0
C      1  0.4025340000000  0.4640260000000  0.4723320000000 1.0
C      1  0.5163840000000  0.5329560000000  0.3982530000000 1.0
C      1  0.5664700000000  0.5161090000000  0.4045510000000 1.0
C      1  0.5765820000000  0.5165430000000  0.5847280000000 1.0
C      1  0.4920220000000  0.5142040000000  0.5273290000000 1.0
C      1  0.5570070000000  0.5812440000000  0.4054910000000 1.0
C      1  0.5721130000000  0.4675270000000  0.5896110000000 1.0
C      1  0.5913830000000  0.5773440000000  0.4744610000000 1.0
C      1  0.5057430000000  0.6008980000000  0.4472360000000 1.0
C      1  0.5421040000000  0.4930160000000  0.5456020000000 1.0
C      1  0.5029240000000  0.4859780000000  0.3848830000000 1.0
C      1  0.5109500000000  0.4987310000000  0.6194790000000 1.0
C      1  0.4448160000000  0.5608940000000  0.5353740000000 1.0
C      1  0.5590920000000  0.6247410000000  0.4938580000000 1.0
C      1  0.5438220000000  0.4489510000000  0.5132580000000 1.0
C      1  0.4686500000000  0.5926760000000  0.4755030000000 1.0
C      1  0.5353480000000  0.4666080000000  0.4933780000000 1.0
C      1  0.4809440000000  0.5574790000000  0.4208430000000 1.0
C      1  0.5366960000000  0.5619680000000  0.4532940000000 1.0
C      1  0.5534220000000  0.3554790000000  0.5437600000000 1.0
C      1  0.4092230000000  0.4233530000000  0.5267830000000 1.0
C      1  0.4028590000000  0.5793710000000  0.4791320000000 1.0
C      1  0.4763420000000  0.4424920000000  0.3985880000000 1.0
C      1  0.5361630000000  0.5372520000000  0.6020080000000 1.0
C      1  0.5521350000000  0.4626360000000  0.6110530000000 1.0
C      1  0.4368420000000  0.5975980000000  0.5987540000000 1.0
C      1  0.5708900000000  0.6060380000000  0.5117340000000 1.0
C      1  0.4647990000000  0.5128460000000  0.6082190000000 1.0
C      1  0.3987900000000  0.5576420000000  0.4617970000000 1.0
C      1  0.5724720000000  0.5623610000000  0.3906750000000 1.0
C      1  0.4371320000000  0.4998740000000  0.4874170000000 1.0
C      1  0.4023100000000  0.5691940000000  0.5448370000000 1.0
C      1  0.5062240000000  0.5592020000000  0.4049270000000 1.0
C      1  0.6266360000000  0.5533750000000  0.5087250000000 1.0
C      1  0.5333470000000  0.6316650000000  0.4891930000000 1.0
C      1  0.5217010000000  0.4704120000000  0.4497840000000 1.0
C      1  0.4931720000000  0.4361520000000  0.6092140000000 1.0
C      1  0.4222390000000  0.5755590000000  0.5239320000000 1.0
C      1  0.4917190000000  0.6082340000000  0.4702090000000 1.0
C      1  0.4970210000000  0.4483060000000  0.5130810000000 1.0
C      1  0.5142950000000  0.4613770000000  0.5681190000000 1.0
C      1  0.4347500000000  0.4690050000000  0.4060720000000 1.0
C      1  0.4597090000000  0.5801140000000  0.5534100000000 1.0
C      1  0.5994990000000  0.4974100000000  0.4328490000000 1.0
C      1  0.4315840000000  0.4183260000000  0.3970720000000 1.0
C      1  0.5343820000000  0.4826340000000  0.6211650000000 1.0
C      1  0.4960590000000  0.4585740000000  0.4487790000000 1.0
C      1  0.4184550000000  0.5565670000000  0.6134400000000 1.0
C      1  0.4177030000000  0.3962960000000  0.3960950000000 1.0
C      1  0.3984390000000  0.5322180000000  0.4753090000000 1.0
C      1  0.5889650000000  0.4666960000000  0.5322720000000 1.0
C      1  0.4066230000000  0.4056410000000  0.5028830000000 1.0
C      1  0.5395220000000  0.4667990000000  0.5573720000000 1.0
C      1  0.4706330000000  0.5129730000000  0.4076510000000 1.0
C      1  0.4356160000000  0.4178380000000  0.5395980000000 1.0
C      1  0.5451420000000  0.5008650000000  0.5184940000000 1.0
C      1  0.4800280000000  0.4701620000000  0.3907650000000 1.0
C      1  0.4553760000000  0.5439360000000  0.4649720000000 1.0
C      1  0.4520210000000  0.4710200000000  0.4489560000000 1.0
C      1  0.5408190000000  0.5597810000000  0.5549680000000 1.0
C      1  0.5232560000000  0.3949050000000  0.5488210000000 1.0
C      1  0.5327240000000  0.5597520000000  0.4809650000000 1.0
C      1  0.5055580000000  0.6086230000000  0.5552850000000 1.0
C      1  0.3952960000000  0.5020370000000  0.5231880000000 1.0
C      1  0.5035570000000  0.5387520000000  0.5325780000000 1.0
C      1  0.4946520000000  0.4332780000000  0.4886720000000 1.0
C      1  0.5480500000000  0.5620150000000  0.5045100000000 1.0
C      1  0.5865670000000  0.4905050000000  0.5783390000000 1.0
C      1  0.4976310000000  0.5580800000000  0.5131610000000 1.0
C      1  0.5671730000000  0.4239650000000  0.4451740000000 1.0
C      1  0.5524030000000  0.6001390000000  0.5333490000000 1.0
C      1  0.4504320000000  0.4008200000000  0.4735710000000 1.0
C      1  0.5120890000000  0.4084810000000  0.5262580000000 1.0
C      1  0.5407830000000  0.4359000000000  0.6100970000000 1.0
C      1  0.5943020000000  0.3854860000000  0.4644340000000 1.0
C      1  0.5642640000000  0.4473610000000  0.4630650000000 1.0
C      1  0.4116290000000  0.4529950000000  0.4473930000000 1.0
C      1  0.5460150000000  0.3808670000000  0.5371930000000 1.0
C      1  0.4414800000000  0.4243610000000  0.5872830000000 1.0
C      1  0.5822680000000  0.5435130000000  0.5724180000000 1.0
C      1  0.4118190000000  0.4729590000000  0.4245100000000 1.0
C      1  0.5924870000000  0.5122720000000  0.5099150000000 1.0
C      1  0.3900890000000  0.4540250000000  0.4951920000000 1.0
C      1  0.5195550000000  0.4017250000000  0.4477930000000 1.0
C      1  0.5238470000000  0.4904330000000  0.5023570000000 1.0
C      1  0.4750360000000  0.5302830000000  0.4345870000000 1.0
C      1  0.5663610000000  0.5094780000000  0.5015730000000 1.0
C      1  0.5477510000000  0.5168670000000  0.5872780000000 1.0
C      1  0.5171860000000  0.4233910000000  0.5991590000000 1.0
C      1  0.5719920000000  0.4011960000000  0.4662700000000 1.0
C      1  0.4571070000000  0.4875890000000  0.4006940000000 1.0
C      1  0.4578510000000  0.4249540000000  0.4582520000000 1.0
C      1  0.5891960000000  0.5834190000000  0.5039280000000 1.0
C      1  0.3933350000000  0.5451450000000  0.4147110000000 1.0
C      1  0.5575090000000  0.5586940000000  0.5776180000000 1.0
C      1  0.4140050000000  0.4899880000000  0.4748680000000 1.0
C      1  0.4965250000000  0.4042300000000  0.4292860000000 1.0
C      1  0.4503930000000  0.5706200000000  0.4787750000000 1.0
C      1  0.5191420000000  0.4988710000000  0.4493870000000 1.0
C      1  0.5071620000000  0.6255990000000  0.4863860000000 1.0
C      1  0.5421740000000  0.4563090000000  0.4003670000000 1.0
C      1  0.4784280000000  0.4923760000000  0.5675130000000 1.0
C      1  0.5407750000000  0.5150610000000  0.4555440000000 1.0
C      1  0.4902550000000  0.5836950000000  0.5193980000000 1.0
C      1  0.5780720000000  0.4908470000000  0.4143700000000 1.0
C      1  0.4429920000000  0.4889330000000  0.5125280000000 1.0
C      1  0.6336710000000  0.5392190000000  0.4870040000000 1.0
C      1  0.5189780000000  0.4052980000000  0.5759120000000 1.0
C      1  0.6027670000000  0.5627450000000  0.5229470000000 1.0
C      1  0.4902990000000  0.5073560000000  0.4511730000000 1.0
C      1  0.4309380000000  0.5733790000000  0.4258250000000 1.0
C      1  0.4774410000000  0.4799110000000  0.4454720000000 1.0
C      1  0.5957590000000  0.4890360000000  0.5505150000000 1.0
C      1  0.3894310000000  0.4619510000000  0.5823900000000 1.0
C      1  0.4462520000000  0.5936940000000  0.5740820000000 1.0
C      1  0.4869220000000  0.4658360000000  0.5694480000000 1.0
C      1  0.4558960000000  0.5199610000000  0.4795780000000 1.0
C      1  0.5118720000000  0.5280370000000  0.6143120000000 1.0
C      1  0.4011150000000  0.5088150000000  0.4584750000000 1.0
END
