TITL C-627106-156-1662 102977.805556524 125000 -831.620987375691 0 0 140 (C1) n - 1
REM
REM in /home/nfs/bkarasulu/CARBON/AIRSS/Generating-Clusters/LCBOP/Only-C1/SD-CG/FIRE-CG
REM
REM
REM
REM
REM
REM ./C.cell (11c1c37f851c82e70ff6c80c92926a4b)
REM AIRSS Version 0.9.1 bugfix July 2018 build 013d7b7c2542+ Fri, 06 Jul 2018 19:26:36 +0100
REM compiler GCC version 9.2.1 20190827 (Red Hat 9.2.1-1)
REM options -cpp -mtune=generic -march=x86-64 -g -O0 -fpre-include=/usr/include/finclude/math-vector-fortran.h
REM seed 1124348305 139519475 -544924733 984745205 974428214 -2138423824 -958220449 1280127649 893248669 1165472805 335827488 -1651116342 -829492021 -2025890806 -16042455 -843309592 -444663740 556082977 835792269 -1822348823 747328887 -142645778 -1034437752 -1592991843 72722791 212879866 -383023737 -1157888886 -867014202 -214403759 -145833726 -240547059 -1691233400
REM
CELL 1.54180   50.00000   50.00000   50.00000   90.00000   90.00000   90.00000
LATT -1
SFAC C  
C      1  0.5653370000000  0.4373240000000  0.5104580000000 1.0
C      1  0.5629890000000  0.6034100000000  0.5284280000000 1.0
C      1  0.5713380000000  0.4766950000000  0.4040420000000 1.0
C      1  0.4577460000000  0.4853590000000  0.5489070000000 1.0
C      1  0.4238170000000  0.4516890000000  0.4734620000000 1.0
C      1  0.4063960000000  0.5118990000000  0.5673830000000 1.0
C      1  0.4109270000000  0.4830610000000  0.5607110000000 1.0
C      1  0.5873160000000  0.4309200000000  0.4594100000000 1.0
C      1  0.5805150000000  0.5684970000000  0.5045610000000 1.0
C      1  0.5044450000000  0.4603990000000  0.3766640000000 1.0
C      1  0.5775110000000  0.4500470000000  0.4128210000000 1.0
C      1  0.3982040000000  0.5260380000000  0.5414650000000 1.0
C      1  0.5770190000000  0.5288910000000  0.4816300000000 1.0
C      1  0.5137550000000  0.4384560000000  0.4653950000000 1.0
C      1  0.5033440000000  0.5803380000000  0.4507680000000 1.0
C      1  0.5676160000000  0.4275830000000  0.3996530000000 1.0
C      1  0.5698100000000  0.5467300000000  0.5749650000000 1.0
C      1  0.4211080000000  0.4224470000000  0.4850550000000 1.0
C      1  0.4713780000000  0.5432960000000  0.5283940000000 1.0
C      1  0.5020880000000  0.4716620000000  0.4974450000000 1.0
C      1  0.4122960000000  0.4816480000000  0.4798460000000 1.0
C      1  0.4422810000000  0.5411360000000  0.5740240000000 1.0
C      1  0.5399520000000  0.4774520000000  0.5277700000000 1.0
C      1  0.5922180000000  0.4774990000000  0.5310840000000 1.0
C      1  0.5077060000000  0.4860730000000  0.3843220000000 1.0
C      1  0.5709490000000  0.5918830000000  0.4626940000000 1.0
C      1  0.4828540000000  0.4930360000000  0.4982290000000 1.0
C      1  0.4917290000000  0.5598350000000  0.4065310000000 1.0
C      1  0.5329170000000  0.5435500000000  0.4197760000000 1.0
C      1  0.5385880000000  0.5275460000000  0.5206580000000 1.0
C      1  0.4966440000000  0.5330220000000  0.4536130000000 1.0
C      1  0.5365260000000  0.5152590000000  0.4117440000000 1.0
C      1  0.4455730000000  0.4777840000000  0.5952510000000 1.0
C      1  0.5093890000000  0.4761990000000  0.4305940000000 1.0
C      1  0.5869160000000  0.5406550000000  0.5048020000000 1.0
C      1  0.5298680000000  0.5513030000000  0.5375920000000 1.0
C      1  0.4142570000000  0.5488540000000  0.5318590000000 1.0
C      1  0.5035610000000  0.4954020000000  0.5537990000000 1.0
C      1  0.4400640000000  0.5702610000000  0.4864190000000 1.0
C      1  0.5472620000000  0.3797710000000  0.3929520000000 1.0
C      1  0.5579010000000  0.4035440000000  0.3941490000000 1.0
C      1  0.5100940000000  0.5639000000000  0.4967850000000 1.0
C      1  0.5593640000000  0.4713640000000  0.5778480000000 1.0
C      1  0.4706660000000  0.4063170000000  0.4751560000000 1.0
C      1  0.4844140000000  0.5977690000000  0.5679860000000 1.0
C      1  0.4196670000000  0.4973260000000  0.4248000000000 1.0
C      1  0.5030720000000  0.4373060000000  0.3903360000000 1.0
C      1  0.4775790000000  0.5009540000000  0.5621450000000 1.0
C      1  0.4698690000000  0.6076610000000  0.4720340000000 1.0
C      1  0.5479480000000  0.4107410000000  0.5116670000000 1.0
C      1  0.5806170000000  0.4504970000000  0.5350980000000 1.0
C      1  0.4885450000000  0.3905250000000  0.5374250000000 1.0
C      1  0.5114880000000  0.5440290000000  0.5579960000000 1.0
C      1  0.5280030000000  0.5252020000000  0.4681530000000 1.0
C      1  0.4316950000000  0.5573020000000  0.5529950000000 1.0
C      1  0.5204190000000  0.4085170000000  0.5023980000000 1.0
C      1  0.5782320000000  0.5790510000000  0.5318440000000 1.0
C      1  0.4483370000000  0.5204320000000  0.4892480000000 1.0
C      1  0.4920890000000  0.4351530000000  0.5731840000000 1.0
C      1  0.5000990000000  0.5938470000000  0.5449030000000 1.0
C      1  0.4584500000000  0.6059090000000  0.5662200000000 1.0
C      1  0.5932070000000  0.4469120000000  0.4367900000000 1.0
C      1  0.4637790000000  0.4434860000000  0.5026340000000 1.0
C      1  0.5055830000000  0.4147550000000  0.4781890000000 1.0
C      1  0.4520540000000  0.5965110000000  0.4922110000000 1.0
C      1  0.5887980000000  0.5312770000000  0.5326430000000 1.0
C      1  0.4376860000000  0.4751380000000  0.5669840000000 1.0
C      1  0.4702210000000  0.5278400000000  0.5748670000000 1.0
C      1  0.4309820000000  0.4713890000000  0.4278270000000 1.0
C      1  0.5152180000000  0.4953290000000  0.4101260000000 1.0
C      1  0.5000580000000  0.4578670000000  0.5226370000000 1.0
C      1  0.5707050000000  0.4982350000000  0.5716990000000 1.0
C      1  0.5246330000000  0.5806110000000  0.5362370000000 1.0
C      1  0.4604410000000  0.6054810000000  0.5177760000000 1.0
C      1  0.3869240000000  0.5037810000000  0.5264560000000 1.0
C      1  0.5812610000000  0.5549770000000  0.5498850000000 1.0
C      1  0.4892420000000  0.6066090000000  0.5206420000000 1.0
C      1  0.4048390000000  0.5334810000000  0.4865330000000 1.0
C      1  0.4453150000000  0.5362010000000  0.4449440000000 1.0
C      1  0.5367120000000  0.5156990000000  0.6009870000000 1.0
C      1  0.4999920000000  0.4490020000000  0.4402160000000 1.0
C      1  0.5512170000000  0.5034440000000  0.5297480000000 1.0
C      1  0.5313930000000  0.4691840000000  0.5880130000000 1.0
C      1  0.4463810000000  0.6094020000000  0.5420020000000 1.0
C      1  0.5453300000000  0.4593380000000  0.5057370000000 1.0
C      1  0.5003890000000  0.4105710000000  0.5221070000000 1.0
C      1  0.5622980000000  0.5771420000000  0.4840250000000 1.0
C      1  0.4984220000000  0.4287070000000  0.4165260000000 1.0
C      1  0.5110900000000  0.6086210000000  0.4996610000000 1.0
C      1  0.5599970000000  0.5216850000000  0.5852860000000 1.0
C      1  0.4973380000000  0.5190790000000  0.5014690000000 1.0
C      1  0.3946250000000  0.4793890000000  0.5372030000000 1.0
C      1  0.4243260000000  0.5224290000000  0.5868520000000 1.0
C      1  0.4850370000000  0.4349460000000  0.5196560000000 1.0
C      1  0.4726950000000  0.5224050000000  0.4352450000000 1.0
C      1  0.4586010000000  0.4721580000000  0.4352040000000 1.0
C      1  0.4641190000000  0.4999810000000  0.4756770000000 1.0
C      1  0.5562760000000  0.5202060000000  0.4641790000000 1.0
C      1  0.4703720000000  0.5169840000000  0.6041550000000 1.0
C      1  0.4903330000000  0.4942970000000  0.6081950000000 1.0
C      1  0.5141100000000  0.4535960000000  0.5700210000000 1.0
C      1  0.4547060000000  0.5576430000000  0.4633680000000 1.0
C      1  0.5825500000000  0.4322510000000  0.4858990000000 1.0
C      1  0.4616230000000  0.4941840000000  0.5222550000000 1.0
C      1  0.5611740000000  0.5019060000000  0.4051750000000 1.0
C      1  0.5191610000000  0.4926700000000  0.6019400000000 1.0
C      1  0.6066810000000  0.4707400000000  0.4437490000000 1.0
C      1  0.4185140000000  0.5540260000000  0.5023710000000 1.0
C      1  0.5361500000000  0.6015730000000  0.5178350000000 1.0
C      1  0.5702860000000  0.4494450000000  0.5621990000000 1.0
C      1  0.4678670000000  0.4958600000000  0.4477360000000 1.0
C      1  0.5137770000000  0.5666360000000  0.4247350000000 1.0
C      1  0.4902570000000  0.5464850000000  0.5072750000000 1.0
C      1  0.4172470000000  0.4514350000000  0.4433270000000 1.0
C      1  0.4720230000000  0.4711240000000  0.6059290000000 1.0
C      1  0.5601500000000  0.3886300000000  0.5224460000000 1.0
C      1  0.4656570000000  0.4170890000000  0.4487050000000 1.0
C      1  0.4450080000000  0.4054230000000  0.4938270000000 1.0
C      1  0.5790170000000  0.5033350000000  0.5418250000000 1.0
C      1  0.4700160000000  0.4199200000000  0.5664640000000 1.0
C      1  0.4774680000000  0.5364640000000  0.4089800000000 1.0
C      1  0.5244420000000  0.5215090000000  0.4962200000000 1.0
C      1  0.4456400000000  0.3998060000000  0.5228320000000 1.0
C      1  0.5911850000000  0.4909140000000  0.4521260000000 1.0
C      1  0.4793840000000  0.4088230000000  0.4249660000000 1.0
C      1  0.5349400000000  0.5694520000000  0.4867280000000 1.0
C      1  0.5264620000000  0.4614220000000  0.4818300000000 1.0
C      1  0.4836760000000  0.5445220000000  0.5548570000000 1.0
C      1  0.5154910000000  0.4700490000000  0.5440280000000 1.0
C      1  0.4846550000000  0.5592620000000  0.4604440000000 1.0
C      1  0.4528270000000  0.5222910000000  0.5178640000000 1.0
C      1  0.4099790000000  0.5102420000000  0.4705450000000 1.0
C      1  0.4412160000000  0.5061020000000  0.6045120000000 1.0
C      1  0.4691310000000  0.4480760000000  0.4500770000000 1.0
C      1  0.4545930000000  0.4530140000000  0.4773660000000 1.0
C      1  0.4222690000000  0.5175110000000  0.4448610000000 1.0
C      1  0.4627410000000  0.3997520000000  0.5463770000000 1.0
C      1  0.4992690000000  0.6029920000000  0.4712500000000 1.0
C      1  0.5635180000000  0.4942240000000  0.4561880000000 1.0
C      1  0.5444960000000  0.4747960000000  0.4620950000000 1.0
END
