TITL C-627113-6568-1122 524681.961907001 125000 -805.03003095246 0 0 136 (C1) n - 1
REM
REM in /home/nfs/bkarasulu/CARBON/AIRSS/Generating-Clusters/LCBOP/Only-C1/SD-CG/FIRE-CG
REM
REM
REM
REM
REM
REM ./C.cell (11c1c37f851c82e70ff6c80c92926a4b)
REM AIRSS Version 0.9.1 bugfix July 2018 build 013d7b7c2542+ Fri, 06 Jul 2018 19:26:36 +0100
REM compiler GCC version 9.2.1 20190827 (Red Hat 9.2.1-1)
REM options -cpp -mtune=generic -march=x86-64 -g -O0 -fpre-include=/usr/include/finclude/math-vector-fortran.h
REM seed -2110106767 -1729132139 649269883 -1825541991 1271703185 1625928481 230202123 618360815 2071743409 -2136628350 -1435125840 1559464466 -1595575966 366751589 -1235777064 -1152481120 271800027 956325292 -1207349686 2135303498 -1492791443 -500271145 841819356 1665258137 853840580 -1758751972 1951228429 -718858097 412930566 -967615601 -1269854020 1973254848 -134415412
REM
CELL 1.54180   50.00000   50.00000   50.00000   90.00000   90.00000   90.00000
LATT -1
SFAC C  
C      1  0.4724360000000  0.4767200000000  0.4393900000000 1.0
C      1  0.5685220000000  0.5428830000000  0.4357940000000 1.0
C      1  0.5644400000000  0.4957670000000  0.4782010000000 1.0
C      1  0.4614190000000  0.4794750000000  0.5744670000000 1.0
C      1  0.4239850000000  0.4880720000000  0.4172820000000 1.0
C      1  0.5501090000000  0.4316870000000  0.5609620000000 1.0
C      1  0.5066800000000  0.5183760000000  0.5140180000000 1.0
C      1  0.4163370000000  0.5450720000000  0.5548290000000 1.0
C      1  0.5831630000000  0.4989780000000  0.5717960000000 1.0
C      1  0.4577030000000  0.4651210000000  0.5259190000000 1.0
C      1  0.4816160000000  0.5962270000000  0.5590550000000 1.0
C      1  0.3867830000000  0.4640190000000  0.5815410000000 1.0
C      1  0.5573030000000  0.5421630000000  0.4884060000000 1.0
C      1  0.6061930000000  0.5346870000000  0.4788850000000 1.0
C      1  0.4419580000000  0.4093570000000  0.5096400000000 1.0
C      1  0.3788390000000  0.5089610000000  0.5657940000000 1.0
C      1  0.5309880000000  0.4433440000000  0.3899220000000 1.0
C      1  0.4844450000000  0.4730530000000  0.3908120000000 1.0
C      1  0.5106050000000  0.5824530000000  0.3963370000000 1.0
C      1  0.4870410000000  0.5052230000000  0.5000030000000 1.0
C      1  0.3699050000000  0.4862400000000  0.5794650000000 1.0
C      1  0.5501310000000  0.4728950000000  0.5143100000000 1.0
C      1  0.5617950000000  0.4560140000000  0.4380090000000 1.0
C      1  0.5663870000000  0.6000700000000  0.4429570000000 1.0
C      1  0.4688630000000  0.3809790000000  0.5390120000000 1.0
C      1  0.4915690000000  0.4902350000000  0.4557550000000 1.0
C      1  0.5024120000000  0.6093120000000  0.5464490000000 1.0
C      1  0.4743530000000  0.3952010000000  0.4692770000000 1.0
C      1  0.6172890000000  0.4614580000000  0.5320960000000 1.0
C      1  0.5993650000000  0.5310780000000  0.5067100000000 1.0
C      1  0.4666690000000  0.5731020000000  0.5480870000000 1.0
C      1  0.5866510000000  0.4617640000000  0.4542650000000 1.0
C      1  0.4298780000000  0.5315480000000  0.4582320000000 1.0
C      1  0.4924740000000  0.4378460000000  0.4305660000000 1.0
C      1  0.5256040000000  0.5330390000000  0.5937010000000 1.0
C      1  0.5360290000000  0.4168640000000  0.5144260000000 1.0
C      1  0.5493920000000  0.5195520000000  0.4729760000000 1.0
C      1  0.5478630000000  0.4738880000000  0.4848970000000 1.0
C      1  0.4851170000000  0.4546250000000  0.5216170000000 1.0
C      1  0.5064200000000  0.6043880000000  0.5004410000000 1.0
C      1  0.4469980000000  0.5059850000000  0.4175440000000 1.0
C      1  0.4219480000000  0.5093420000000  0.4748240000000 1.0
C      1  0.4282100000000  0.4258040000000  0.4912990000000 1.0
C      1  0.4194390000000  0.4623180000000  0.4255950000000 1.0
C      1  0.5872180000000  0.4914180000000  0.4612160000000 1.0
C      1  0.5080900000000  0.4354560000000  0.4835830000000 1.0
C      1  0.5023240000000  0.5350930000000  0.4357470000000 1.0
C      1  0.5192080000000  0.4841020000000  0.4193340000000 1.0
C      1  0.5666180000000  0.4467280000000  0.6044420000000 1.0
C      1  0.4766110000000  0.5393560000000  0.4487540000000 1.0
C      1  0.4148980000000  0.4197150000000  0.5794280000000 1.0
C      1  0.5320950000000  0.4884700000000  0.5600200000000 1.0
C      1  0.4527980000000  0.4054960000000  0.4559760000000 1.0
C      1  0.5424220000000  0.4569820000000  0.4608070000000 1.0
C      1  0.5158590000000  0.5727530000000  0.3712680000000 1.0
C      1  0.5671330000000  0.4312110000000  0.5021210000000 1.0
C      1  0.5703910000000  0.4535810000000  0.5205710000000 1.0
C      1  0.4700010000000  0.4487400000000  0.4406730000000 1.0
C      1  0.4814310000000  0.4335270000000  0.5644620000000 1.0
C      1  0.4251820000000  0.5571920000000  0.5306550000000 1.0
C      1  0.4693440000000  0.4875560000000  0.4123160000000 1.0
C      1  0.5518240000000  0.4558740000000  0.4082700000000 1.0
C      1  0.4952420000000  0.4578740000000  0.4948650000000 1.0
C      1  0.4162120000000  0.4527850000000  0.4982320000000 1.0
C      1  0.5319830000000  0.4111780000000  0.4493330000000 1.0
C      1  0.5053100000000  0.5498410000000  0.6000360000000 1.0
C      1  0.4384550000000  0.4717470000000  0.5053390000000 1.0
C      1  0.4611900000000  0.5104110000000  0.5384920000000 1.0
C      1  0.4018550000000  0.4905270000000  0.4680410000000 1.0
C      1  0.5621450000000  0.5703360000000  0.4863770000000 1.0
C      1  0.5056170000000  0.4556190000000  0.3829840000000 1.0
C      1  0.4058620000000  0.4625210000000  0.4710050000000 1.0
C      1  0.4748510000000  0.4549760000000  0.5830270000000 1.0
C      1  0.5065440000000  0.5290020000000  0.5405850000000 1.0
C      1  0.5019650000000  0.4939610000000  0.5947380000000 1.0
C      1  0.4787290000000  0.5035090000000  0.5804800000000 1.0
C      1  0.4263160000000  0.5591800000000  0.4645430000000 1.0
C      1  0.5836920000000  0.4395850000000  0.4773640000000 1.0
C      1  0.4788490000000  0.5496850000000  0.4768890000000 1.0
C      1  0.5907880000000  0.4618980000000  0.5385120000000 1.0
C      1  0.4922300000000  0.4837870000000  0.4830240000000 1.0
C      1  0.4626580000000  0.5455570000000  0.5016190000000 1.0
C      1  0.6184020000000  0.5284950000000  0.5260240000000 1.0
C      1  0.5391140000000  0.5133490000000  0.4476450000000 1.0
C      1  0.5310010000000  0.5552450000000  0.4318640000000 1.0
C      1  0.5297090000000  0.5788510000000  0.4169600000000 1.0
C      1  0.5608030000000  0.5843710000000  0.5107600000000 1.0
C      1  0.5693150000000  0.5515750000000  0.5668220000000 1.0
C      1  0.4015000000000  0.4419750000000  0.5816220000000 1.0
C      1  0.3451010000000  0.4858590000000  0.5909790000000 1.0
C      1  0.4832760000000  0.5197890000000  0.5555500000000 1.0
C      1  0.4355680000000  0.5465620000000  0.5757010000000 1.0
C      1  0.4821010000000  0.5643770000000  0.5934930000000 1.0
C      1  0.5187920000000  0.6002500000000  0.5258760000000 1.0
C      1  0.3936650000000  0.5292600000000  0.5573610000000 1.0
C      1  0.4871230000000  0.5954480000000  0.4017930000000 1.0
C      1  0.4384860000000  0.5828320000000  0.4696150000000 1.0
C      1  0.4318420000000  0.4237740000000  0.4622620000000 1.0
C      1  0.5485930000000  0.5986930000000  0.4230310000000 1.0
C      1  0.5710660000000  0.5309060000000  0.5117150000000 1.0
C      1  0.5262140000000  0.4344690000000  0.4626520000000 1.0
C      1  0.5333610000000  0.5385520000000  0.5428350000000 1.0
C      1  0.5946030000000  0.5261090000000  0.4547300000000 1.0
C      1  0.5524680000000  0.5200090000000  0.5303050000000 1.0
C      1  0.4590540000000  0.5988070000000  0.4768290000000 1.0
C      1  0.4529130000000  0.5624160000000  0.5241940000000 1.0
C      1  0.5039670000000  0.5605790000000  0.4819100000000 1.0
C      1  0.4542150000000  0.4835590000000  0.5471980000000 1.0
C      1  0.4861630000000  0.3963990000000  0.4957460000000 1.0
C      1  0.5437570000000  0.4837420000000  0.4043170000000 1.0
C      1  0.5798120000000  0.5263900000000  0.5724860000000 1.0
C      1  0.4513880000000  0.5266690000000  0.4390370000000 1.0
C      1  0.5569400000000  0.5209800000000  0.4265350000000 1.0
C      1  0.5813290000000  0.4707170000000  0.5642620000000 1.0
C      1  0.5119400000000  0.5060970000000  0.4394740000000 1.0
C      1  0.4659160000000  0.3954620000000  0.5161050000000 1.0
C      1  0.5590280000000  0.5063340000000  0.4035380000000 1.0
C      1  0.5450570000000  0.4928530000000  0.5345310000000 1.0
C      1  0.5037540000000  0.4430280000000  0.5450150000000 1.0
C      1  0.4387000000000  0.4994670000000  0.4958840000000 1.0
C      1  0.5425510000000  0.5846700000000  0.5321770000000 1.0
C      1  0.4601470000000  0.5155870000000  0.5083540000000 1.0
C      1  0.5262350000000  0.5063790000000  0.5839160000000 1.0
C      1  0.5658730000000  0.4497140000000  0.5772150000000 1.0
C      1  0.4832160000000  0.6059360000000  0.4865560000000 1.0
C      1  0.5018130000000  0.4656050000000  0.5897490000000 1.0
C      1  0.5160000000000  0.4648500000000  0.5634760000000 1.0
C      1  0.5297780000000  0.4265420000000  0.5407980000000 1.0
C      1  0.3946990000000  0.4512390000000  0.5188250000000 1.0
C      1  0.4853500000000  0.5923340000000  0.5873470000000 1.0
C      1  0.4178370000000  0.4467900000000  0.4494700000000 1.0
C      1  0.4615530000000  0.5572370000000  0.5736800000000 1.0
C      1  0.5466730000000  0.5625260000000  0.5510250000000 1.0
C      1  0.5710160000000  0.5853810000000  0.4646830000000 1.0
C      1  0.5107740000000  0.4115510000000  0.4993490000000 1.0
C      1  0.5111820000000  0.4569980000000  0.4260300000000 1.0
END
