TITL C-627106-156-1942 2.20716739429956e-07 125000 -717.820862678646 0 0 118 (C1) n - 1
REM
REM in /home/nfs/bkarasulu/CARBON/AIRSS/Generating-Clusters/LCBOP/Only-C1/SD-CG/FIRE-CG
REM
REM
REM
REM
REM
REM ./C.cell (11c1c37f851c82e70ff6c80c92926a4b)
REM AIRSS Version 0.9.1 bugfix July 2018 build 013d7b7c2542+ Fri, 06 Jul 2018 19:26:36 +0100
REM compiler GCC version 9.2.1 20190827 (Red Hat 9.2.1-1)
REM options -cpp -mtune=generic -march=x86-64 -g -O0 -fpre-include=/usr/include/finclude/math-vector-fortran.h
REM seed -1197850843 -218536213 -1265374243 -1054870829 2053402757 -1398513368 699169683 -793506596 1589030185 -793995346 -2130460974 386423000 213556847 -796050555 -1405320159 556846365 -1103044464 88078419 361541960 -2047017647 -1347951363 502018711 -562456341 426512040 2061909239 1090382984 -699470020 1613377286 1773676814 235999743 901994988 1020702601 1207048639
REM
CELL 1.54180   50.00000   50.00000   50.00000   90.00000   90.00000   90.00000
LATT -1
SFAC C  
C      1  0.5825520000000  0.4968390000000  0.4840730000000 1.0
C      1  0.5399270000000  0.5121790000000  0.4646680000000 1.0
C      1  0.5377170000000  0.4314390000000  0.5928820000000 1.0
C      1  0.5086870000000  0.6130260000000  0.4554430000000 1.0
C      1  0.5271110000000  0.5625680000000  0.4250800000000 1.0
C      1  0.4149070000000  0.4329450000000  0.4741670000000 1.0
C      1  0.4866880000000  0.5753740000000  0.4824110000000 1.0
C      1  0.4244840000000  0.5128750000000  0.4403950000000 1.0
C      1  0.4476310000000  0.4355380000000  0.5769410000000 1.0
C      1  0.4859310000000  0.5156730000000  0.4607400000000 1.0
C      1  0.4252250000000  0.5096450000000  0.4687770000000 1.0
C      1  0.4678190000000  0.4801380000000  0.5644940000000 1.0
C      1  0.5948720000000  0.5169360000000  0.5356200000000 1.0
C      1  0.4919900000000  0.4172200000000  0.5853920000000 1.0
C      1  0.4103100000000  0.4701630000000  0.5338690000000 1.0
C      1  0.5000160000000  0.5990380000000  0.4764330000000 1.0
C      1  0.5540280000000  0.4729990000000  0.5536340000000 1.0
C      1  0.5822180000000  0.4770180000000  0.4367890000000 1.0
C      1  0.5089040000000  0.5831170000000  0.4182680000000 1.0
C      1  0.4642870000000  0.5581330000000  0.4041520000000 1.0
C      1  0.4206300000000  0.5547060000000  0.4176640000000 1.0
C      1  0.4728200000000  0.4501330000000  0.6149310000000 1.0
C      1  0.5951300000000  0.4718780000000  0.4810520000000 1.0
C      1  0.4530220000000  0.5778100000000  0.4461220000000 1.0
C      1  0.4143880000000  0.4851550000000  0.4773100000000 1.0
C      1  0.4001300000000  0.5196630000000  0.5277890000000 1.0
C      1  0.4532310000000  0.4236740000000  0.5030660000000 1.0
C      1  0.4710070000000  0.4920080000000  0.5172700000000 1.0
C      1  0.5431910000000  0.4503340000000  0.6110690000000 1.0
C      1  0.4369050000000  0.5765740000000  0.5577290000000 1.0
C      1  0.4727350000000  0.5056420000000  0.4003370000000 1.0
C      1  0.5873990000000  0.5517290000000  0.5041860000000 1.0
C      1  0.5283000000000  0.5433380000000  0.4035590000000 1.0
C      1  0.5034510000000  0.5465760000000  0.5217450000000 1.0
C      1  0.5589630000000  0.5140080000000  0.4218020000000 1.0
C      1  0.5070500000000  0.4832560000000  0.6213680000000 1.0
C      1  0.5773340000000  0.4476300000000  0.5162460000000 1.0
C      1  0.4327780000000  0.4159650000000  0.4853390000000 1.0
C      1  0.4300620000000  0.5273150000000  0.4170520000000 1.0
C      1  0.5237860000000  0.4073190000000  0.4857820000000 1.0
C      1  0.4090870000000  0.4591530000000  0.4735600000000 1.0
C      1  0.5958830000000  0.5167520000000  0.4677680000000 1.0
C      1  0.5102590000000  0.4741760000000  0.3987310000000 1.0
C      1  0.4977590000000  0.5387620000000  0.5483830000000 1.0
C      1  0.4855330000000  0.5622810000000  0.5071290000000 1.0
C      1  0.5447100000000  0.4154120000000  0.5030660000000 1.0
C      1  0.4391480000000  0.5441170000000  0.5089560000000 1.0
C      1  0.5765600000000  0.4680530000000  0.5361740000000 1.0
C      1  0.4967650000000  0.4151890000000  0.4820520000000 1.0
C      1  0.5349010000000  0.5527580000000  0.4812530000000 1.0
C      1  0.4910980000000  0.4384310000000  0.4652330000000 1.0
C      1  0.5361740000000  0.4860500000000  0.5009760000000 1.0
C      1  0.5403270000000  0.5697600000000  0.5503070000000 1.0
C      1  0.4985040000000  0.5372570000000  0.5749440000000 1.0
C      1  0.4875330000000  0.5737260000000  0.4020830000000 1.0
C      1  0.4681840000000  0.4912720000000  0.5908350000000 1.0
C      1  0.5744540000000  0.4325070000000  0.4668540000000 1.0
C      1  0.4497740000000  0.4580160000000  0.5595520000000 1.0
C      1  0.5946990000000  0.4900050000000  0.5355370000000 1.0
C      1  0.4862380000000  0.4927390000000  0.4444170000000 1.0
C      1  0.5670620000000  0.4310440000000  0.4949040000000 1.0
C      1  0.4696840000000  0.5630650000000  0.4633770000000 1.0
C      1  0.5174430000000  0.6304350000000  0.4110940000000 1.0
C      1  0.4043310000000  0.4034900000000  0.5754410000000 1.0
C      1  0.4253140000000  0.4188790000000  0.5768630000000 1.0
C      1  0.4836120000000  0.4897700000000  0.5425710000000 1.0
C      1  0.4964140000000  0.4487340000000  0.4387150000000 1.0
C      1  0.4660880000000  0.5348530000000  0.4678710000000 1.0
C      1  0.5312550000000  0.4717450000000  0.6218930000000 1.0
C      1  0.4934700000000  0.4250800000000  0.5304610000000 1.0
C      1  0.4568870000000  0.5290730000000  0.4035440000000 1.0
C      1  0.4856240000000  0.4588770000000  0.4122500000000 1.0
C      1  0.5302070000000  0.4759320000000  0.4216420000000 1.0
C      1  0.5392400000000  0.4175600000000  0.5308350000000 1.0
C      1  0.4804460000000  0.4154290000000  0.5063980000000 1.0
C      1  0.5809270000000  0.5415010000000  0.5299520000000 1.0
C      1  0.4600730000000  0.5625580000000  0.5191060000000 1.0
C      1  0.5118180000000  0.6096000000000  0.4277660000000 1.0
C      1  0.5257680000000  0.5054110000000  0.5192780000000 1.0
C      1  0.4816900000000  0.4767620000000  0.6113550000000 1.0
C      1  0.4435470000000  0.5715470000000  0.4204180000000 1.0
C      1  0.4167320000000  0.5420180000000  0.5271160000000 1.0
C      1  0.4684350000000  0.4692020000000  0.5009040000000 1.0
C      1  0.5031700000000  0.5417960000000  0.6002190000000 1.0
C      1  0.5855480000000  0.4571650000000  0.4583390000000 1.0
C      1  0.5542850000000  0.5248250000000  0.5661220000000 1.0
C      1  0.4908480000000  0.4602030000000  0.4854490000000 1.0
C      1  0.4422490000000  0.5283880000000  0.4834600000000 1.0
C      1  0.3976400000000  0.4934540000000  0.5315630000000 1.0
C      1  0.5111280000000  0.4745040000000  0.4445900000000 1.0
C      1  0.4352780000000  0.4577500000000  0.5350700000000 1.0
C      1  0.5001030000000  0.5010960000000  0.3899200000000 1.0
C      1  0.4166560000000  0.5608800000000  0.5485380000000 1.0
C      1  0.5118130000000  0.4885010000000  0.5398600000000 1.0
C      1  0.4498630000000  0.4504830000000  0.5119260000000 1.0
C      1  0.4885510000000  0.5861450000000  0.5521730000000 1.0
C      1  0.5549820000000  0.4978470000000  0.5683000000000 1.0
C      1  0.5963810000000  0.5420470000000  0.4803190000000 1.0
C      1  0.5993340000000  0.5017510000000  0.4425540000000 1.0
C      1  0.5543430000000  0.4970240000000  0.4832100000000 1.0
C      1  0.4344000000000  0.5303550000000  0.6059020000000 1.0
C      1  0.5244180000000  0.5334270000000  0.5087910000000 1.0
C      1  0.5174600000000  0.5233650000000  0.3892270000000 1.0
C      1  0.5511550000000  0.5283760000000  0.4445200000000 1.0
C      1  0.5269460000000  0.4644000000000  0.5471780000000 1.0
C      1  0.5390850000000  0.5544220000000  0.4505050000000 1.0
C      1  0.4693220000000  0.4309150000000  0.5946130000000 1.0
C      1  0.5188050000000  0.4337270000000  0.5461670000000 1.0
C      1  0.5170860000000  0.4245640000000  0.5749330000000 1.0
C      1  0.5718590000000  0.4112630000000  0.4498920000000 1.0
C      1  0.4616740000000  0.5774500000000  0.5442340000000 1.0
C      1  0.4515890000000  0.5127470000000  0.5973220000000 1.0
C      1  0.5171730000000  0.4670640000000  0.4934170000000 1.0
C      1  0.5590320000000  0.5473980000000  0.5487590000000 1.0
C      1  0.5161290000000  0.5829920000000  0.5526960000000 1.0
C      1  0.5124780000000  0.5174530000000  0.4693280000000 1.0
C      1  0.5573880000000  0.4850760000000  0.4230070000000 1.0
C      1  0.4705600000000  0.4845940000000  0.4206870000000 1.0
END
