TITL C-627110-360-1074 0.0248496634618091 125000 -894.561277791254 0 0 148 (C1) n - 1
REM
REM in /home/nfs/bkarasulu/CARBON/AIRSS/Generating-Clusters/LCBOP/Only-C1/SD-CG/FIRE-CG
REM
REM
REM
REM
REM
REM ./C.cell (11c1c37f851c82e70ff6c80c92926a4b)
REM AIRSS Version 0.9.1 bugfix July 2018 build 013d7b7c2542+ Fri, 06 Jul 2018 19:26:36 +0100
REM compiler GCC version 9.2.1 20190827 (Red Hat 9.2.1-1)
REM options -cpp -mtune=generic -march=x86-64 -g -O0 -fpre-include=/usr/include/finclude/math-vector-fortran.h
REM seed 1630967418 -2075881422 1915266755 1637317270 2111049723 -304990585 -1296850453 628140729 -2065633331 -1609915935 -942040951 -63809422 1555033349 284105754 797656518 -403058258 -1148899216 -825539377 -1105247573 774582640 282623855 -827618438 -1130756763 884711826 1099877556 1577958391 -1344562885 1965773479 1368908178 989433588 593767845 -770140091 -1713109174
REM
CELL 1.54180   50.00000   50.00000   50.00000   90.00000   90.00000   90.00000
LATT -1
SFAC C  
C      1  0.4975020000000  0.4673430000000  0.4185790000000 1.0
C      1  0.4596070000000  0.5165850000000  0.4524710000000 1.0
C      1  0.5635620000000  0.4719390000000  0.6021800000000 1.0
C      1  0.4807730000000  0.3397490000000  0.5275620000000 1.0
C      1  0.3898400000000  0.4616970000000  0.4612660000000 1.0
C      1  0.4822160000000  0.5003840000000  0.4617870000000 1.0
C      1  0.4023500000000  0.5046250000000  0.5368330000000 1.0
C      1  0.5568940000000  0.5157020000000  0.5512440000000 1.0
C      1  0.4806190000000  0.4007140000000  0.4872170000000 1.0
C      1  0.3940310000000  0.4894320000000  0.4580290000000 1.0
C      1  0.4451980000000  0.5440660000000  0.5661820000000 1.0
C      1  0.4900150000000  0.4762000000000  0.5448650000000 1.0
C      1  0.5335160000000  0.4458910000000  0.4549050000000 1.0
C      1  0.5325560000000  0.5312780000000  0.3694760000000 1.0
C      1  0.5991010000000  0.5409780000000  0.5420450000000 1.0
C      1  0.4378420000000  0.4754610000000  0.4324480000000 1.0
C      1  0.5527030000000  0.5146920000000  0.6199060000000 1.0
C      1  0.4231910000000  0.4517250000000  0.5223610000000 1.0
C      1  0.5767060000000  0.4653820000000  0.4503330000000 1.0
C      1  0.4382100000000  0.5822940000000  0.4069360000000 1.0
C      1  0.5073020000000  0.6497980000000  0.5040070000000 1.0
C      1  0.3787680000000  0.5147500000000  0.5263710000000 1.0
C      1  0.5411320000000  0.5059320000000  0.3706750000000 1.0
C      1  0.4944070000000  0.4967000000000  0.6159830000000 1.0
C      1  0.5467610000000  0.5019630000000  0.5287730000000 1.0
C      1  0.5657510000000  0.4854340000000  0.4073940000000 1.0
C      1  0.4068520000000  0.4717960000000  0.3949750000000 1.0
C      1  0.5479570000000  0.5179650000000  0.5037940000000 1.0
C      1  0.4582870000000  0.5198740000000  0.4042140000000 1.0
C      1  0.5434580000000  0.6120380000000  0.4671590000000 1.0
C      1  0.5052150000000  0.5403930000000  0.4566140000000 1.0
C      1  0.5962900000000  0.4989780000000  0.5705710000000 1.0
C      1  0.5009840000000  0.4096140000000  0.4688010000000 1.0
C      1  0.5862700000000  0.4803560000000  0.5872760000000 1.0
C      1  0.5202230000000  0.5613620000000  0.4648910000000 1.0
C      1  0.4288870000000  0.4213630000000  0.4781090000000 1.0
C      1  0.4659730000000  0.4278750000000  0.5529280000000 1.0
C      1  0.4687040000000  0.5294560000000  0.5247040000000 1.0
C      1  0.6209290000000  0.5763230000000  0.4853050000000 1.0
C      1  0.4353560000000  0.5231970000000  0.4660770000000 1.0
C      1  0.4543600000000  0.5791650000000  0.4659230000000 1.0
C      1  0.5944100000000  0.4695690000000  0.4717480000000 1.0
C      1  0.5469470000000  0.5283970000000  0.5976080000000 1.0
C      1  0.5190150000000  0.5786730000000  0.4861050000000 1.0
C      1  0.4452280000000  0.5671040000000  0.4894410000000 1.0
C      1  0.4376890000000  0.5393490000000  0.4896940000000 1.0
C      1  0.5957720000000  0.5653730000000  0.4913550000000 1.0
C      1  0.5676310000000  0.5443600000000  0.4558590000000 1.0
C      1  0.5849820000000  0.5189490000000  0.5539400000000 1.0
C      1  0.4861960000000  0.5715280000000  0.6056350000000 1.0
C      1  0.5072020000000  0.5517850000000  0.4084090000000 1.0
C      1  0.4672160000000  0.4471210000000  0.5024080000000 1.0
C      1  0.4150840000000  0.4397140000000  0.4974180000000 1.0
C      1  0.5144650000000  0.5856220000000  0.5319630000000 1.0
C      1  0.5574040000000  0.4874530000000  0.6253120000000 1.0
C      1  0.4921030000000  0.4813300000000  0.4428130000000 1.0
C      1  0.5754380000000  0.5676740000000  0.4707690000000 1.0
C      1  0.5349720000000  0.4327990000000  0.4288110000000 1.0
C      1  0.4246290000000  0.4866510000000  0.4095690000000 1.0
C      1  0.4888780000000  0.5450000000000  0.5978530000000 1.0
C      1  0.4372170000000  0.5232490000000  0.5835940000000 1.0
C      1  0.3574550000000  0.5240210000000  0.5145870000000 1.0
C      1  0.3910070000000  0.4516240000000  0.4876040000000 1.0
C      1  0.4265970000000  0.5020660000000  0.5217920000000 1.0
C      1  0.5199880000000  0.5487890000000  0.3852460000000 1.0
C      1  0.4311770000000  0.5131590000000  0.4010760000000 1.0
C      1  0.5006830000000  0.4291370000000  0.5897560000000 1.0
C      1  0.4929050000000  0.6071770000000  0.4563990000000 1.0
C      1  0.5978110000000  0.4963590000000  0.4849630000000 1.0
C      1  0.4853770000000  0.3643860000000  0.5204230000000 1.0
C      1  0.5011430000000  0.5176270000000  0.4780700000000 1.0
C      1  0.5421150000000  0.4864620000000  0.3910000000000 1.0
C      1  0.4687190000000  0.5948300000000  0.4474310000000 1.0
C      1  0.5487980000000  0.4701250000000  0.4578380000000 1.0
C      1  0.4423890000000  0.5243790000000  0.5136040000000 1.0
C      1  0.5059340000000  0.6226160000000  0.5022720000000 1.0
C      1  0.6443990000000  0.5862220000000  0.4798050000000 1.0
C      1  0.4957850000000  0.6055520000000  0.5233430000000 1.0
C      1  0.5766090000000  0.5123150000000  0.4939530000000 1.0
C      1  0.4900480000000  0.5233920000000  0.6162690000000 1.0
C      1  0.4479090000000  0.4669930000000  0.4562600000000 1.0
C      1  0.4965520000000  0.4765420000000  0.5943770000000 1.0
C      1  0.5015050000000  0.4015440000000  0.4415620000000 1.0
C      1  0.5098380000000  0.4208860000000  0.4223480000000 1.0
C      1  0.4651400000000  0.4339170000000  0.5263460000000 1.0
C      1  0.5263990000000  0.5697660000000  0.5119350000000 1.0
C      1  0.5559020000000  0.4356560000000  0.5714790000000 1.0
C      1  0.4218040000000  0.4247690000000  0.4495800000000 1.0
C      1  0.4939890000000  0.5412730000000  0.4306270000000 1.0
C      1  0.4000180000000  0.4282250000000  0.5653600000000 1.0
C      1  0.3992330000000  0.4414390000000  0.4436090000000 1.0
C      1  0.4897910000000  0.3907870000000  0.5127840000000 1.0
C      1  0.5637380000000  0.5935570000000  0.4658150000000 1.0
C      1  0.5966160000000  0.4315050000000  0.5051900000000 1.0
C      1  0.5711910000000  0.5096420000000  0.4211110000000 1.0
C      1  0.4106880000000  0.5104040000000  0.4605640000000 1.0
C      1  0.4153230000000  0.5363190000000  0.3975470000000 1.0
C      1  0.6303950000000  0.4671180000000  0.5002960000000 1.0
C      1  0.4627360000000  0.4302930000000  0.4159930000000 1.0
C      1  0.4604350000000  0.4589390000000  0.4789580000000 1.0
C      1  0.5450610000000  0.4531810000000  0.5909340000000 1.0
C      1  0.4572420000000  0.5944410000000  0.4215980000000 1.0
C      1  0.4827950000000  0.5975430000000  0.6093060000000 1.0
C      1  0.4698010000000  0.5389830000000  0.5521070000000 1.0
C      1  0.5151180000000  0.6073320000000  0.4777030000000 1.0
C      1  0.4390060000000  0.4763500000000  0.5257840000000 1.0
C      1  0.4606650000000  0.4769940000000  0.5449200000000 1.0
C      1  0.5385360000000  0.5226530000000  0.5714450000000 1.0
C      1  0.5602200000000  0.5185940000000  0.4455810000000 1.0
C      1  0.4918450000000  0.5372400000000  0.5701710000000 1.0
C      1  0.4506950000000  0.4778420000000  0.5726790000000 1.0
C      1  0.5167410000000  0.4528090000000  0.5957090000000 1.0
C      1  0.5590860000000  0.4378740000000  0.4149250000000 1.0
C      1  0.4052760000000  0.4952530000000  0.5635710000000 1.0
C      1  0.5741960000000  0.4614140000000  0.4212380000000 1.0
C      1  0.4412710000000  0.4212310000000  0.4293230000000 1.0
C      1  0.5343290000000  0.4772660000000  0.5289170000000 1.0
C      1  0.5111760000000  0.5170320000000  0.5667540000000 1.0
C      1  0.4689670000000  0.5288120000000  0.4282100000000 1.0
C      1  0.5437210000000  0.4984530000000  0.4596840000000 1.0
C      1  0.5111820000000  0.4613160000000  0.5323060000000 1.0
C      1  0.4501880000000  0.5825520000000  0.5125980000000 1.0
C      1  0.5307050000000  0.4326120000000  0.5007040000000 1.0
C      1  0.5153650000000  0.4342240000000  0.5241540000000 1.0
C      1  0.5173650000000  0.4769110000000  0.4008680000000 1.0
C      1  0.5414120000000  0.5461780000000  0.5122860000000 1.0
C      1  0.5930320000000  0.5528690000000  0.5168280000000 1.0
C      1  0.4892360000000  0.4398440000000  0.4155120000000 1.0
C      1  0.5701420000000  0.4270820000000  0.5505990000000 1.0
C      1  0.5837090000000  0.4251190000000  0.5276970000000 1.0
C      1  0.4686900000000  0.4624000000000  0.5886250000000 1.0
C      1  0.6092470000000  0.4505520000000  0.4890600000000 1.0
C      1  0.4309710000000  0.5672120000000  0.5640310000000 1.0
C      1  0.5563090000000  0.4768300000000  0.6503680000000 1.0
C      1  0.5010070000000  0.4906420000000  0.5675790000000 1.0
C      1  0.5212500000000  0.4297520000000  0.4748270000000 1.0
C      1  0.5294970000000  0.5083650000000  0.4820580000000 1.0
C      1  0.4891970000000  0.5257330000000  0.5050570000000 1.0
C      1  0.4118700000000  0.4401630000000  0.5454510000000 1.0
C      1  0.4525220000000  0.4056840000000  0.4832480000000 1.0
C      1  0.6200910000000  0.5517410000000  0.5562370000000 1.0
C      1  0.6234180000000  0.4938230000000  0.4983470000000 1.0
C      1  0.4745850000000  0.4349520000000  0.5790850000000 1.0
C      1  0.4684550000000  0.5986450000000  0.5239430000000 1.0
C      1  0.4298060000000  0.4965990000000  0.5780320000000 1.0
C      1  0.4791340000000  0.6232520000000  0.6115910000000 1.0
C      1  0.5036370000000  0.4090980000000  0.5297030000000 1.0
C      1  0.4213190000000  0.5625780000000  0.4000020000000 1.0
END
