TITL C-627111-6168-1118 97.3513666245649 125000 -125.709812439979 0 0 22 (C1) n - 1
REM
REM in /home/nfs/bkarasulu/CARBON/AIRSS/Generating-Clusters/LCBOP/Only-C1/SD-CG/FIRE-CG
REM
REM
REM
REM
REM
REM ./C.cell (11c1c37f851c82e70ff6c80c92926a4b)
REM AIRSS Version 0.9.1 bugfix July 2018 build 013d7b7c2542+ Fri, 06 Jul 2018 19:26:36 +0100
REM compiler GCC version 9.2.1 20190827 (Red Hat 9.2.1-1)
REM options -cpp -mtune=generic -march=x86-64 -g -O0 -fpre-include=/usr/include/finclude/math-vector-fortran.h
REM seed -1306434432 1111002000 -2076527562 1402431804 -281257786 -449274722 -1175259738 -658226786 -1322293020 1341624678 420926107 688457207 1793828981 86259084 -482271119 -1583989109 1845822085 -253782577 211103524 -735362068 -1364322420 -382453134 -1301618233 778957211 986512884 1322207464 981969054 1136911999 -79907812 1419743547 -1322749336 -359585704 1308684115
REM
CELL 1.54180   50.00000   50.00000   50.00000   90.00000   90.00000   90.00000
LATT -1
SFAC C  
C      1  0.4714140000000  0.4039030000000  0.5126390000000 1.0
C      1  0.4855620000000  0.4802670000000  0.4529390000000 1.0
C      1  0.5107500000000  0.5146790000000  0.5118150000000 1.0
C      1  0.4834880000000  0.4508830000000  0.4913160000000 1.0
C      1  0.4772700000000  0.4889740000000  0.4013340000000 1.0
C      1  0.4594560000000  0.3572760000000  0.5337870000000 1.0
C      1  0.5212020000000  0.5341300000000  0.5289480000000 1.0
C      1  0.5006510000000  0.4958480000000  0.4961820000000 1.0
C      1  0.4653840000000  0.3803960000000  0.5233020000000 1.0
C      1  0.5476070000000  0.5792370000000  0.5199580000000 1.0
C      1  0.5235500000000  0.5819820000000  0.5760620000000 1.0
C      1  0.5371810000000  0.5546770000000  0.5183710000000 1.0
C      1  0.5094090000000  0.5092590000000  0.5689840000000 1.0
C      1  0.5373630000000  0.6005860000000  0.5624610000000 1.0
C      1  0.5481100000000  0.5993220000000  0.5378000000000 1.0
C      1  0.4731130000000  0.4933290000000  0.3755200000000 1.0
C      1  0.5151600000000  0.5331840000000  0.5569410000000 1.0
C      1  0.4899010000000  0.4756670000000  0.4801450000000 1.0
C      1  0.5155380000000  0.5567700000000  0.5722460000000 1.0
C      1  0.4774450000000  0.4274000000000  0.5019760000000 1.0
C      1  0.4814240000000  0.4846190000000  0.4271410000000 1.0
C      1  0.4690220000000  0.4976120000000  0.3501320000000 1.0
END
