TITL C-627113-6568-89 0.00467572402261802 125000 -267.221094798315 0 0 46 (C1) n - 1
REM
REM in /home/nfs/bkarasulu/CARBON/AIRSS/Generating-Clusters/LCBOP/Only-C1/SD-CG/FIRE-CG
REM
REM
REM
REM
REM
REM ./C.cell (11c1c37f851c82e70ff6c80c92926a4b)
REM AIRSS Version 0.9.1 bugfix July 2018 build 013d7b7c2542+ Fri, 06 Jul 2018 19:26:36 +0100
REM compiler GCC version 9.2.1 20190827 (Red Hat 9.2.1-1)
REM options -cpp -mtune=generic -march=x86-64 -g -O0 -fpre-include=/usr/include/finclude/math-vector-fortran.h
REM seed 401426756 1405856711 -2063699741 -2136645700 315237752 1422170704 -1957327483 -898325107 940589522 1403487544 -2035929753 1816826165 -1152099626 825945229 -1148378394 -773158066 -1915326294 636462321 1546547836 670860290 -1243081696 1296388043 1866074124 -1182325905 1608119312 121294767 -1950821246 870245467 1762538012 1768201745 -1996485798 -2117695071 578810455
REM
CELL 1.54180   50.00000   50.00000   50.00000   90.00000   90.00000   90.00000
LATT -1
SFAC C  
C      1  0.4196200000000  0.5098290000000  0.4872200000000 1.0
C      1  0.4851570000000  0.5109890000000  0.5067180000000 1.0
C      1  0.5174570000000  0.4640730000000  0.5329840000000 1.0
C      1  0.5292410000000  0.4896970000000  0.5325010000000 1.0
C      1  0.4301310000000  0.5065350000000  0.5361470000000 1.0
C      1  0.4488010000000  0.5132310000000  0.5544440000000 1.0
C      1  0.5621860000000  0.4806920000000  0.4976830000000 1.0
C      1  0.5023810000000  0.5432490000000  0.4603830000000 1.0
C      1  0.5332530000000  0.4409150000000  0.4529930000000 1.0
C      1  0.4255150000000  0.4946700000000  0.5108420000000 1.0
C      1  0.4635500000000  0.5076190000000  0.4546120000000 1.0
C      1  0.4880910000000  0.4368560000000  0.4630700000000 1.0
C      1  0.5565010000000  0.4562660000000  0.4529910000000 1.0
C      1  0.4990370000000  0.5121690000000  0.5642530000000 1.0
C      1  0.4309680000000  0.4671240000000  0.5091940000000 1.0
C      1  0.5698480000000  0.5362720000000  0.6073220000000 1.0
C      1  0.4874710000000  0.5736330000000  0.4976050000000 1.0
C      1  0.5132530000000  0.4258840000000  0.4647490000000 1.0
C      1  0.4480200000000  0.4476970000000  0.5157380000000 1.0
C      1  0.5254610000000  0.5059300000000  0.5558270000000 1.0
C      1  0.4771750000000  0.4846710000000  0.4646990000000 1.0
C      1  0.5948710000000  0.5226990000000  0.5686660000000 1.0
C      1  0.4878490000000  0.4628480000000  0.4506530000000 1.0
C      1  0.5561480000000  0.4743170000000  0.4306700000000 1.0
C      1  0.4721630000000  0.4406020000000  0.5245000000000 1.0
C      1  0.5334450000000  0.5185280000000  0.4909960000000 1.0
C      1  0.5680030000000  0.4645620000000  0.4771400000000 1.0
C      1  0.4377810000000  0.5115110000000  0.4655360000000 1.0
C      1  0.4811320000000  0.5289140000000  0.4482860000000 1.0
C      1  0.5483450000000  0.5347960000000  0.4482750000000 1.0
C      1  0.5709950000000  0.5248010000000  0.5818460000000 1.0
C      1  0.4815520000000  0.5583160000000  0.5187210000000 1.0
C      1  0.3951530000000  0.5232540000000  0.4855440000000 1.0
C      1  0.4849260000000  0.4892350000000  0.4913380000000 1.0
C      1  0.5474660000000  0.5155040000000  0.5699800000000 1.0
C      1  0.5424450000000  0.4978930000000  0.5082940000000 1.0
C      1  0.5299780000000  0.4800670000000  0.4205340000000 1.0
C      1  0.4972750000000  0.4468760000000  0.5307620000000 1.0
C      1  0.5279810000000  0.5316710000000  0.4664080000000 1.0
C      1  0.5685740000000  0.5469400000000  0.6310670000000 1.0
C      1  0.4808840000000  0.5312850000000  0.5254310000000 1.0
C      1  0.4756580000000  0.5212190000000  0.5514860000000 1.0
C      1  0.4961360000000  0.5676960000000  0.4729410000000 1.0
C      1  0.5107410000000  0.4657560000000  0.4347400000000 1.0
C      1  0.3723590000000  0.5358390000000  0.4844280000000 1.0
C      1  0.5250240000000  0.4968700000000  0.3997820000000 1.0
END
