TITL C-627108-131-2118 0.291702661583019 125000 -624.38196481741 0 0 104 (C1) n - 1
REM
REM in /home/nfs/bkarasulu/CARBON/AIRSS/Generating-Clusters/LCBOP/Only-C1/SD-CG/FIRE-CG
REM
REM
REM
REM
REM
REM ./C.cell (11c1c37f851c82e70ff6c80c92926a4b)
REM AIRSS Version 0.9.1 bugfix July 2018 build 013d7b7c2542+ Fri, 06 Jul 2018 19:26:36 +0100
REM compiler GCC version 9.2.1 20190827 (Red Hat 9.2.1-1)
REM options -cpp -mtune=generic -march=x86-64 -g -O0 -fpre-include=/usr/include/finclude/math-vector-fortran.h
REM seed -2052810127 58793263 -1130560949 717317603 -514846493 1315776015 707180233 -1871613609 -1755206155 -907691493 -2111885076 694324399 -1472942415 -92085533 2069102974 -303967138 -1033095745 -448748741 -1834539557 -933124645 -2060790350 123644672 -884770039 -1315411014 -567263371 -964617348 535923014 1040804475 -1802251158 -1182891972 -1354349997 -1529206275 1356744882
REM
CELL 1.54180   50.00000   50.00000   50.00000   90.00000   90.00000   90.00000
LATT -1
SFAC C  
C      1  0.4882650000000  0.5937920000000  0.4522670000000 1.0
C      1  0.4992470000000  0.4992880000000  0.5530060000000 1.0
C      1  0.4638920000000  0.4611700000000  0.5065700000000 1.0
C      1  0.5305440000000  0.4269690000000  0.4353130000000 1.0
C      1  0.4970670000000  0.4773870000000  0.5379360000000 1.0
C      1  0.4053090000000  0.4907060000000  0.4336110000000 1.0
C      1  0.5354390000000  0.4555620000000  0.4921860000000 1.0
C      1  0.5373390000000  0.4527170000000  0.4321510000000 1.0
C      1  0.4610930000000  0.4468420000000  0.5571780000000 1.0
C      1  0.4921690000000  0.5324510000000  0.6281660000000 1.0
C      1  0.5141590000000  0.4792690000000  0.6032480000000 1.0
C      1  0.4512610000000  0.4718550000000  0.4833550000000 1.0
C      1  0.5906160000000  0.4594480000000  0.5869640000000 1.0
C      1  0.5686320000000  0.5360950000000  0.4908460000000 1.0
C      1  0.5490260000000  0.5238810000000  0.4294040000000 1.0
C      1  0.4379840000000  0.5045480000000  0.5875000000000 1.0
C      1  0.5261290000000  0.5607440000000  0.5039660000000 1.0
C      1  0.5073310000000  0.4635640000000  0.4894120000000 1.0
C      1  0.5709470000000  0.4118660000000  0.5382050000000 1.0
C      1  0.4721460000000  0.4274790000000  0.5383440000000 1.0
C      1  0.4968140000000  0.4212260000000  0.3560170000000 1.0
C      1  0.4633850000000  0.4491700000000  0.4134150000000 1.0
C      1  0.4664970000000  0.5569610000000  0.5531950000000 1.0
C      1  0.5378810000000  0.5868250000000  0.5051630000000 1.0
C      1  0.4866650000000  0.4131500000000  0.3800970000000 1.0
C      1  0.5398850000000  0.5022330000000  0.4490980000000 1.0
C      1  0.5287880000000  0.5407050000000  0.4189040000000 1.0
C      1  0.5260650000000  0.5017830000000  0.5148030000000 1.0
C      1  0.5049800000000  0.6190340000000  0.4963100000000 1.0
C      1  0.5909110000000  0.4358660000000  0.5748850000000 1.0
C      1  0.4399520000000  0.4661330000000  0.5517510000000 1.0
C      1  0.5299720000000  0.4797970000000  0.4318590000000 1.0
C      1  0.5468510000000  0.5020430000000  0.5317840000000 1.0
C      1  0.4610260000000  0.5853470000000  0.4545220000000 1.0
C      1  0.5131840000000  0.4124750000000  0.4500850000000 1.0
C      1  0.5263840000000  0.5531990000000  0.6006580000000 1.0
C      1  0.4540850000000  0.5266240000000  0.5960850000000 1.0
C      1  0.4429480000000  0.5587100000000  0.5378210000000 1.0
C      1  0.4897770000000  0.3866950000000  0.3886110000000 1.0
C      1  0.4254210000000  0.5384630000000  0.5352980000000 1.0
C      1  0.5648130000000  0.4945180000000  0.4658580000000 1.0
C      1  0.5163890000000  0.5303620000000  0.6137580000000 1.0
C      1  0.5800380000000  0.5323460000000  0.5161420000000 1.0
C      1  0.5194260000000  0.6075140000000  0.5441570000000 1.0
C      1  0.5589960000000  0.5930830000000  0.4877320000000 1.0
C      1  0.5238490000000  0.5038200000000  0.6078390000000 1.0
C      1  0.5062530000000  0.4173670000000  0.4994410000000 1.0
C      1  0.4978310000000  0.4226120000000  0.4715700000000 1.0
C      1  0.4382710000000  0.4968590000000  0.4904930000000 1.0
C      1  0.4446140000000  0.5640360000000  0.4634120000000 1.0
C      1  0.5774640000000  0.5221330000000  0.4672910000000 1.0
C      1  0.4879080000000  0.4102010000000  0.5210620000000 1.0
C      1  0.4561000000000  0.4708560000000  0.4324540000000 1.0
C      1  0.5329640000000  0.4289400000000  0.5042300000000 1.0
C      1  0.4668200000000  0.5269680000000  0.6212020000000 1.0
C      1  0.4994440000000  0.5573760000000  0.5150710000000 1.0
C      1  0.5212990000000  0.6072190000000  0.5161110000000 1.0
C      1  0.4973770000000  0.6124920000000  0.4712800000000 1.0
C      1  0.4831280000000  0.5099990000000  0.4891610000000 1.0
C      1  0.4908710000000  0.4666740000000  0.5129750000000 1.0
C      1  0.4232510000000  0.4933830000000  0.5148310000000 1.0
C      1  0.4916790000000  0.5492770000000  0.5415130000000 1.0
C      1  0.4851950000000  0.3825930000000  0.5258650000000 1.0
C      1  0.5900400000000  0.4830590000000  0.5980020000000 1.0
C      1  0.4370330000000  0.4948440000000  0.5607190000000 1.0
C      1  0.4263490000000  0.4744740000000  0.4327480000000 1.0
C      1  0.4196430000000  0.5581100000000  0.4526640000000 1.0
C      1  0.4219660000000  0.4922140000000  0.6061510000000 1.0
C      1  0.5583990000000  0.5668590000000  0.4441990000000 1.0
C      1  0.4679130000000  0.4972280000000  0.4229030000000 1.0
C      1  0.5265220000000  0.5753610000000  0.5856380000000 1.0
C      1  0.4831640000000  0.3569570000000  0.5300820000000 1.0
C      1  0.4930950000000  0.3624490000000  0.3975750000000 1.0
C      1  0.5526710000000  0.4171310000000  0.5197810000000 1.0
C      1  0.5104560000000  0.5083870000000  0.4920820000000 1.0
C      1  0.4775220000000  0.5599910000000  0.4975530000000 1.0
C      1  0.4909660000000  0.4508480000000  0.4679870000000 1.0
C      1  0.4563850000000  0.5190460000000  0.4863440000000 1.0
C      1  0.5699450000000  0.5154820000000  0.5346260000000 1.0
C      1  0.4268410000000  0.5107180000000  0.5379250000000 1.0
C      1  0.6040580000000  0.3905780000000  0.5657310000000 1.0
C      1  0.5575530000000  0.4714890000000  0.4823190000000 1.0
C      1  0.5698260000000  0.5390480000000  0.4436700000000 1.0
C      1  0.5663840000000  0.5861370000000  0.4629130000000 1.0
C      1  0.5315400000000  0.5677630000000  0.4318470000000 1.0
C      1  0.4958150000000  0.4614190000000  0.5955460000000 1.0
C      1  0.4731580000000  0.4312850000000  0.3965370000000 1.0
C      1  0.5022020000000  0.5257830000000  0.5526680000000 1.0
C      1  0.5124190000000  0.4883600000000  0.4115310000000 1.0
C      1  0.5039890000000  0.5783580000000  0.4340470000000 1.0
C      1  0.4879410000000  0.5594780000000  0.4179090000000 1.0
C      1  0.4920580000000  0.5078000000000  0.4131120000000 1.0
C      1  0.4612400000000  0.5480130000000  0.5793420000000 1.0
C      1  0.5010310000000  0.5345810000000  0.4127540000000 1.0
C      1  0.5260630000000  0.5207010000000  0.4719940000000 1.0
C      1  0.4562790000000  0.5474870000000  0.4833510000000 1.0
C      1  0.4762090000000  0.4506810000000  0.5808980000000 1.0
C      1  0.5888410000000  0.4124750000000  0.5596860000000 1.0
C      1  0.5402320000000  0.5417620000000  0.4876450000000 1.0
C      1  0.4661950000000  0.4638050000000  0.4602050000000 1.0
C      1  0.5226340000000  0.5946370000000  0.5674640000000 1.0
C      1  0.4017680000000  0.5405390000000  0.4438070000000 1.0
C      1  0.4235370000000  0.4665640000000  0.5274090000000 1.0
C      1  0.3960740000000  0.5154020000000  0.4371990000000 1.0
END
