TITL C-627108-131-420 -1529.88933227924 125000 -570.267067754849 0 0 95 (C1) n - 1
REM
REM in /home/nfs/bkarasulu/CARBON/AIRSS/Generating-Clusters/LCBOP/Only-C1/SD-CG/FIRE-CG
REM
REM
REM
REM
REM
REM ./C.cell (11c1c37f851c82e70ff6c80c92926a4b)
REM AIRSS Version 0.9.1 bugfix July 2018 build 013d7b7c2542+ Fri, 06 Jul 2018 19:26:36 +0100
REM compiler GCC version 9.2.1 20190827 (Red Hat 9.2.1-1)
REM options -cpp -mtune=generic -march=x86-64 -g -O0 -fpre-include=/usr/include/finclude/math-vector-fortran.h
REM seed 324126949 -86269233 2005900797 -1553624788 890304605 220993403 -1211676011 1997329596 1987341805 640673583 2042781107 3490464 967858483 -1699055031 1219983250 177569185 63235855 -1035014895 524788892 1389127235 -97919885 -918397789 632860887 -1871684473 1276154349 1374779092 -1928415072 1281368955 -1438694708 -1394165037 -1756503199 131619311 -742100631
REM
CELL 1.54180   50.00000   50.00000   50.00000   90.00000   90.00000   90.00000
LATT -1
SFAC C  
C      1  0.4896470000000  0.4590970000000  0.4880730000000 1.0
C      1  0.4756450000000  0.5834330000000  0.4820840000000 1.0
C      1  0.4431370000000  0.5463940000000  0.5626610000000 1.0
C      1  0.5232330000000  0.5231960000000  0.4063670000000 1.0
C      1  0.4273990000000  0.4959570000000  0.5534220000000 1.0
C      1  0.4298990000000  0.5388070000000  0.5015890000000 1.0
C      1  0.3515140000000  0.4516760000000  0.5201760000000 1.0
C      1  0.5319050000000  0.4939330000000  0.5717470000000 1.0
C      1  0.5823120000000  0.4673230000000  0.5473170000000 1.0
C      1  0.5484520000000  0.5590710000000  0.4459880000000 1.0
C      1  0.4813680000000  0.3888210000000  0.4631970000000 1.0
C      1  0.5294450000000  0.4699210000000  0.4525080000000 1.0
C      1  0.4414360000000  0.5186020000000  0.4451650000000 1.0
C      1  0.4981150000000  0.5101190000000  0.4020270000000 1.0
C      1  0.4785230000000  0.3682040000000  0.4475170000000 1.0
C      1  0.5661100000000  0.5539940000000  0.5458510000000 1.0
C      1  0.4771850000000  0.5157400000000  0.5328910000000 1.0
C      1  0.5192630000000  0.5392890000000  0.5580750000000 1.0
C      1  0.5280640000000  0.5885420000000  0.4790220000000 1.0
C      1  0.5688490000000  0.5232180000000  0.4890620000000 1.0
C      1  0.5659090000000  0.4644220000000  0.5705990000000 1.0
C      1  0.4793240000000  0.4983090000000  0.4655290000000 1.0
C      1  0.5013030000000  0.5903970000000  0.4672750000000 1.0
C      1  0.5409710000000  0.4476010000000  0.5739800000000 1.0
C      1  0.5583090000000  0.4675950000000  0.4907770000000 1.0
C      1  0.5757990000000  0.5212120000000  0.4612020000000 1.0
C      1  0.4410630000000  0.4855420000000  0.4993710000000 1.0
C      1  0.5326300000000  0.4979010000000  0.4466370000000 1.0
C      1  0.4482440000000  0.4481000000000  0.4537420000000 1.0
C      1  0.4690390000000  0.5589710000000  0.5569310000000 1.0
C      1  0.5253740000000  0.5664500000000  0.4289750000000 1.0
C      1  0.4410440000000  0.5140510000000  0.4935140000000 1.0
C      1  0.5499240000000  0.4569130000000  0.4651090000000 1.0
C      1  0.4345080000000  0.5657720000000  0.5034360000000 1.0
C      1  0.4782620000000  0.4922070000000  0.5769300000000 1.0
C      1  0.4513380000000  0.4349270000000  0.5113400000000 1.0
C      1  0.5034680000000  0.4610930000000  0.4616320000000 1.0
C      1  0.4900910000000  0.4665940000000  0.5729170000000 1.0
C      1  0.5032760000000  0.4997080000000  0.4812410000000 1.0
C      1  0.4597730000000  0.5802960000000  0.5073510000000 1.0
C      1  0.4623140000000  0.5321220000000  0.4283330000000 1.0
C      1  0.4734220000000  0.5554190000000  0.4718050000000 1.0
C      1  0.4845280000000  0.4923490000000  0.5202490000000 1.0
C      1  0.4686490000000  0.4749870000000  0.5038330000000 1.0
C      1  0.4311530000000  0.4920930000000  0.4365700000000 1.0
C      1  0.4330550000000  0.4704940000000  0.5453020000000 1.0
C      1  0.4827110000000  0.5400520000000  0.5173450000000 1.0
C      1  0.4271370000000  0.4690260000000  0.4570100000000 1.0
C      1  0.4845620000000  0.4117260000000  0.4796170000000 1.0
C      1  0.4202870000000  0.4724780000000  0.4845400000000 1.0
C      1  0.4739970000000  0.4483510000000  0.5570290000000 1.0
C      1  0.5221130000000  0.4053830000000  0.5474970000000 1.0
C      1  0.5278900000000  0.5123270000000  0.5500660000000 1.0
C      1  0.5178070000000  0.5403710000000  0.4791710000000 1.0
C      1  0.5304870000000  0.4415950000000  0.5233900000000 1.0
C      1  0.4594020000000  0.4290060000000  0.4819010000000 1.0
C      1  0.5753520000000  0.5154510000000  0.5765800000000 1.0
C      1  0.5491720000000  0.5687820000000  0.4741020000000 1.0
C      1  0.5396520000000  0.5582180000000  0.5550220000000 1.0
C      1  0.5606110000000  0.5330390000000  0.4396950000000 1.0
C      1  0.5001260000000  0.5741070000000  0.4408280000000 1.0
C      1  0.5907330000000  0.5843180000000  0.5174610000000 1.0
C      1  0.5227710000000  0.5146580000000  0.4676930000000 1.0
C      1  0.5234840000000  0.5516340000000  0.4047050000000 1.0
C      1  0.5342100000000  0.4204990000000  0.5672940000000 1.0
C      1  0.5154750000000  0.4610080000000  0.5337830000000 1.0
C      1  0.5186970000000  0.4676230000000  0.5756670000000 1.0
C      1  0.5613180000000  0.4963900000000  0.5068690000000 1.0
C      1  0.5731950000000  0.5632650000000  0.5196350000000 1.0
C      1  0.4558760000000  0.5139410000000  0.4693220000000 1.0
C      1  0.5120740000000  0.4146820000000  0.4916370000000 1.0
C      1  0.4301560000000  0.5223740000000  0.5597440000000 1.0
C      1  0.4648480000000  0.4617310000000  0.4324760000000 1.0
C      1  0.5626910000000  0.5517730000000  0.4954540000000 1.0
C      1  0.4840250000000  0.4758410000000  0.4475390000000 1.0
C      1  0.5819590000000  0.4867810000000  0.5281080000000 1.0
C      1  0.4915500000000  0.5418480000000  0.5665650000000 1.0
C      1  0.4530740000000  0.4841840000000  0.4170570000000 1.0
C      1  0.4516230000000  0.4490120000000  0.5383040000000 1.0
C      1  0.4776100000000  0.5538380000000  0.4427780000000 1.0
C      1  0.4709880000000  0.5089050000000  0.4111020000000 1.0
C      1  0.5357810000000  0.4259870000000  0.4778490000000 1.0
C      1  0.5839020000000  0.5388370000000  0.5627930000000 1.0
C      1  0.6098000000000  0.5473220000000  0.5660130000000 1.0
C      1  0.5513600000000  0.4453770000000  0.5068530000000 1.0
C      1  0.5427450000000  0.5139490000000  0.4255700000000 1.0
C      1  0.4916990000000  0.5427350000000  0.4903830000000 1.0
C      1  0.5178140000000  0.4156340000000  0.5209700000000 1.0
C      1  0.3734000000000  0.4580770000000  0.5075420000000 1.0
C      1  0.5597690000000  0.4921740000000  0.5792890000000 1.0
C      1  0.4798470000000  0.5154360000000  0.5616470000000 1.0
C      1  0.5333220000000  0.5032450000000  0.5224040000000 1.0
C      1  0.4729020000000  0.5653610000000  0.5289250000000 1.0
C      1  0.3959010000000  0.4648600000000  0.4953150000000 1.0
C      1  0.5098250000000  0.4959220000000  0.5081420000000 1.0
END
