TITL C-627111-6168-2102 -2.80066689530523e-07 125000 -299.927839479434 0 0 50 (C1) n - 1
REM
REM in /home/nfs/bkarasulu/CARBON/AIRSS/Generating-Clusters/LCBOP/Only-C1/SD-CG/FIRE-CG
REM
REM
REM
REM
REM
REM ./C.cell (11c1c37f851c82e70ff6c80c92926a4b)
REM AIRSS Version 0.9.1 bugfix July 2018 build 013d7b7c2542+ Fri, 06 Jul 2018 19:26:36 +0100
REM compiler GCC version 9.2.1 20190827 (Red Hat 9.2.1-1)
REM options -cpp -mtune=generic -march=x86-64 -g -O0 -fpre-include=/usr/include/finclude/math-vector-fortran.h
REM seed -1517281428 1071016377 1886497139 1241740991 1663978279 646982646 666266249 416025158 -1975204911 940269398 2074467681 -1974593763 -1662152088 -1047749126 -1407975124 -375838600 510636433 -1484129549 299564249 -1988499381 379094958 -613708110 1057306984 -103648538 -2144296345 436330082 -446573320 -2069606912 -1209017301 -901539807 1799692158 -363809578 -235759339
REM
CELL 1.54180   50.00000   50.00000   50.00000   90.00000   90.00000   90.00000
LATT -1
SFAC C  
C      1  0.4990100000000  0.4406560000000  0.5574900000000 1.0
C      1  0.4481650000000  0.5674290000000  0.5404580000000 1.0
C      1  0.5225500000000  0.5333910000000  0.4287010000000 1.0
C      1  0.4575140000000  0.6188390000000  0.4060750000000 1.0
C      1  0.5152500000000  0.5179550000000  0.5156060000000 1.0
C      1  0.5710500000000  0.5180140000000  0.4976640000000 1.0
C      1  0.5412210000000  0.5163030000000  0.4369510000000 1.0
C      1  0.4825600000000  0.4696750000000  0.4472860000000 1.0
C      1  0.5140430000000  0.4124210000000  0.5207500000000 1.0
C      1  0.5000960000000  0.5476710000000  0.4287870000000 1.0
C      1  0.5505500000000  0.5067600000000  0.4835160000000 1.0
C      1  0.5473840000000  0.5246370000000  0.5681510000000 1.0
C      1  0.4504640000000  0.5089830000000  0.4506010000000 1.0
C      1  0.4735310000000  0.4533980000000  0.5553080000000 1.0
C      1  0.5632000000000  0.5445340000000  0.5739020000000 1.0
C      1  0.4958060000000  0.4609470000000  0.4702870000000 1.0
C      1  0.4969730000000  0.4173740000000  0.4991060000000 1.0
C      1  0.4553740000000  0.5347900000000  0.4412210000000 1.0
C      1  0.5720900000000  0.4511570000000  0.4597920000000 1.0
C      1  0.5536630000000  0.4999930000000  0.4559660000000 1.0
C      1  0.5254650000000  0.5007280000000  0.4955170000000 1.0
C      1  0.5303240000000  0.5040600000000  0.5604090000000 1.0
C      1  0.4989070000000  0.3923090000000  0.5621810000000 1.0
C      1  0.4733350000000  0.5803340000000  0.4973500000000 1.0
C      1  0.5326050000000  0.4781450000000  0.5706840000000 1.0
C      1  0.5610020000000  0.4178400000000  0.4982350000000 1.0
C      1  0.4532900000000  0.5460410000000  0.5555140000000 1.0
C      1  0.5093760000000  0.5082910000000  0.5416310000000 1.0
C      1  0.4645530000000  0.4875560000000  0.4391170000000 1.0
C      1  0.4400420000000  0.4913600000000  0.4988930000000 1.0
C      1  0.5657640000000  0.4753300000000  0.4505280000000 1.0
C      1  0.4741930000000  0.5550590000000  0.4366310000000 1.0
C      1  0.5201440000000  0.4546850000000  0.5693020000000 1.0
C      1  0.4520380000000  0.4795780000000  0.5195100000000 1.0
C      1  0.4972500000000  0.5665000000000  0.5021820000000 1.0
C      1  0.4518800000000  0.4420960000000  0.5678350000000 1.0
C      1  0.4674210000000  0.5880460000000  0.4712000000000 1.0
C      1  0.4824220000000  0.5024230000000  0.5488050000000 1.0
C      1  0.5710500000000  0.4315170000000  0.4777280000000 1.0
C      1  0.4700360000000  0.4778810000000  0.5410440000000 1.0
C      1  0.4548090000000  0.5809030000000  0.5183840000000 1.0
C      1  0.4624860000000  0.6010630000000  0.4244730000000 1.0
C      1  0.5038590000000  0.4145860000000  0.5471220000000 1.0
C      1  0.4679480000000  0.5818350000000  0.4438750000000 1.0
C      1  0.4384410000000  0.5038710000000  0.4754300000000 1.0
C      1  0.4919650000000  0.4350820000000  0.4799650000000 1.0
C      1  0.5104690000000  0.4792520000000  0.4856740000000 1.0
C      1  0.5106440000000  0.5447900000000  0.5093400000000 1.0
C      1  0.5414220000000  0.4108070000000  0.5148910000000 1.0
C      1  0.4663660000000  0.5231020000000  0.5589330000000 1.0
END
