TITL C-627111-6168-1846 -538.59991203858 125000 -570.690689821278 0 0 94 (C1) n - 1
REM
REM in /home/nfs/bkarasulu/CARBON/AIRSS/Generating-Clusters/LCBOP/Only-C1/SD-CG/FIRE-CG
REM
REM
REM
REM
REM
REM ./C.cell (11c1c37f851c82e70ff6c80c92926a4b)
REM AIRSS Version 0.9.1 bugfix July 2018 build 013d7b7c2542+ Fri, 06 Jul 2018 19:26:36 +0100
REM compiler GCC version 9.2.1 20190827 (Red Hat 9.2.1-1)
REM options -cpp -mtune=generic -march=x86-64 -g -O0 -fpre-include=/usr/include/finclude/math-vector-fortran.h
REM seed 582663341 1444132291 542527678 750584562 857539983 726331354 -814188595 849055425 711333411 2015276220 -192819759 1138477026 -785065574 1610621456 -1677118236 140519139 -1859601636 -692833091 -1674317909 -107143086 -257027787 -1602908377 491362973 1750347824 -767831389 1659223785 1416715620 -1844201060 -1370672723 789113296 1471794762 -1605063111 -1083516839
REM
CELL 1.54180   50.00000   50.00000   50.00000   90.00000   90.00000   90.00000
LATT -1
SFAC C  
C      1  0.4555000000000  0.5540180000000  0.4436880000000 1.0
C      1  0.4748850000000  0.4110720000000  0.4806900000000 1.0
C      1  0.5481610000000  0.4582830000000  0.4432470000000 1.0
C      1  0.5663520000000  0.5342810000000  0.5424800000000 1.0
C      1  0.4960610000000  0.4636770000000  0.3875510000000 1.0
C      1  0.4659990000000  0.5902170000000  0.4776740000000 1.0
C      1  0.5297270000000  0.4588210000000  0.5373950000000 1.0
C      1  0.5608730000000  0.5175910000000  0.5201420000000 1.0
C      1  0.5214650000000  0.4369500000000  0.5216920000000 1.0
C      1  0.5194340000000  0.5002010000000  0.4338790000000 1.0
C      1  0.4339550000000  0.5531540000000  0.4901640000000 1.0
C      1  0.4489450000000  0.4801850000000  0.5360660000000 1.0
C      1  0.5216180000000  0.5571560000000  0.5329150000000 1.0
C      1  0.4882580000000  0.4401610000000  0.5734360000000 1.0
C      1  0.5156240000000  0.5440100000000  0.4664650000000 1.0
C      1  0.4485370000000  0.4836430000000  0.4363180000000 1.0
C      1  0.5272820000000  0.4666020000000  0.5849890000000 1.0
C      1  0.3864450000000  0.5077830000000  0.5059740000000 1.0
C      1  0.5659550000000  0.4985060000000  0.5759230000000 1.0
C      1  0.4692330000000  0.5792000000000  0.4513090000000 1.0
C      1  0.5598230000000  0.4316330000000  0.5624020000000 1.0
C      1  0.4632390000000  0.5078120000000  0.5738570000000 1.0
C      1  0.4982360000000  0.5224770000000  0.4691030000000 1.0
C      1  0.4884670000000  0.6015570000000  0.4906370000000 1.0
C      1  0.4819130000000  0.4322400000000  0.4986930000000 1.0
C      1  0.5323360000000  0.5085450000000  0.5124830000000 1.0
C      1  0.5105180000000  0.4962000000000  0.4634770000000 1.0
C      1  0.4355940000000  0.5454320000000  0.4620660000000 1.0
C      1  0.3980570000000  0.5139460000000  0.5295810000000 1.0
C      1  0.5092010000000  0.4978380000000  0.5528370000000 1.0
C      1  0.4402730000000  0.4319800000000  0.4591910000000 1.0
C      1  0.4876060000000  0.4665540000000  0.4120350000000 1.0
C      1  0.4865140000000  0.4574240000000  0.4858590000000 1.0
C      1  0.5812100000000  0.4981510000000  0.5153480000000 1.0
C      1  0.5390160000000  0.4508440000000  0.5638560000000 1.0
C      1  0.5301850000000  0.5886590000000  0.4707060000000 1.0
C      1  0.4294050000000  0.4534970000000  0.4737000000000 1.0
C      1  0.5608550000000  0.4605350000000  0.4708510000000 1.0
C      1  0.5392660000000  0.4933080000000  0.5864440000000 1.0
C      1  0.5023960000000  0.5202410000000  0.4210110000000 1.0
C      1  0.4725240000000  0.5209660000000  0.4784470000000 1.0
C      1  0.5838090000000  0.4748720000000  0.5310130000000 1.0
C      1  0.5283620000000  0.4132120000000  0.4783770000000 1.0
C      1  0.5841850000000  0.5509470000000  0.4485290000000 1.0
C      1  0.5334960000000  0.4972490000000  0.4843160000000 1.0
C      1  0.5618580000000  0.4448910000000  0.4952550000000 1.0
C      1  0.4936880000000  0.4306490000000  0.5240780000000 1.0
C      1  0.5310760000000  0.4365660000000  0.4372980000000 1.0
C      1  0.4376020000000  0.5334600000000  0.5112340000000 1.0
C      1  0.5791840000000  0.5251450000000  0.4441750000000 1.0
C      1  0.4529720000000  0.5949500000000  0.5501850000000 1.0
C      1  0.4250000000000  0.5213200000000  0.5353390000000 1.0
C      1  0.4243780000000  0.4939250000000  0.4416990000000 1.0
C      1  0.5759400000000  0.4289450000000  0.5404350000000 1.0
C      1  0.5232930000000  0.4861190000000  0.5317990000000 1.0
C      1  0.4833140000000  0.5406880000000  0.4248420000000 1.0
C      1  0.5060670000000  0.5362400000000  0.5773210000000 1.0
C      1  0.5453810000000  0.4867350000000  0.4317350000000 1.0
C      1  0.4615240000000  0.5709410000000  0.5446870000000 1.0
C      1  0.5234350000000  0.5810580000000  0.5181830000000 1.0
C      1  0.4654260000000  0.4367640000000  0.4438560000000 1.0
C      1  0.4780140000000  0.4377660000000  0.5471760000000 1.0
C      1  0.4623790000000  0.5163470000000  0.5052330000000 1.0
C      1  0.5779810000000  0.4488810000000  0.5197430000000 1.0
C      1  0.5153830000000  0.4198220000000  0.4537970000000 1.0
C      1  0.4465890000000  0.4084830000000  0.4753020000000 1.0
C      1  0.4443740000000  0.5796030000000  0.4930220000000 1.0
C      1  0.5192600000000  0.5565090000000  0.5616110000000 1.0
C      1  0.4031080000000  0.5000900000000  0.4568580000000 1.0
C      1  0.4776470000000  0.4857450000000  0.5870060000000 1.0
C      1  0.5190960000000  0.5112550000000  0.5763620000000 1.0
C      1  0.4551900000000  0.4539120000000  0.5428720000000 1.0
C      1  0.4426710000000  0.5031860000000  0.5526830000000 1.0
C      1  0.4372310000000  0.4733390000000  0.4899150000000 1.0
C      1  0.4518220000000  0.4881260000000  0.5088560000000 1.0
C      1  0.5164630000000  0.5694210000000  0.4548870000000 1.0
C      1  0.3894030000000  0.5039160000000  0.4795850000000 1.0
C      1  0.5121100000000  0.5326280000000  0.5194890000000 1.0
C      1  0.4777820000000  0.5329270000000  0.5706130000000 1.0
C      1  0.4906710000000  0.4734790000000  0.4630110000000 1.0
C      1  0.4975610000000  0.4640070000000  0.5864150000000 1.0
C      1  0.5806650000000  0.4798860000000  0.5594660000000 1.0
C      1  0.5380260000000  0.4288850000000  0.4997380000000 1.0
C      1  0.5773840000000  0.5752350000000  0.4572280000000 1.0
C      1  0.5593370000000  0.4895310000000  0.4739980000000 1.0
C      1  0.4944310000000  0.5739200000000  0.4387090000000 1.0
C      1  0.4723360000000  0.5453200000000  0.5453780000000 1.0
C      1  0.5577020000000  0.5909630000000  0.4662750000000 1.0
C      1  0.5704380000000  0.5255960000000  0.5679040000000 1.0
C      1  0.5157340000000  0.5946870000000  0.4947050000000 1.0
C      1  0.5651190000000  0.5016790000000  0.4482180000000 1.0
C      1  0.4730640000000  0.4660680000000  0.4379440000000 1.0
C      1  0.4832250000000  0.5300790000000  0.5229820000000 1.0
C      1  0.4868710000000  0.4186860000000  0.4540820000000 1.0
END
