TITL C-627110-360-941 65.1462859789841 125000 -1079.16244373386 0 0 174 (C1) n - 1
REM
REM in /home/nfs/bkarasulu/CARBON/AIRSS/Generating-Clusters/LCBOP/Only-C1/SD-CG/FIRE-CG
REM
REM
REM
REM
REM
REM ./C.cell (11c1c37f851c82e70ff6c80c92926a4b)
REM AIRSS Version 0.9.1 bugfix July 2018 build 013d7b7c2542+ Fri, 06 Jul 2018 19:26:36 +0100
REM compiler GCC version 9.2.1 20190827 (Red Hat 9.2.1-1)
REM options -cpp -mtune=generic -march=x86-64 -g -O0 -fpre-include=/usr/include/finclude/math-vector-fortran.h
REM seed 196542743 -1478069415 -255749723 1133347156 814692916 -360450504 1060570578 2115788970 -764420203 -1425272683 -1401927467 1513132361 1099235624 -254335007 -71852897 -1913363975 -245265917 -1190572141 -2016681409 -1170489163 1846090677 1470459001 -349015814 1548267199 1922908284 1367407982 9272374 50636939 1103038719 -957088749 1948286432 -426523363 2353817
REM
CELL 1.54180   50.00000   50.00000   50.00000   90.00000   90.00000   90.00000
LATT -1
SFAC C  
C      1  0.3857530000000  0.5447370000000  0.5046480000000 1.0
C      1  0.4618720000000  0.3676810000000  0.4359480000000 1.0
C      1  0.5017890000000  0.4871670000000  0.5360850000000 1.0
C      1  0.4540060000000  0.4217850000000  0.4432300000000 1.0
C      1  0.4989600000000  0.3806690000000  0.4793620000000 1.0
C      1  0.4939090000000  0.5106910000000  0.4376310000000 1.0
C      1  0.5779190000000  0.5734990000000  0.5333410000000 1.0
C      1  0.5087990000000  0.4465240000000  0.4767680000000 1.0
C      1  0.5816790000000  0.4163810000000  0.5306470000000 1.0
C      1  0.5270840000000  0.4670040000000  0.4820180000000 1.0
C      1  0.5373260000000  0.6009770000000  0.5223480000000 1.0
C      1  0.4557380000000  0.5367250000000  0.4980800000000 1.0
C      1  0.5273280000000  0.4936620000000  0.4716010000000 1.0
C      1  0.5138460000000  0.4866460000000  0.5613880000000 1.0
C      1  0.5022230000000  0.3901100000000  0.4523010000000 1.0
C      1  0.4895540000000  0.5804240000000  0.5013180000000 1.0
C      1  0.5548950000000  0.4485610000000  0.5763090000000 1.0
C      1  0.4346170000000  0.5879730000000  0.4264400000000 1.0
C      1  0.5410510000000  0.5226960000000  0.5715910000000 1.0
C      1  0.5466260000000  0.3852100000000  0.4801860000000 1.0
C      1  0.4284650000000  0.5027210000000  0.4759980000000 1.0
C      1  0.5507620000000  0.5036300000000  0.4582260000000 1.0
C      1  0.4148220000000  0.4600410000000  0.4244680000000 1.0
C      1  0.5102880000000  0.4382520000000  0.4499860000000 1.0
C      1  0.4877660000000  0.4827490000000  0.4300870000000 1.0
C      1  0.4615440000000  0.4795490000000  0.4180680000000 1.0
C      1  0.5925390000000  0.4510620000000  0.4967340000000 1.0
C      1  0.4696450000000  0.5915820000000  0.4584790000000 1.0
C      1  0.5348790000000  0.5082360000000  0.4101750000000 1.0
C      1  0.5276950000000  0.5479410000000  0.4398820000000 1.0
C      1  0.5137870000000  0.5416080000000  0.6095440000000 1.0
C      1  0.4648010000000  0.6013660000000  0.5481930000000 1.0
C      1  0.4641840000000  0.3920880000000  0.5466440000000 1.0
C      1  0.5106840000000  0.6098980000000  0.5316920000000 1.0
C      1  0.5471440000000  0.4069430000000  0.4615210000000 1.0
C      1  0.3950980000000  0.4841640000000  0.5111680000000 1.0
C      1  0.5888980000000  0.5124270000000  0.5841250000000 1.0
C      1  0.5860330000000  0.5585720000000  0.4138910000000 1.0
C      1  0.4792570000000  0.5236360000000  0.5538090000000 1.0
C      1  0.4452090000000  0.6002300000000  0.4480270000000 1.0
C      1  0.5016650000000  0.6223330000000  0.4824720000000 1.0
C      1  0.4726710000000  0.4123150000000  0.4228510000000 1.0
C      1  0.5350590000000  0.4683860000000  0.5092640000000 1.0
C      1  0.4902990000000  0.6103330000000  0.5079890000000 1.0
C      1  0.5897840000000  0.5701490000000  0.5065560000000 1.0
C      1  0.4316670000000  0.4037390000000  0.4480560000000 1.0
C      1  0.4967710000000  0.4267250000000  0.6161120000000 1.0
C      1  0.4776840000000  0.3893200000000  0.4979310000000 1.0
C      1  0.5314620000000  0.5372980000000  0.3733900000000 1.0
C      1  0.5573230000000  0.5252970000000  0.6181720000000 1.0
C      1  0.4002600000000  0.4400060000000  0.4380210000000 1.0
C      1  0.4004810000000  0.4717870000000  0.5374830000000 1.0
C      1  0.5514520000000  0.5227400000000  0.4986530000000 1.0
C      1  0.3451270000000  0.4960620000000  0.4952890000000 1.0
C      1  0.4826070000000  0.3868120000000  0.4323820000000 1.0
C      1  0.5608950000000  0.4711660000000  0.5598850000000 1.0
C      1  0.5418390000000  0.4940910000000  0.5628450000000 1.0
C      1  0.5631570000000  0.5632900000000  0.4001650000000 1.0
C      1  0.5905670000000  0.5269590000000  0.5589130000000 1.0
C      1  0.5135980000000  0.5726690000000  0.4018900000000 1.0
C      1  0.5283520000000  0.4628080000000  0.4119970000000 1.0
C      1  0.5017150000000  0.4878740000000  0.5857090000000 1.0
C      1  0.5240310000000  0.3723460000000  0.4914910000000 1.0
C      1  0.6036330000000  0.4913190000000  0.4732950000000 1.0
C      1  0.4472800000000  0.5394170000000  0.5938950000000 1.0
C      1  0.4530240000000  0.4891870000000  0.6095530000000 1.0
C      1  0.4260600000000  0.5416640000000  0.4147870000000 1.0
C      1  0.4391950000000  0.5103290000000  0.5949490000000 1.0
C      1  0.3878390000000  0.4833950000000  0.3841510000000 1.0
C      1  0.4409490000000  0.5125480000000  0.4504950000000 1.0
C      1  0.5290940000000  0.5105930000000  0.3821210000000 1.0
C      1  0.5455470000000  0.5432370000000  0.5524930000000 1.0
C      1  0.4936610000000  0.5951110000000  0.4424660000000 1.0
C      1  0.4637320000000  0.4647030000000  0.4755830000000 1.0
C      1  0.4538180000000  0.4489310000000  0.4530130000000 1.0
C      1  0.6040080000000  0.5523430000000  0.4332790000000 1.0
C      1  0.4033340000000  0.4828700000000  0.5636360000000 1.0
C      1  0.4712380000000  0.4171810000000  0.4960670000000 1.0
C      1  0.4932720000000  0.6035990000000  0.5549910000000 1.0
C      1  0.4226430000000  0.5020460000000  0.5721340000000 1.0
C      1  0.4827530000000  0.5455180000000  0.5385780000000 1.0
C      1  0.4441730000000  0.5627920000000  0.4181540000000 1.0
C      1  0.4424650000000  0.4635350000000  0.4313730000000 1.0
C      1  0.4950190000000  0.4329660000000  0.4981130000000 1.0
C      1  0.4723380000000  0.5295730000000  0.4498490000000 1.0
C      1  0.4767630000000  0.5416670000000  0.4770930000000 1.0
C      1  0.5173800000000  0.4609980000000  0.3852160000000 1.0
C      1  0.5074460000000  0.4327730000000  0.5240260000000 1.0
C      1  0.6129560000000  0.5175680000000  0.4673310000000 1.0
C      1  0.3696780000000  0.4922890000000  0.5031880000000 1.0
C      1  0.4577080000000  0.5658300000000  0.5838320000000 1.0
C      1  0.4631610000000  0.6145670000000  0.5221360000000 1.0
C      1  0.4738150000000  0.4692790000000  0.6145510000000 1.0
C      1  0.5722630000000  0.5033030000000  0.6061370000000 1.0
C      1  0.5264900000000  0.5527230000000  0.5336550000000 1.0
C      1  0.5599970000000  0.5262970000000  0.4716530000000 1.0
C      1  0.5206220000000  0.4856510000000  0.3707380000000 1.0
C      1  0.5983710000000  0.4861800000000  0.5275310000000 1.0
C      1  0.4736770000000  0.4409140000000  0.6071790000000 1.0
C      1  0.5325150000000  0.4450640000000  0.5242690000000 1.0
C      1  0.5817470000000  0.4658600000000  0.5403300000000 1.0
C      1  0.5519370000000  0.5985490000000  0.5679800000000 1.0
C      1  0.4607680000000  0.5519250000000  0.5220780000000 1.0
C      1  0.5477680000000  0.4831340000000  0.4181660000000 1.0
C      1  0.4330790000000  0.5159120000000  0.4231880000000 1.0
C      1  0.6087380000000  0.5453730000000  0.4610090000000 1.0
C      1  0.5680040000000  0.4258400000000  0.4610700000000 1.0
C      1  0.5158640000000  0.4957150000000  0.6728990000000 1.0
C      1  0.4950290000000  0.5598090000000  0.6135600000000 1.0
C      1  0.5477220000000  0.5209580000000  0.6446940000000 1.0
C      1  0.4620100000000  0.4288400000000  0.5839570000000 1.0
C      1  0.4601400000000  0.5050480000000  0.5431950000000 1.0
C      1  0.5270640000000  0.4825330000000  0.6262970000000 1.0
C      1  0.5364950000000  0.5602450000000  0.3899000000000 1.0
C      1  0.4750560000000  0.5723000000000  0.4780190000000 1.0
C      1  0.5715240000000  0.5215310000000  0.5168020000000 1.0
C      1  0.5913400000000  0.5122640000000  0.5341190000000 1.0
C      1  0.5645700000000  0.4855730000000  0.4413290000000 1.0
C      1  0.4456870000000  0.4294650000000  0.4972680000000 1.0
C      1  0.4931730000000  0.5747560000000  0.4216420000000 1.0
C      1  0.4176080000000  0.4781470000000  0.4914550000000 1.0
C      1  0.4524720000000  0.5067180000000  0.3777730000000 1.0
C      1  0.4764400000000  0.3779000000000  0.5249210000000 1.0
C      1  0.4376370000000  0.3762250000000  0.4450150000000 1.0
C      1  0.4158220000000  0.4488080000000  0.5297710000000 1.0
C      1  0.5187970000000  0.5230950000000  0.4290260000000 1.0
C      1  0.5373490000000  0.5319880000000  0.5987200000000 1.0
C      1  0.5906520000000  0.5604320000000  0.4790800000000 1.0
C      1  0.5341460000000  0.5885230000000  0.4698460000000 1.0
C      1  0.5018950000000  0.5927470000000  0.5794650000000 1.0
C      1  0.4490040000000  0.5787870000000  0.5588570000000 1.0
C      1  0.4421530000000  0.6283050000000  0.5119080000000 1.0
C      1  0.5830470000000  0.4479050000000  0.4696200000000 1.0
C      1  0.5012570000000  0.4800850000000  0.6127160000000 1.0
C      1  0.4389630000000  0.5607630000000  0.5390500000000 1.0
C      1  0.5654290000000  0.5532450000000  0.4670660000000 1.0
C      1  0.4300220000000  0.5256290000000  0.4937040000000 1.0
C      1  0.4929080000000  0.4288870000000  0.5473340000000 1.0
C      1  0.4742810000000  0.4863990000000  0.5265950000000 1.0
C      1  0.5840750000000  0.4423310000000  0.5228510000000 1.0
C      1  0.5049100000000  0.5366310000000  0.4912910000000 1.0
C      1  0.4686700000000  0.4768970000000  0.4999060000000 1.0
C      1  0.5142970000000  0.5626700000000  0.5069070000000 1.0
C      1  0.4214670000000  0.5378390000000  0.5378120000000 1.0
C      1  0.5589210000000  0.5950270000000  0.5404080000000 1.0
C      1  0.5351970000000  0.5840320000000  0.4984620000000 1.0
C      1  0.5133370000000  0.6061870000000  0.4608390000000 1.0
C      1  0.5220880000000  0.4233660000000  0.6079480000000 1.0
C      1  0.4818370000000  0.4248520000000  0.3991630000000 1.0
C      1  0.4063820000000  0.4157570000000  0.4478110000000 1.0
C      1  0.5738040000000  0.5506210000000  0.5511850000000 1.0
C      1  0.4973300000000  0.4407670000000  0.3835400000000 1.0
C      1  0.5865300000000  0.4736470000000  0.4555020000000 1.0
C      1  0.4335040000000  0.5137500000000  0.5485770000000 1.0
C      1  0.5299280000000  0.5954100000000  0.5835330000000 1.0
C      1  0.5420900000000  0.4313810000000  0.5921860000000 1.0
C      1  0.4833040000000  0.5756410000000  0.5937960000000 1.0
C      1  0.6041220000000  0.4786270000000  0.4997630000000 1.0
C      1  0.5213640000000  0.4116490000000  0.4488640000000 1.0
C      1  0.4274590000000  0.4505630000000  0.5029260000000 1.0
C      1  0.5539060000000  0.4806040000000  0.6128650000000 1.0
C      1  0.4490620000000  0.5009110000000  0.4046440000000 1.0
C      1  0.4710740000000  0.5555190000000  0.4256480000000 1.0
C      1  0.5293100000000  0.4995810000000  0.6495880000000 1.0
C      1  0.5227430000000  0.5129470000000  0.4957490000000 1.0
C      1  0.4976680000000  0.3596720000000  0.5302290000000 1.0
C      1  0.5210980000000  0.4922570000000  0.5170560000000 1.0
C      1  0.4022070000000  0.4734450000000  0.4034940000000 1.0
C      1  0.5206240000000  0.3583970000000  0.5157330000000 1.0
C      1  0.5073540000000  0.4601780000000  0.4314770000000 1.0
C      1  0.5436030000000  0.5662260000000  0.4550740000000 1.0
C      1  0.4712100000000  0.4162680000000  0.5600520000000 1.0
C      1  0.4100180000000  0.5347790000000  0.5117870000000 1.0
C      1  0.4570590000000  0.5130670000000  0.3529210000000 1.0
END
