TITL C-627109-622-1812 0.238039704064313 125000 -262.47170979246 0 0 44 (C1) n - 1
REM
REM in /home/nfs/bkarasulu/CARBON/AIRSS/Generating-Clusters/LCBOP/Only-C1/SD-CG/FIRE-CG
REM
REM
REM
REM
REM
REM ./C.cell (11c1c37f851c82e70ff6c80c92926a4b)
REM AIRSS Version 0.9.1 bugfix July 2018 build 013d7b7c2542+ Fri, 06 Jul 2018 19:26:36 +0100
REM compiler GCC version 9.2.1 20190827 (Red Hat 9.2.1-1)
REM options -cpp -mtune=generic -march=x86-64 -g -O0 -fpre-include=/usr/include/finclude/math-vector-fortran.h
REM seed -1616695751 1978549052 1684764505 466216518 -1705364032 -388255885 -1627564590 820017974 -701572155 775490207 -1562185765 1487920086 -217291656 754402503 -461511601 -1658583947 1151825982 1487681075 1327261281 727941273 145667460 318292909 -1998766481 1595062449 1661354453 1561689177 -1718395343 -524952967 -842537673 718870141 872802692 -1831760357 -1691491656
REM
CELL 1.54180   50.00000   50.00000   50.00000   90.00000   90.00000   90.00000
LATT -1
SFAC C  
C      1  0.5069380000000  0.4433090000000  0.4659520000000 1.0
C      1  0.4900590000000  0.5798650000000  0.5231560000000 1.0
C      1  0.5254000000000  0.5443070000000  0.4991970000000 1.0
C      1  0.5487720000000  0.4926210000000  0.4544920000000 1.0
C      1  0.5121440000000  0.5276840000000  0.4566570000000 1.0
C      1  0.4261350000000  0.4957540000000  0.5040560000000 1.0
C      1  0.4960530000000  0.5726660000000  0.4727080000000 1.0
C      1  0.4902680000000  0.5100330000000  0.4607280000000 1.0
C      1  0.5863940000000  0.3878510000000  0.4446840000000 1.0
C      1  0.5118180000000  0.4912090000000  0.5032110000000 1.0
C      1  0.5474340000000  0.4731630000000  0.5474230000000 1.0
C      1  0.4910340000000  0.5864320000000  0.4970040000000 1.0
C      1  0.4718670000000  0.4983310000000  0.4418060000000 1.0
C      1  0.5358550000000  0.5152090000000  0.4473720000000 1.0
C      1  0.5046320000000  0.5085750000000  0.5247180000000 1.0
C      1  0.4486510000000  0.5001700000000  0.5727070000000 1.0
C      1  0.5693790000000  0.4065110000000  0.4511600000000 1.0
C      1  0.4605450000000  0.5010860000000  0.5470060000000 1.0
C      1  0.4868530000000  0.4628040000000  0.4678750000000 1.0
C      1  0.4139330000000  0.4712590000000  0.5037120000000 1.0
C      1  0.5138240000000  0.5501960000000  0.4739430000000 1.0
C      1  0.4213310000000  0.5329120000000  0.4651350000000 1.0
C      1  0.4609760000000  0.4927580000000  0.5970480000000 1.0
C      1  0.4481590000000  0.4918350000000  0.6209910000000 1.0
C      1  0.4695170000000  0.4710860000000  0.4461930000000 1.0
C      1  0.5026230000000  0.4873570000000  0.5691380000000 1.0
C      1  0.4776580000000  0.5751500000000  0.4517730000000 1.0
C      1  0.5351190000000  0.4461180000000  0.4653050000000 1.0
C      1  0.5841330000000  0.4758120000000  0.5159480000000 1.0
C      1  0.6094600000000  0.4752080000000  0.5098360000000 1.0
C      1  0.5446210000000  0.4718940000000  0.4732470000000 1.0
C      1  0.5567120000000  0.4761800000000  0.5212100000000 1.0
C      1  0.5117780000000  0.5360380000000  0.5227100000000 1.0
C      1  0.5381190000000  0.4799310000000  0.5001300000000 1.0
C      1  0.5522150000000  0.4255620000000  0.4578170000000 1.0
C      1  0.4982720000000  0.5572750000000  0.5356290000000 1.0
C      1  0.4944890000000  0.4884150000000  0.4808300000000 1.0
C      1  0.4200110000000  0.5147270000000  0.4844160000000 1.0
C      1  0.4449090000000  0.5017640000000  0.5239530000000 1.0
C      1  0.4326980000000  0.5514180000000  0.4498130000000 1.0
C      1  0.4882900000000  0.4864250000000  0.5933960000000 1.0
C      1  0.4891780000000  0.4989840000000  0.5464480000000 1.0
C      1  0.5282660000000  0.4770980000000  0.5654210000000 1.0
C      1  0.4534770000000  0.5670190000000  0.4440460000000 1.0
END
