TITL C-627108-131-1775 0.305726982171932 125000 -1082.07779047254 0 0 176 (C1) n - 1
REM
REM in /home/nfs/bkarasulu/CARBON/AIRSS/Generating-Clusters/LCBOP/Only-C1/SD-CG/FIRE-CG
REM
REM
REM
REM
REM
REM ./C.cell (11c1c37f851c82e70ff6c80c92926a4b)
REM AIRSS Version 0.9.1 bugfix July 2018 build 013d7b7c2542+ Fri, 06 Jul 2018 19:26:36 +0100
REM compiler GCC version 9.2.1 20190827 (Red Hat 9.2.1-1)
REM options -cpp -mtune=generic -march=x86-64 -g -O0 -fpre-include=/usr/include/finclude/math-vector-fortran.h
REM seed 246138547 302565986 -431938784 -1445310547 438353087 -1632999707 -1898498033 -127774827 -1556019135 -998345564 -663636956 2143413072 -1439678062 -761350715 1078617958 1228623366 2119800858 -1382364528 -1674544997 -1492001795 -252457822 1851506321 -1006135319 -1321780075 -495898321 353705421 -1155245446 1788841941 1118055307 1247347822 1263473962 313231369 -151530320
REM
CELL 1.54180   50.00000   50.00000   50.00000   90.00000   90.00000   90.00000
LATT -1
SFAC C  
C      1  0.4934120000000  0.4439260000000  0.6153020000000 1.0
C      1  0.4288610000000  0.5354690000000  0.4350730000000 1.0
C      1  0.5396780000000  0.4051120000000  0.6158850000000 1.0
C      1  0.5408600000000  0.5011090000000  0.4106280000000 1.0
C      1  0.4599820000000  0.4644280000000  0.4277710000000 1.0
C      1  0.3967600000000  0.4688500000000  0.5312080000000 1.0
C      1  0.4731630000000  0.5828200000000  0.4831910000000 1.0
C      1  0.4861150000000  0.4530570000000  0.4660080000000 1.0
C      1  0.4713670000000  0.5358560000000  0.4667340000000 1.0
C      1  0.4484430000000  0.5965000000000  0.4773950000000 1.0
C      1  0.5433390000000  0.4177900000000  0.4021590000000 1.0
C      1  0.5141700000000  0.5331500000000  0.3888390000000 1.0
C      1  0.4887410000000  0.4184920000000  0.6014170000000 1.0
C      1  0.5669030000000  0.5143940000000  0.4653450000000 1.0
C      1  0.4451900000000  0.6021760000000  0.4498300000000 1.0
C      1  0.4079390000000  0.5291140000000  0.4546090000000 1.0
C      1  0.5528870000000  0.5854610000000  0.5558000000000 1.0
C      1  0.5683380000000  0.5166330000000  0.5981490000000 1.0
C      1  0.4295030000000  0.6076480000000  0.5231940000000 1.0
C      1  0.4293830000000  0.4146290000000  0.5488280000000 1.0
C      1  0.4968730000000  0.5071350000000  0.4287830000000 1.0
C      1  0.4645700000000  0.4562660000000  0.6142260000000 1.0
C      1  0.6140570000000  0.4937840000000  0.5069090000000 1.0
C      1  0.5093890000000  0.5966800000000  0.5762380000000 1.0
C      1  0.5409000000000  0.5442190000000  0.3883590000000 1.0
C      1  0.4654800000000  0.5178950000000  0.5526670000000 1.0
C      1  0.3812990000000  0.5187930000000  0.5145800000000 1.0
C      1  0.3874200000000  0.5734210000000  0.4727360000000 1.0
C      1  0.4798120000000  0.4766890000000  0.5731410000000 1.0
C      1  0.4670850000000  0.6401970000000  0.5313430000000 1.0
C      1  0.5238480000000  0.4251370000000  0.4713320000000 1.0
C      1  0.5176670000000  0.4301090000000  0.4988680000000 1.0
C      1  0.5158130000000  0.4258660000000  0.4042640000000 1.0
C      1  0.5441150000000  0.4817170000000  0.5673030000000 1.0
C      1  0.4870170000000  0.4927260000000  0.5957440000000 1.0
C      1  0.5229550000000  0.6115180000000  0.5297540000000 1.0
C      1  0.5131010000000  0.5117260000000  0.4966070000000 1.0
C      1  0.5347510000000  0.5760730000000  0.4947420000000 1.0
C      1  0.5083690000000  0.3526970000000  0.4957150000000 1.0
C      1  0.4727780000000  0.5911290000000  0.5294710000000 1.0
C      1  0.4512030000000  0.4050570000000  0.4567470000000 1.0
C      1  0.4011060000000  0.4519930000000  0.4841020000000 1.0
C      1  0.4829840000000  0.5163740000000  0.6089350000000 1.0
C      1  0.4986730000000  0.5586440000000  0.4232380000000 1.0
C      1  0.3969690000000  0.4145830000000  0.5841730000000 1.0
C      1  0.5314860000000  0.5196350000000  0.5158240000000 1.0
C      1  0.5279200000000  0.5933060000000  0.4018440000000 1.0
C      1  0.5026900000000  0.4129860000000  0.4549050000000 1.0
C      1  0.4674610000000  0.4611910000000  0.4848660000000 1.0
C      1  0.5145090000000  0.4623860000000  0.5339130000000 1.0
C      1  0.4737930000000  0.5190960000000  0.4431780000000 1.0
C      1  0.5803570000000  0.5434890000000  0.5499450000000 1.0
C      1  0.5300510000000  0.4514160000000  0.5130570000000 1.0
C      1  0.4866390000000  0.3671480000000  0.4896430000000 1.0
C      1  0.4209770000000  0.4433730000000  0.5048160000000 1.0
C      1  0.4672830000000  0.5302680000000  0.3894130000000 1.0
C      1  0.5075770000000  0.4818210000000  0.4379490000000 1.0
C      1  0.4532120000000  0.5745980000000  0.5706770000000 1.0
C      1  0.4812480000000  0.4635500000000  0.3856140000000 1.0
C      1  0.5581490000000  0.3821570000000  0.4729170000000 1.0
C      1  0.4639270000000  0.5417840000000  0.5361770000000 1.0
C      1  0.4396500000000  0.4044230000000  0.5241650000000 1.0
C      1  0.4298410000000  0.4926860000000  0.4824730000000 1.0
C      1  0.5694190000000  0.5244810000000  0.5699870000000 1.0
C      1  0.6426200000000  0.6060820000000  0.4430060000000 1.0
C      1  0.5455480000000  0.6009690000000  0.4227350000000 1.0
C      1  0.4298510000000  0.4169590000000  0.5000240000000 1.0
C      1  0.5161570000000  0.5933190000000  0.5082580000000 1.0
C      1  0.4871920000000  0.4703450000000  0.5287590000000 1.0
C      1  0.6156860000000  0.4894590000000  0.5349720000000 1.0
C      1  0.5033850000000  0.4149570000000  0.4269870000000 1.0
C      1  0.4158930000000  0.5978880000000  0.5463010000000 1.0
C      1  0.5697980000000  0.4776870000000  0.5241130000000 1.0
C      1  0.4883190000000  0.5883860000000  0.5062270000000 1.0
C      1  0.4315280000000  0.4912460000000  0.5109200000000 1.0
C      1  0.4488160000000  0.5343890000000  0.5135360000000 1.0
C      1  0.5536950000000  0.4980050000000  0.6124920000000 1.0
C      1  0.5825430000000  0.4495440000000  0.5837630000000 1.0
C      1  0.5580780000000  0.5237180000000  0.4024230000000 1.0
C      1  0.4792460000000  0.3971660000000  0.4959500000000 1.0
C      1  0.5990310000000  0.5187980000000  0.5054970000000 1.0
C      1  0.4860510000000  0.3813290000000  0.5397260000000 1.0
C      1  0.4403730000000  0.4603050000000  0.5992050000000 1.0
C      1  0.5637970000000  0.5655130000000  0.5394160000000 1.0
C      1  0.3842540000000  0.5002380000000  0.4924370000000 1.0
C      1  0.5697920000000  0.4168170000000  0.5542990000000 1.0
C      1  0.4063520000000  0.5066310000000  0.4730770000000 1.0
C      1  0.6011120000000  0.4436690000000  0.5111190000000 1.0
C      1  0.4490990000000  0.5165370000000  0.4285290000000 1.0
C      1  0.4755450000000  0.4512560000000  0.5101740000000 1.0
C      1  0.4647190000000  0.3910940000000  0.5224170000000 1.0
C      1  0.4731440000000  0.5954900000000  0.4103050000000 1.0
C      1  0.5914800000000  0.5945740000000  0.4391440000000 1.0
C      1  0.4774760000000  0.4051470000000  0.4666510000000 1.0
C      1  0.5530530000000  0.4658280000000  0.5040310000000 1.0
C      1  0.5136330000000  0.5506590000000  0.5815640000000 1.0
C      1  0.4019850000000  0.4762040000000  0.5601460000000 1.0
C      1  0.6096340000000  0.4681020000000  0.4927600000000 1.0
C      1  0.5913030000000  0.4789350000000  0.5441780000000 1.0
C      1  0.5552990000000  0.4655310000000  0.4752160000000 1.0
C      1  0.5492020000000  0.3758020000000  0.4976430000000 1.0
C      1  0.4461750000000  0.4739440000000  0.4710220000000 1.0
C      1  0.5313400000000  0.5674200000000  0.4659100000000 1.0
C      1  0.5289160000000  0.6002920000000  0.5554680000000 1.0
C      1  0.5292620000000  0.5196830000000  0.5434990000000 1.0
C      1  0.5537270000000  0.5338130000000  0.5058860000000 1.0
C      1  0.4801880000000  0.4227920000000  0.5759230000000 1.0
C      1  0.4767190000000  0.4486130000000  0.5687990000000 1.0
C      1  0.5744370000000  0.5213230000000  0.4915010000000 1.0
C      1  0.5587340000000  0.4251680000000  0.3808070000000 1.0
C      1  0.4551890000000  0.5064950000000  0.4018680000000 1.0
C      1  0.4902100000000  0.5463750000000  0.3973940000000 1.0
C      1  0.4659920000000  0.5370280000000  0.5984150000000 1.0
C      1  0.5198500000000  0.5159110000000  0.4707030000000 1.0
C      1  0.5266880000000  0.4637520000000  0.5586700000000 1.0
C      1  0.4195690000000  0.4569640000000  0.5769200000000 1.0
C      1  0.4651310000000  0.5686780000000  0.5449290000000 1.0
C      1  0.4980720000000  0.5731720000000  0.5879920000000 1.0
C      1  0.5615210000000  0.4298260000000  0.5809730000000 1.0
C      1  0.4905780000000  0.4254730000000  0.5062320000000 1.0
C      1  0.4007710000000  0.5918350000000  0.4865680000000 1.0
C      1  0.4260090000000  0.5998880000000  0.4957680000000 1.0
C      1  0.3995580000000  0.5052350000000  0.5594110000000 1.0
C      1  0.5994710000000  0.5343450000000  0.5302880000000 1.0
C      1  0.5397640000000  0.5723850000000  0.3860480000000 1.0
C      1  0.5460150000000  0.4410170000000  0.4631610000000 1.0
C      1  0.4917400000000  0.6506340000000  0.5296580000000 1.0
C      1  0.5232960000000  0.4512650000000  0.6122660000000 1.0
C      1  0.5901820000000  0.4340050000000  0.5388380000000 1.0
C      1  0.5549410000000  0.4885020000000  0.4581430000000 1.0
C      1  0.5009790000000  0.4448960000000  0.3887810000000 1.0
C      1  0.3843080000000  0.4718360000000  0.5017390000000 1.0
C      1  0.4563010000000  0.6145560000000  0.5295200000000 1.0
C      1  0.4275510000000  0.5863980000000  0.5682300000000 1.0
C      1  0.6082570000000  0.4869900000000  0.4420800000000 1.0
C      1  0.5531590000000  0.5614080000000  0.5122980000000 1.0
C      1  0.4655990000000  0.5255440000000  0.4922530000000 1.0
C      1  0.4156760000000  0.4286250000000  0.5695580000000 1.0
C      1  0.6172300000000  0.6004980000000  0.4410720000000 1.0
C      1  0.5127850000000  0.3756110000000  0.5356530000000 1.0
C      1  0.5373660000000  0.4857010000000  0.4352330000000 1.0
C      1  0.4519900000000  0.5230140000000  0.5773930000000 1.0
C      1  0.5993840000000  0.5069770000000  0.4257760000000 1.0
C      1  0.5410820000000  0.4290180000000  0.6018160000000 1.0
C      1  0.5057950000000  0.5644210000000  0.4508630000000 1.0
C      1  0.4373950000000  0.4598510000000  0.4470540000000 1.0
C      1  0.4994210000000  0.5992130000000  0.4029030000000 1.0
C      1  0.5588660000000  0.3897900000000  0.4470340000000 1.0
C      1  0.4502710000000  0.5870700000000  0.4262480000000 1.0
C      1  0.5557330000000  0.5625520000000  0.4507130000000 1.0
C      1  0.5649760000000  0.5863170000000  0.4374660000000 1.0
C      1  0.4352990000000  0.5622960000000  0.4256170000000 1.0
C      1  0.5367530000000  0.4767690000000  0.6166780000000 1.0
C      1  0.4619310000000  0.4776560000000  0.4017120000000 1.0
C      1  0.4276770000000  0.5171230000000  0.5217170000000 1.0
C      1  0.5651000000000  0.3906960000000  0.5487700000000 1.0
C      1  0.4825170000000  0.5618610000000  0.4669230000000 1.0
C      1  0.5680170000000  0.5365280000000  0.4466500000000 1.0
C      1  0.4764010000000  0.4909070000000  0.5480480000000 1.0
C      1  0.4165610000000  0.4414250000000  0.4590650000000 1.0
C      1  0.5271380000000  0.3658640000000  0.5124650000000 1.0
C      1  0.4868320000000  0.4631180000000  0.4405830000000 1.0
C      1  0.5494850000000  0.5073170000000  0.5583480000000 1.0
C      1  0.5789170000000  0.5270050000000  0.4216670000000 1.0
C      1  0.6102730000000  0.4712500000000  0.4642080000000 1.0
C      1  0.5157050000000  0.6386130000000  0.5279290000000 1.0
C      1  0.4021840000000  0.5200130000000  0.5345220000000 1.0
C      1  0.4702970000000  0.5652700000000  0.5918650000000 1.0
C      1  0.3899110000000  0.5501920000000  0.4599400000000 1.0
C      1  0.4249370000000  0.4655200000000  0.5219830000000 1.0
C      1  0.5137980000000  0.5103620000000  0.4051450000000 1.0
C      1  0.4290540000000  0.4160240000000  0.4702430000000 1.0
C      1  0.5142000000000  0.5367380000000  0.5589090000000 1.0
C      1  0.4861190000000  0.5085980000000  0.5012450000000 1.0
C      1  0.5943300000000  0.4554650000000  0.5589810000000 1.0
C      1  0.5542500000000  0.4018530000000  0.4233370000000 1.0
END
