TITL C-627107-135-547 -1.39403461309506e-06 125000 -560.756048999679 0 0 92 (C1) n - 1
REM
REM in /home/nfs/bkarasulu/CARBON/AIRSS/Generating-Clusters/LCBOP/Only-C1/SD-CG/FIRE-CG
REM
REM
REM
REM
REM
REM ./C.cell (11c1c37f851c82e70ff6c80c92926a4b)
REM AIRSS Version 0.9.1 bugfix July 2018 build 013d7b7c2542+ Fri, 06 Jul 2018 19:26:36 +0100
REM compiler GCC version 9.2.1 20190827 (Red Hat 9.2.1-1)
REM options -cpp -mtune=generic -march=x86-64 -g -O0 -fpre-include=/usr/include/finclude/math-vector-fortran.h
REM seed 1827124700 -1516583499 794427065 1666846656 35582768 -1161718549 1883045185 1729679370 -1446064571 -240719223 604113732 -1321015428 239714744 -1943463120 -510729769 71598550 1802541258 873524651 -995848079 -1668772056 -1953753716 742723168 -1270059488 -1492924640 -970054711 -1466266110 611129722 -1625007261 237486569 672018838 1015645364 968826601 -1705894449
REM
CELL 1.54180   50.00000   50.00000   50.00000   90.00000   90.00000   90.00000
LATT -1
SFAC C  
C      1  0.4979650000000  0.4370040000000  0.4448220000000 1.0
C      1  0.5067240000000  0.5484090000000  0.4087360000000 1.0
C      1  0.5677000000000  0.5229810000000  0.5616020000000 1.0
C      1  0.5259900000000  0.4456830000000  0.5138020000000 1.0
C      1  0.4353200000000  0.5775840000000  0.4178800000000 1.0
C      1  0.4193880000000  0.5186950000000  0.4508840000000 1.0
C      1  0.4172140000000  0.4837640000000  0.5529100000000 1.0
C      1  0.5582060000000  0.5693140000000  0.5398390000000 1.0
C      1  0.4948080000000  0.5051130000000  0.4237590000000 1.0
C      1  0.3686450000000  0.4958010000000  0.5027300000000 1.0
C      1  0.4995700000000  0.4310720000000  0.5458770000000 1.0
C      1  0.4687870000000  0.5473570000000  0.5177890000000 1.0
C      1  0.5336720000000  0.5506770000000  0.4096610000000 1.0
C      1  0.4958020000000  0.4921390000000  0.4468810000000 1.0
C      1  0.4278690000000  0.4577340000000  0.5555500000000 1.0
C      1  0.5575040000000  0.4712080000000  0.5708980000000 1.0
C      1  0.4512780000000  0.5195170000000  0.5643550000000 1.0
C      1  0.5476630000000  0.4915960000000  0.4736430000000 1.0
C      1  0.3897080000000  0.4867690000000  0.5480520000000 1.0
C      1  0.4419710000000  0.5145560000000  0.4343640000000 1.0
C      1  0.5234060000000  0.4822970000000  0.4841510000000 1.0
C      1  0.5201520000000  0.5741630000000  0.5052370000000 1.0
C      1  0.4596650000000  0.5366820000000  0.4269430000000 1.0
C      1  0.4394290000000  0.4801080000000  0.5025520000000 1.0
C      1  0.5592140000000  0.5070340000000  0.5170480000000 1.0
C      1  0.5060930000000  0.4319390000000  0.4978210000000 1.0
C      1  0.4953790000000  0.5400020000000  0.5838380000000 1.0
C      1  0.5827690000000  0.5540260000000  0.4647720000000 1.0
C      1  0.4422450000000  0.4388610000000  0.5428220000000 1.0
C      1  0.6035920000000  0.4859880000000  0.5146220000000 1.0
C      1  0.5273370000000  0.4727700000000  0.5095920000000 1.0
C      1  0.4574850000000  0.4377540000000  0.5187870000000 1.0
C      1  0.5647770000000  0.4484260000000  0.4802080000000 1.0
C      1  0.5558040000000  0.5386410000000  0.4226920000000 1.0
C      1  0.5691950000000  0.5447820000000  0.4880960000000 1.0
C      1  0.5750700000000  0.4926390000000  0.5588010000000 1.0
C      1  0.5159740000000  0.4473770000000  0.4246910000000 1.0
C      1  0.4566680000000  0.4139060000000  0.4363520000000 1.0
C      1  0.5444700000000  0.5162430000000  0.4616130000000 1.0
C      1  0.5729050000000  0.5320250000000  0.5138320000000 1.0
C      1  0.4724210000000  0.5387350000000  0.5670480000000 1.0
C      1  0.4067030000000  0.5172140000000  0.4759200000000 1.0
C      1  0.4348560000000  0.5053590000000  0.5453680000000 1.0
C      1  0.5034010000000  0.4941690000000  0.5617810000000 1.0
C      1  0.5133490000000  0.5303240000000  0.5229570000000 1.0
C      1  0.5160870000000  0.5073050000000  0.5395590000000 1.0
C      1  0.5714820000000  0.4764540000000  0.4771160000000 1.0
C      1  0.5754910000000  0.5528770000000  0.4382880000000 1.0
C      1  0.4666930000000  0.5199270000000  0.5098520000000 1.0
C      1  0.4445940000000  0.4526630000000  0.4979360000000 1.0
C      1  0.4287660000000  0.5552710000000  0.4967650000000 1.0
C      1  0.4841330000000  0.4738220000000  0.5594020000000 1.0
C      1  0.4860970000000  0.4462430000000  0.5658080000000 1.0
C      1  0.5425440000000  0.4421510000000  0.4621230000000 1.0
C      1  0.5389700000000  0.5822060000000  0.5252330000000 1.0
C      1  0.5729390000000  0.4389760000000  0.5062230000000 1.0
C      1  0.5280100000000  0.4378240000000  0.5413570000000 1.0
C      1  0.5397060000000  0.4781670000000  0.5913290000000 1.0
C      1  0.4824110000000  0.5065240000000  0.4911110000000 1.0
C      1  0.4990440000000  0.4918820000000  0.4743750000000 1.0
C      1  0.4861160000000  0.5309390000000  0.4171920000000 1.0
C      1  0.5221980000000  0.5457340000000  0.5004340000000 1.0
C      1  0.5890060000000  0.4767700000000  0.5371130000000 1.0
C      1  0.4741240000000  0.5549790000000  0.5440420000000 1.0
C      1  0.5414150000000  0.5376650000000  0.4805160000000 1.0
C      1  0.3820040000000  0.5053680000000  0.4816210000000 1.0
C      1  0.5500410000000  0.5128440000000  0.4337830000000 1.0
C      1  0.4979930000000  0.5863700000000  0.4924350000000 1.0
C      1  0.4480690000000  0.4871800000000  0.4290740000000 1.0
C      1  0.4534600000000  0.5638960000000  0.4331410000000 1.0
C      1  0.4311540000000  0.4394410000000  0.4781540000000 1.0
C      1  0.3716630000000  0.4898430000000  0.5286010000000 1.0
C      1  0.5528770000000  0.4482500000000  0.5525440000000 1.0
C      1  0.4723120000000  0.5789830000000  0.4822000000000 1.0
C      1  0.4849230000000  0.4285560000000  0.5189290000000 1.0
C      1  0.5409490000000  0.4577420000000  0.4354460000000 1.0
C      1  0.5170740000000  0.4918250000000  0.5865670000000 1.0
C      1  0.5223820000000  0.5397290000000  0.5864610000000 1.0
C      1  0.4394210000000  0.5078420000000  0.5149270000000 1.0
C      1  0.5749190000000  0.4508040000000  0.5325950000000 1.0
C      1  0.4661870000000  0.5766170000000  0.4548840000000 1.0
C      1  0.5956080000000  0.4855820000000  0.4886580000000 1.0
C      1  0.5475730000000  0.5314920000000  0.5806490000000 1.0
C      1  0.5137020000000  0.4326340000000  0.4696450000000 1.0
C      1  0.4552700000000  0.5646840000000  0.4999990000000 1.0
C      1  0.4702130000000  0.4376270000000  0.4387630000000 1.0
C      1  0.5497370000000  0.4843550000000  0.4267030000000 1.0
C      1  0.5713560000000  0.5437090000000  0.5401280000000 1.0
C      1  0.4570240000000  0.4620540000000  0.4324750000000 1.0
C      1  0.4214450000000  0.5274390000000  0.4982690000000 1.0
C      1  0.4778850000000  0.4356820000000  0.5895380000000 1.0
C      1  0.5367930000000  0.4926380000000  0.5264540000000 1.0
END
