TITL C-627109-622-1456 61.6714477722989 125000 -950.062307913853 0 0 156 (C1) n - 1
REM
REM in /home/nfs/bkarasulu/CARBON/AIRSS/Generating-Clusters/LCBOP/Only-C1/SD-CG/FIRE-CG
REM
REM
REM
REM
REM
REM ./C.cell (11c1c37f851c82e70ff6c80c92926a4b)
REM AIRSS Version 0.9.1 bugfix July 2018 build 013d7b7c2542+ Fri, 06 Jul 2018 19:26:36 +0100
REM compiler GCC version 9.2.1 20190827 (Red Hat 9.2.1-1)
REM options -cpp -mtune=generic -march=x86-64 -g -O0 -fpre-include=/usr/include/finclude/math-vector-fortran.h
REM seed 1165838721 1983447881 -1635227870 -1124165664 -1307147081 1056094102 -959471302 -440370121 1612731655 -1868283640 1436633801 245355518 1859349567 -1658820639 -2016451628 1864398288 -1268504157 -1385645625 -943151249 931229372 -644457417 -961320676 427155248 -1002752887 187557979 -764495494 16688884 348738407 -213942363 1827310721 21648418 952045289 -1012632640
REM
CELL 1.54180   50.00000   50.00000   50.00000   90.00000   90.00000   90.00000
LATT -1
SFAC C  
C      1  0.4578430000000  0.4443870000000  0.5331490000000 1.0
C      1  0.5683280000000  0.5790150000000  0.4795040000000 1.0
C      1  0.5897400000000  0.5203190000000  0.4442820000000 1.0
C      1  0.4806530000000  0.4936910000000  0.5084170000000 1.0
C      1  0.5123730000000  0.5021770000000  0.5098030000000 1.0
C      1  0.5075560000000  0.4855380000000  0.4629130000000 1.0
C      1  0.4551410000000  0.5255640000000  0.4458220000000 1.0
C      1  0.5386740000000  0.6025350000000  0.5275610000000 1.0
C      1  0.5399320000000  0.4873330000000  0.5144130000000 1.0
C      1  0.6107370000000  0.5263550000000  0.5192450000000 1.0
C      1  0.4848820000000  0.5680470000000  0.5687820000000 1.0
C      1  0.4737140000000  0.4290920000000  0.5760070000000 1.0
C      1  0.4012180000000  0.4469770000000  0.5520510000000 1.0
C      1  0.4354890000000  0.5093500000000  0.5295980000000 1.0
C      1  0.4500120000000  0.5579980000000  0.4054490000000 1.0
C      1  0.3862920000000  0.4365190000000  0.5298700000000 1.0
C      1  0.5967030000000  0.4110520000000  0.5039440000000 1.0
C      1  0.4290270000000  0.4834350000000  0.5386880000000 1.0
C      1  0.4388220000000  0.4791530000000  0.3910080000000 1.0
C      1  0.5659510000000  0.4112170000000  0.5020420000000 1.0
C      1  0.5058580000000  0.6145690000000  0.4967410000000 1.0
C      1  0.4803580000000  0.5271420000000  0.6112400000000 1.0
C      1  0.5254500000000  0.5441520000000  0.4077460000000 1.0
C      1  0.4352740000000  0.5057340000000  0.4336720000000 1.0
C      1  0.6121870000000  0.4313930000000  0.5150670000000 1.0
C      1  0.5296800000000  0.4426810000000  0.5357420000000 1.0
C      1  0.3809890000000  0.4997120000000  0.5140570000000 1.0
C      1  0.5306560000000  0.4252760000000  0.4087350000000 1.0
C      1  0.5385820000000  0.5081820000000  0.5851450000000 1.0
C      1  0.4334620000000  0.4618550000000  0.4953310000000 1.0
C      1  0.4693890000000  0.4107490000000  0.4596760000000 1.0
C      1  0.5142980000000  0.5931620000000  0.5389350000000 1.0
C      1  0.5099600000000  0.4387680000000  0.3944920000000 1.0
C      1  0.5198700000000  0.5177640000000  0.3974700000000 1.0
C      1  0.5099060000000  0.5698580000000  0.5538880000000 1.0
C      1  0.5274750000000  0.3980850000000  0.4541770000000 1.0
C      1  0.5285210000000  0.5451530000000  0.4930240000000 1.0
C      1  0.5770810000000  0.5663970000000  0.4559430000000 1.0
C      1  0.4500990000000  0.4572850000000  0.4339110000000 1.0
C      1  0.3948390000000  0.4910000000000  0.4902140000000 1.0
C      1  0.4050360000000  0.4637370000000  0.4913950000000 1.0
C      1  0.5122080000000  0.6073550000000  0.4471030000000 1.0
C      1  0.4554580000000  0.5328330000000  0.5657370000000 1.0
C      1  0.4853310000000  0.4962630000000  0.5558470000000 1.0
C      1  0.5223310000000  0.4367840000000  0.5963080000000 1.0
C      1  0.5855230000000  0.5736700000000  0.5248200000000 1.0
C      1  0.4412250000000  0.4638850000000  0.5229380000000 1.0
C      1  0.4577600000000  0.4055900000000  0.4871910000000 1.0
C      1  0.6230420000000  0.6158050000000  0.5801820000000 1.0
C      1  0.5708950000000  0.5631840000000  0.5035690000000 1.0
C      1  0.4654980000000  0.4179620000000  0.4102370000000 1.0
C      1  0.4610100000000  0.5749440000000  0.5508570000000 1.0
C      1  0.5100870000000  0.4221330000000  0.4913740000000 1.0
C      1  0.4795770000000  0.5424340000000  0.5160900000000 1.0
C      1  0.4255100000000  0.5524730000000  0.4160840000000 1.0
C      1  0.5511130000000  0.4665810000000  0.4425080000000 1.0
C      1  0.5184150000000  0.4420250000000  0.4739250000000 1.0
C      1  0.4037420000000  0.4760830000000  0.5501090000000 1.0
C      1  0.4216670000000  0.5347530000000  0.5373840000000 1.0
C      1  0.5609160000000  0.4428480000000  0.5003840000000 1.0
C      1  0.4041960000000  0.5404310000000  0.4317940000000 1.0
C      1  0.5421240000000  0.3942590000000  0.4820730000000 1.0
C      1  0.4359960000000  0.5244780000000  0.5852340000000 1.0
C      1  0.6211010000000  0.4828140000000  0.5045320000000 1.0
C      1  0.4666670000000  0.6158650000000  0.4680260000000 1.0
C      1  0.5030170000000  0.4636740000000  0.4788440000000 1.0
C      1  0.5826530000000  0.4593730000000  0.4941170000000 1.0
C      1  0.4947720000000  0.5722340000000  0.4814590000000 1.0
C      1  0.5510330000000  0.6019300000000  0.4780460000000 1.0
C      1  0.4525040000000  0.5815470000000  0.5022210000000 1.0
C      1  0.4831500000000  0.4043780000000  0.5316810000000 1.0
C      1  0.4374350000000  0.4796570000000  0.4190790000000 1.0
C      1  0.5171720000000  0.5248150000000  0.5314520000000 1.0
C      1  0.5048330000000  0.3886680000000  0.5225390000000 1.0
C      1  0.4105820000000  0.5086460000000  0.4740180000000 1.0
C      1  0.4565370000000  0.4647110000000  0.4797170000000 1.0
C      1  0.4762170000000  0.5229900000000  0.5467550000000 1.0
C      1  0.3889990000000  0.4437470000000  0.5037770000000 1.0
C      1  0.5372870000000  0.4876650000000  0.5615580000000 1.0
C      1  0.5289090000000  0.4617820000000  0.6085260000000 1.0
C      1  0.5855460000000  0.4979100000000  0.4264630000000 1.0
C      1  0.5693730000000  0.4760070000000  0.4222510000000 1.0
C      1  0.4921280000000  0.6032660000000  0.5218520000000 1.0
C      1  0.5039840000000  0.5653570000000  0.4101160000000 1.0
C      1  0.5057010000000  0.4526560000000  0.5457520000000 1.0
C      1  0.4636870000000  0.4721520000000  0.4535050000000 1.0
C      1  0.5362560000000  0.4196420000000  0.4359980000000 1.0
C      1  0.4950140000000  0.6168230000000  0.4695310000000 1.0
C      1  0.4579760000000  0.4282740000000  0.4357930000000 1.0
C      1  0.5668300000000  0.5193120000000  0.5829970000000 1.0
C      1  0.4951630000000  0.5648790000000  0.4545360000000 1.0
C      1  0.4545570000000  0.4813170000000  0.6143920000000 1.0
C      1  0.5033760000000  0.5553090000000  0.5031060000000 1.0
C      1  0.4574740000000  0.4758260000000  0.3721230000000 1.0
C      1  0.4249930000000  0.4305400000000  0.5599560000000 1.0
C      1  0.5014960000000  0.5378040000000  0.4510120000000 1.0
C      1  0.5189260000000  0.4909020000000  0.3939600000000 1.0
C      1  0.5435140000000  0.4221420000000  0.5498130000000 1.0
C      1  0.4950300000000  0.4285930000000  0.5948630000000 1.0
C      1  0.4489250000000  0.6005460000000  0.4815800000000 1.0
C      1  0.5068540000000  0.4664300000000  0.3855560000000 1.0
C      1  0.4829310000000  0.4331670000000  0.5467060000000 1.0
C      1  0.4411620000000  0.5532430000000  0.5496580000000 1.0
C      1  0.4804770000000  0.4681030000000  0.4948720000000 1.0
C      1  0.4102500000000  0.5154490000000  0.4454650000000 1.0
C      1  0.4533440000000  0.5068860000000  0.5074980000000 1.0
C      1  0.5561100000000  0.4850280000000  0.4632920000000 1.0
C      1  0.6144660000000  0.5098140000000  0.4963400000000 1.0
C      1  0.4646970000000  0.4825280000000  0.5694590000000 1.0
C      1  0.6025200000000  0.5280600000000  0.5448750000000 1.0
C      1  0.5353160000000  0.6105600000000  0.5002380000000 1.0
C      1  0.5583000000000  0.5116110000000  0.5125110000000 1.0
C      1  0.5367270000000  0.4435090000000  0.4514350000000 1.0
C      1  0.4820670000000  0.5185080000000  0.4422460000000 1.0
C      1  0.5418440000000  0.4578530000000  0.5154130000000 1.0
C      1  0.4676850000000  0.5046950000000  0.6197950000000 1.0
C      1  0.5874660000000  0.5259100000000  0.5670360000000 1.0
C      1  0.5869780000000  0.4689180000000  0.5411170000000 1.0
C      1  0.5217940000000  0.5303870000000  0.4692600000000 1.0
C      1  0.4462190000000  0.4400250000000  0.5806330000000 1.0
C      1  0.4575100000000  0.5533320000000  0.4967760000000 1.0
C      1  0.5333240000000  0.4886870000000  0.6078170000000 1.0
C      1  0.5210650000000  0.5430260000000  0.5532150000000 1.0
C      1  0.5638680000000  0.4767340000000  0.5539290000000 1.0
C      1  0.4853800000000  0.4906950000000  0.4469140000000 1.0
C      1  0.5581070000000  0.4053280000000  0.5322160000000 1.0
C      1  0.4858770000000  0.4235540000000  0.3937190000000 1.0
C      1  0.5984470000000  0.5884690000000  0.5426120000000 1.0
C      1  0.3873960000000  0.4995950000000  0.5423480000000 1.0
C      1  0.5168870000000  0.5055060000000  0.4792200000000 1.0
C      1  0.4966010000000  0.3975590000000  0.4546260000000 1.0
C      1  0.4944430000000  0.5421690000000  0.5919210000000 1.0
C      1  0.5400480000000  0.6098130000000  0.4529030000000 1.0
C      1  0.3988800000000  0.5241070000000  0.5537350000000 1.0
C      1  0.5187430000000  0.5310390000000  0.5800060000000 1.0
C      1  0.4088490000000  0.5235680000000  0.5808620000000 1.0
C      1  0.5512950000000  0.5461090000000  0.4206490000000 1.0
C      1  0.4767640000000  0.5608020000000  0.4008600000000 1.0
C      1  0.4561380000000  0.4030300000000  0.5171530000000 1.0
C      1  0.5092480000000  0.4800900000000  0.5544600000000 1.0
C      1  0.5041810000000  0.5826640000000  0.4341730000000 1.0
C      1  0.4513090000000  0.4676930000000  0.5895360000000 1.0
C      1  0.5733730000000  0.5441170000000  0.4390300000000 1.0
C      1  0.3795380000000  0.5521140000000  0.4336510000000 1.0
C      1  0.6037210000000  0.4605400000000  0.5156330000000 1.0
C      1  0.4401640000000  0.4207160000000  0.5353540000000 1.0
C      1  0.6108740000000  0.6023580000000  0.5614540000000 1.0
C      1  0.4835970000000  0.4706520000000  0.3696260000000 1.0
C      1  0.5772400000000  0.4816210000000  0.4789500000000 1.0
C      1  0.5400950000000  0.4235630000000  0.5779870000000 1.0
C      1  0.4661820000000  0.5907140000000  0.5264310000000 1.0
C      1  0.5541850000000  0.5398510000000  0.5046280000000 1.0
C      1  0.5191680000000  0.3969360000000  0.5000500000000 1.0
C      1  0.6057160000000  0.5173750000000  0.4691820000000 1.0
C      1  0.4495040000000  0.5372640000000  0.4727450000000 1.0
C      1  0.4365810000000  0.5149890000000  0.4853800000000 1.0
END
