TITL C-627108-131-472 0.212693116316335 125000 -590.624402161594 0 0 97 (C1) n - 1
REM
REM in /home/nfs/bkarasulu/CARBON/AIRSS/Generating-Clusters/LCBOP/Only-C1/SD-CG/FIRE-CG
REM
REM
REM
REM
REM
REM ./C.cell (11c1c37f851c82e70ff6c80c92926a4b)
REM AIRSS Version 0.9.1 bugfix July 2018 build 013d7b7c2542+ Fri, 06 Jul 2018 19:26:36 +0100
REM compiler GCC version 9.2.1 20190827 (Red Hat 9.2.1-1)
REM options -cpp -mtune=generic -march=x86-64 -g -O0 -fpre-include=/usr/include/finclude/math-vector-fortran.h
REM seed 454142034 -1242734515 92369001 -1308453331 -235509797 -2086683045 37731981 919661057 2046778900 -1586954320 616485948 -601226805 -599204192 -431394844 -917165096 -1303112332 -904607720 -848464694 -2094875829 -1426988585 597946145 1267758596 -280968076 1330395122 -477234156 -1130699225 -1103460559 -1393931684 1677600008 552473190 1926817925 -1895668096 1906843849
REM
CELL 1.54180   50.00000   50.00000   50.00000   90.00000   90.00000   90.00000
LATT -1
SFAC C  
C      1  0.5675990000000  0.4707540000000  0.5154910000000 1.0
C      1  0.4023470000000  0.5083020000000  0.5398370000000 1.0
C      1  0.5304400000000  0.4717210000000  0.4104340000000 1.0
C      1  0.4210160000000  0.5438280000000  0.4761350000000 1.0
C      1  0.4637260000000  0.5034150000000  0.4696740000000 1.0
C      1  0.5983640000000  0.5251110000000  0.5478310000000 1.0
C      1  0.4306430000000  0.4797810000000  0.4312870000000 1.0
C      1  0.5020240000000  0.4726060000000  0.4563150000000 1.0
C      1  0.5067010000000  0.4496550000000  0.4720850000000 1.0
C      1  0.4820080000000  0.5141030000000  0.4898860000000 1.0
C      1  0.5192170000000  0.4681180000000  0.6150880000000 1.0
C      1  0.5840000000000  0.5203740000000  0.5700780000000 1.0
C      1  0.5256250000000  0.4288380000000  0.4248190000000 1.0
C      1  0.4111520000000  0.4891280000000  0.5211670000000 1.0
C      1  0.5208210000000  0.4951590000000  0.6063060000000 1.0
C      1  0.5312660000000  0.4486170000000  0.5990970000000 1.0
C      1  0.4229650000000  0.4656700000000  0.5336890000000 1.0
C      1  0.4417380000000  0.4627180000000  0.5798020000000 1.0
C      1  0.5648730000000  0.4467120000000  0.5582190000000 1.0
C      1  0.5475400000000  0.4413240000000  0.5794840000000 1.0
C      1  0.5429690000000  0.5062860000000  0.4616510000000 1.0
C      1  0.4950350000000  0.5726820000000  0.4764130000000 1.0
C      1  0.5602000000000  0.4699770000000  0.5425920000000 1.0
C      1  0.5297350000000  0.5407450000000  0.4951900000000 1.0
C      1  0.4995890000000  0.4284280000000  0.5321240000000 1.0
C      1  0.4853340000000  0.4431770000000  0.4896950000000 1.0
C      1  0.5461090000000  0.4875980000000  0.3937750000000 1.0
C      1  0.5001760000000  0.5388690000000  0.6034100000000 1.0
C      1  0.5111260000000  0.5216020000000  0.4117760000000 1.0
C      1  0.4904830000000  0.5722680000000  0.5664850000000 1.0
C      1  0.5602260000000  0.5064690000000  0.5765900000000 1.0
C      1  0.4837890000000  0.5375400000000  0.5055950000000 1.0
C      1  0.5607740000000  0.4840290000000  0.4688510000000 1.0
C      1  0.5341220000000  0.4424780000000  0.4768680000000 1.0
C      1  0.4623960000000  0.5144770000000  0.5701670000000 1.0
C      1  0.5512850000000  0.4574330000000  0.4582140000000 1.0
C      1  0.4388200000000  0.5311180000000  0.5679310000000 1.0
C      1  0.4707790000000  0.5620470000000  0.5489590000000 1.0
C      1  0.5280530000000  0.5534990000000  0.4474320000000 1.0
C      1  0.5861120000000  0.4302900000000  0.5530210000000 1.0
C      1  0.5425080000000  0.4524730000000  0.4302770000000 1.0
C      1  0.4948360000000  0.5651720000000  0.4142270000000 1.0
C      1  0.4138440000000  0.5210290000000  0.5604170000000 1.0
C      1  0.5040900000000  0.5543780000000  0.4961010000000 1.0
C      1  0.5469550000000  0.5067440000000  0.6019100000000 1.0
C      1  0.4272980000000  0.4558240000000  0.4463450000000 1.0
C      1  0.5017900000000  0.4359730000000  0.4120650000000 1.0
C      1  0.4394980000000  0.4393980000000  0.4637220000000 1.0
C      1  0.5256860000000  0.6034470000000  0.4521420000000 1.0
C      1  0.4806780000000  0.5154450000000  0.5483720000000 1.0
C      1  0.4179390000000  0.4972750000000  0.4942620000000 1.0
C      1  0.4757790000000  0.4805940000000  0.4551680000000 1.0
C      1  0.4127770000000  0.5159560000000  0.4714970000000 1.0
C      1  0.4451290000000  0.5580210000000  0.5607640000000 1.0
C      1  0.4848870000000  0.5103420000000  0.4121770000000 1.0
C      1  0.4378240000000  0.4685760000000  0.3843090000000 1.0
C      1  0.5162830000000  0.5780570000000  0.4582290000000 1.0
C      1  0.4491580000000  0.4771370000000  0.4080780000000 1.0
C      1  0.5935150000000  0.5069620000000  0.4997710000000 1.0
C      1  0.5427100000000  0.6513330000000  0.4387360000000 1.0
C      1  0.4529690000000  0.4281150000000  0.5494230000000 1.0
C      1  0.5242420000000  0.4184010000000  0.5219060000000 1.0
C      1  0.4603990000000  0.4348470000000  0.4798750000000 1.0
C      1  0.4969590000000  0.5106800000000  0.6032710000000 1.0
C      1  0.5756100000000  0.4861170000000  0.4932130000000 1.0
C      1  0.5487440000000  0.4935010000000  0.5540890000000 1.0
C      1  0.4375880000000  0.4515430000000  0.5540240000000 1.0
C      1  0.4781300000000  0.4182790000000  0.5472710000000 1.0
C      1  0.5790950000000  0.5162750000000  0.3645930000000 1.0
C      1  0.4248510000000  0.5056370000000  0.4451910000000 1.0
C      1  0.4782150000000  0.4828740000000  0.4074620000000 1.0
C      1  0.4513860000000  0.5185530000000  0.4463930000000 1.0
C      1  0.4652710000000  0.5282310000000  0.4239590000000 1.0
C      1  0.4663210000000  0.5731910000000  0.4730970000000 1.0
C      1  0.5070610000000  0.4616170000000  0.6386820000000 1.0
C      1  0.5003740000000  0.5615450000000  0.5891340000000 1.0
C      1  0.4989190000000  0.4934800000000  0.4985010000000 1.0
C      1  0.5380940000000  0.4256380000000  0.4994370000000 1.0
C      1  0.4966420000000  0.4778100000000  0.5218830000000 1.0
C      1  0.5342920000000  0.6275860000000  0.4454300000000 1.0
C      1  0.4719490000000  0.5004580000000  0.5929710000000 1.0
C      1  0.4441990000000  0.4888150000000  0.4876200000000 1.0
C      1  0.5596530000000  0.5182440000000  0.6234210000000 1.0
C      1  0.4693780000000  0.5554910000000  0.4170120000000 1.0
C      1  0.5200120000000  0.4932970000000  0.4516440000000 1.0
C      1  0.5018730000000  0.4974180000000  0.5421610000000 1.0
C      1  0.4910750000000  0.4507900000000  0.5167770000000 1.0
C      1  0.4578350000000  0.4763840000000  0.5966020000000 1.0
C      1  0.6014200000000  0.5205350000000  0.5215830000000 1.0
C      1  0.4781620000000  0.5394000000000  0.5328410000000 1.0
C      1  0.5009760000000  0.4646000000000  0.4059910000000 1.0
C      1  0.5359550000000  0.5261730000000  0.5190360000000 1.0
C      1  0.5165840000000  0.5476030000000  0.4217440000000 1.0
C      1  0.5383280000000  0.5342520000000  0.4677820000000 1.0
C      1  0.4413660000000  0.5621760000000  0.4752400000000 1.0
C      1  0.5288350000000  0.5076820000000  0.5398530000000 1.0
C      1  0.5628780000000  0.5016760000000  0.3788560000000 1.0
END
