TITL C-627106-156-1841 105.385205100178 125000 -529.127213100405 0 0 89 (C1) n - 1
REM
REM in /home/nfs/bkarasulu/CARBON/AIRSS/Generating-Clusters/LCBOP/Only-C1/SD-CG/FIRE-CG
REM
REM
REM
REM
REM
REM ./C.cell (11c1c37f851c82e70ff6c80c92926a4b)
REM AIRSS Version 0.9.1 bugfix July 2018 build 013d7b7c2542+ Fri, 06 Jul 2018 19:26:36 +0100
REM compiler GCC version 9.2.1 20190827 (Red Hat 9.2.1-1)
REM options -cpp -mtune=generic -march=x86-64 -g -O0 -fpre-include=/usr/include/finclude/math-vector-fortran.h
REM seed 17385886 1510134969 742242737 -1141181531 -1459153077 -1267415992 -10057466 -1219749612 1270634736 620784046 -1740754414 -1355627763 -1895419377 -1942833354 1715219637 81788943 1905202549 143999293 -1919923256 -1511576853 1784615450 393796829 218380108 1232408226 -572000592 -1859501820 1794746195 530725305 1046184194 -62930908 -1972428324 -574458631 1994538117
REM
CELL 1.54180   50.00000   50.00000   50.00000   90.00000   90.00000   90.00000
LATT -1
SFAC C  
C      1  0.5526050000000  0.3082120000000  0.4521120000000 1.0
C      1  0.5795860000000  0.4421240000000  0.4541220000000 1.0
C      1  0.4875270000000  0.4718720000000  0.4670200000000 1.0
C      1  0.5008890000000  0.5070090000000  0.5362090000000 1.0
C      1  0.5407000000000  0.5447350000000  0.4567740000000 1.0
C      1  0.5042860000000  0.3917360000000  0.4653490000000 1.0
C      1  0.4372020000000  0.5688130000000  0.5162390000000 1.0
C      1  0.4875620000000  0.5111540000000  0.4428560000000 1.0
C      1  0.4694840000000  0.5447140000000  0.4920560000000 1.0
C      1  0.6005360000000  0.5352290000000  0.4423930000000 1.0
C      1  0.4187090000000  0.5538050000000  0.4986160000000 1.0
C      1  0.4509910000000  0.5114740000000  0.4090010000000 1.0
C      1  0.5537060000000  0.5839500000000  0.4825040000000 1.0
C      1  0.4378380000000  0.4974180000000  0.5515590000000 1.0
C      1  0.5287680000000  0.5953380000000  0.4811890000000 1.0
C      1  0.5337470000000  0.4713060000000  0.5295330000000 1.0
C      1  0.5233330000000  0.4541440000000  0.4426420000000 1.0
C      1  0.5101680000000  0.5063680000000  0.4901740000000 1.0
C      1  0.4566680000000  0.5258750000000  0.5111300000000 1.0
C      1  0.5900220000000  0.4908740000000  0.4592040000000 1.0
C      1  0.4680080000000  0.4355470000000  0.5321650000000 1.0
C      1  0.4542320000000  0.5473590000000  0.4673820000000 1.0
C      1  0.4853490000000  0.5073500000000  0.5589120000000 1.0
C      1  0.5302570000000  0.5605290000000  0.5265700000000 1.0
C      1  0.5106800000000  0.4554640000000  0.5176120000000 1.0
C      1  0.4570700000000  0.5687900000000  0.5377250000000 1.0
C      1  0.3917920000000  0.5497600000000  0.5062210000000 1.0
C      1  0.5332010000000  0.4753950000000  0.4292800000000 1.0
C      1  0.4793230000000  0.4011170000000  0.4654370000000 1.0
C      1  0.5458040000000  0.3330580000000  0.4561170000000 1.0
C      1  0.5698590000000  0.5108050000000  0.5194300000000 1.0
C      1  0.5817410000000  0.5163430000000  0.4488550000000 1.0
C      1  0.5038750000000  0.4733620000000  0.5952480000000 1.0
C      1  0.4588800000000  0.4183090000000  0.4654230000000 1.0
C      1  0.5083660000000  0.5763700000000  0.4751400000000 1.0
C      1  0.3772360000000  0.5072290000000  0.4877940000000 1.0
C      1  0.5414400000000  0.5200640000000  0.5583880000000 1.0
C      1  0.5626270000000  0.4297400000000  0.4728530000000 1.0
C      1  0.4901680000000  0.5639630000000  0.4929790000000 1.0
C      1  0.4490860000000  0.4432620000000  0.4652250000000 1.0
C      1  0.5409930000000  0.5444850000000  0.5059870000000 1.0
C      1  0.5315800000000  0.3849240000000  0.4646220000000 1.0
C      1  0.5687380000000  0.5210740000000  0.5473400000000 1.0
C      1  0.5287860000000  0.5009750000000  0.5376080000000 1.0
C      1  0.4804770000000  0.5268500000000  0.6026310000000 1.0
C      1  0.4409710000000  0.5010890000000  0.5789420000000 1.0
C      1  0.5212250000000  0.4800470000000  0.6145530000000 1.0
C      1  0.4283850000000  0.5381210000000  0.4750100000000 1.0
C      1  0.4685100000000  0.5299990000000  0.5610460000000 1.0
C      1  0.5400320000000  0.5151990000000  0.5103920000000 1.0
C      1  0.5118410000000  0.5597350000000  0.5483720000000 1.0
C      1  0.5536330000000  0.5218860000000  0.4445970000000 1.0
C      1  0.5499900000000  0.4457650000000  0.4925940000000 1.0
C      1  0.5082490000000  0.4524620000000  0.4667020000000 1.0
C      1  0.5207980000000  0.4462490000000  0.4916290000000 1.0
C      1  0.4861360000000  0.5723380000000  0.5421390000000 1.0
C      1  0.5395570000000  0.5508520000000  0.6301650000000 1.0
C      1  0.4494000000000  0.5001620000000  0.5249680000000 1.0
C      1  0.4927330000000  0.5571520000000  0.4351760000000 1.0
C      1  0.5521830000000  0.5552450000000  0.4819410000000 1.0
C      1  0.4449930000000  0.4937970000000  0.4552930000000 1.0
C      1  0.4821940000000  0.4566100000000  0.5222870000000 1.0
C      1  0.5946870000000  0.4876800000000  0.4868350000000 1.0
C      1  0.5881210000000  0.4661980000000  0.4457140000000 1.0
C      1  0.5311140000000  0.5032380000000  0.6237800000000 1.0
C      1  0.4669070000000  0.5560510000000  0.4438210000000 1.0
C      1  0.5082030000000  0.5348740000000  0.5958570000000 1.0
C      1  0.5516710000000  0.4042590000000  0.4682300000000 1.0
C      1  0.5401290000000  0.5012830000000  0.4307470000000 1.0
C      1  0.4414570000000  0.5176420000000  0.3850670000000 1.0
C      1  0.5207370000000  0.5400290000000  0.5692470000000 1.0
C      1  0.5269950000000  0.5303710000000  0.6172840000000 1.0
C      1  0.5388880000000  0.3583040000000  0.4602160000000 1.0
C      1  0.4568520000000  0.5125250000000  0.5988620000000 1.0
C      1  0.3741640000000  0.5298250000000  0.5021590000000 1.0
C      1  0.4320630000000  0.5239920000000  0.3615920000000 1.0
C      1  0.3984410000000  0.4990270000000  0.4734070000000 1.0
C      1  0.4606470000000  0.5065790000000  0.4345420000000 1.0
C      1  0.4238010000000  0.5098320000000  0.4675280000000 1.0
C      1  0.5583840000000  0.4648970000000  0.5130360000000 1.0
C      1  0.5153390000000  0.5592040000000  0.4520730000000 1.0
C      1  0.5781130000000  0.4856930000000  0.5092350000000 1.0
C      1  0.4894750000000  0.4851710000000  0.5760650000000 1.0
C      1  0.4705070000000  0.4818660000000  0.5158320000000 1.0
C      1  0.4288770000000  0.5562440000000  0.5756270000000 1.0
C      1  0.4500320000000  0.5511510000000  0.5592750000000 1.0
C      1  0.4920570000000  0.5007400000000  0.5106430000000 1.0
C      1  0.4989370000000  0.4987120000000  0.4655060000000 1.0
C      1  0.4586750000000  0.4696290000000  0.4643890000000 1.0
END
