TITL C-627111-6168-1528 -1.0268081189703e-06 125000 -460.423433786577 0 0 77 (C1) n - 1
REM
REM in /home/nfs/bkarasulu/CARBON/AIRSS/Generating-Clusters/LCBOP/Only-C1/SD-CG/FIRE-CG
REM
REM
REM
REM
REM
REM ./C.cell (11c1c37f851c82e70ff6c80c92926a4b)
REM AIRSS Version 0.9.1 bugfix July 2018 build 013d7b7c2542+ Fri, 06 Jul 2018 19:26:36 +0100
REM compiler GCC version 9.2.1 20190827 (Red Hat 9.2.1-1)
REM options -cpp -mtune=generic -march=x86-64 -g -O0 -fpre-include=/usr/include/finclude/math-vector-fortran.h
REM seed 1169179692 -1184445000 626039111 -1600183027 -521129474 13335941 1333257517 477210663 -966021686 32833821 -164744000 -1111821355 1366594082 -1846358333 -1471122862 582042643 -1794642807 2145332528 -1325857767 -1361407810 -1726933459 -881462294 -1067411556 -738739282 -630143435 493150288 -1558233987 -786216098 -235735705 -1855559079 -984958904 1848493317 -954564912
REM
CELL 1.54180   50.00000   50.00000   50.00000   90.00000   90.00000   90.00000
LATT -1
SFAC C  
C      1  0.4639580000000  0.5739530000000  0.5188020000000 1.0
C      1  0.5848290000000  0.5318140000000  0.4751110000000 1.0
C      1  0.4798230000000  0.5340540000000  0.4517440000000 1.0
C      1  0.5638510000000  0.5235520000000  0.4922890000000 1.0
C      1  0.5230310000000  0.4323670000000  0.5533660000000 1.0
C      1  0.5411260000000  0.5400130000000  0.4928670000000 1.0
C      1  0.4318070000000  0.5071140000000  0.4767360000000 1.0
C      1  0.4703150000000  0.4473830000000  0.4218980000000 1.0
C      1  0.5122510000000  0.4860020000000  0.5209160000000 1.0
C      1  0.4464720000000  0.4111820000000  0.5285030000000 1.0
C      1  0.5593130000000  0.5640910000000  0.5875520000000 1.0
C      1  0.5225760000000  0.5282570000000  0.6070560000000 1.0
C      1  0.4936570000000  0.4002830000000  0.4673150000000 1.0
C      1  0.4867610000000  0.4061190000000  0.4953080000000 1.0
C      1  0.5190880000000  0.5450870000000  0.4766730000000 1.0
C      1  0.5722640000000  0.5075270000000  0.4342230000000 1.0
C      1  0.5315400000000  0.4578330000000  0.5934560000000 1.0
C      1  0.5118390000000  0.5828550000000  0.5272120000000 1.0
C      1  0.4766720000000  0.5383370000000  0.5809280000000 1.0
C      1  0.4546690000000  0.4613420000000  0.4412920000000 1.0
C      1  0.5069100000000  0.5095950000000  0.4007050000000 1.0
C      1  0.5315100000000  0.5816230000000  0.5449080000000 1.0
C      1  0.4593420000000  0.4709380000000  0.4933170000000 1.0
C      1  0.4615440000000  0.5041350000000  0.4182150000000 1.0
C      1  0.4711700000000  0.4190750000000  0.4212910000000 1.0
C      1  0.4413400000000  0.4334790000000  0.5426950000000 1.0
C      1  0.5592370000000  0.4953890000000  0.4963680000000 1.0
C      1  0.4420130000000  0.5876040000000  0.5060670000000 1.0
C      1  0.4644700000000  0.4054910000000  0.3985140000000 1.0
C      1  0.4263030000000  0.4996140000000  0.4513540000000 1.0
C      1  0.4468430000000  0.5097380000000  0.5564950000000 1.0
C      1  0.4529290000000  0.4990500000000  0.4933800000000 1.0
C      1  0.4719920000000  0.5146200000000  0.5070080000000 1.0
C      1  0.4982550000000  0.4611240000000  0.5228180000000 1.0
C      1  0.4726680000000  0.5997230000000  0.4695120000000 1.0
C      1  0.5336670000000  0.4338710000000  0.5791720000000 1.0
C      1  0.4846590000000  0.4646080000000  0.4043710000000 1.0
C      1  0.5273140000000  0.5045250000000  0.6489300000000 1.0
C      1  0.4567080000000  0.4569010000000  0.4691190000000 1.0
C      1  0.5276580000000  0.5267370000000  0.4097150000000 1.0
C      1  0.4956590000000  0.5088700000000  0.5186740000000 1.0
C      1  0.4516430000000  0.4594590000000  0.5396960000000 1.0
C      1  0.4629330000000  0.4022850000000  0.5093370000000 1.0
C      1  0.4787440000000  0.4051180000000  0.4444580000000 1.0
C      1  0.5099210000000  0.4980450000000  0.4634900000000 1.0
C      1  0.5703920000000  0.4829190000000  0.4483020000000 1.0
C      1  0.5326630000000  0.4092850000000  0.4911190000000 1.0
C      1  0.5131810000000  0.5708380000000  0.4656950000000 1.0
C      1  0.5228700000000  0.5535390000000  0.4181230000000 1.0
C      1  0.5870990000000  0.5270930000000  0.4485280000000 1.0
C      1  0.5265350000000  0.5041820000000  0.6215890000000 1.0
C      1  0.5528910000000  0.5154440000000  0.4155640000000 1.0
C      1  0.4590960000000  0.5548960000000  0.5390480000000 1.0
C      1  0.5110000000000  0.4164970000000  0.5088060000000 1.0
C      1  0.4483280000000  0.5999700000000  0.4813610000000 1.0
C      1  0.5026570000000  0.5248610000000  0.4654450000000 1.0
C      1  0.4701450000000  0.4618130000000  0.5179320000000 1.0
C      1  0.4447720000000  0.4832430000000  0.5530100000000 1.0
C      1  0.5842400000000  0.5711610000000  0.5961980000000 1.0
C      1  0.4597730000000  0.5347710000000  0.5588460000000 1.0
C      1  0.5111020000000  0.4364690000000  0.5285120000000 1.0
C      1  0.4170320000000  0.5887580000000  0.5169630000000 1.0
C      1  0.5481380000000  0.5757030000000  0.5646740000000 1.0
C      1  0.4843190000000  0.4929870000000  0.4045180000000 1.0
C      1  0.5441570000000  0.5450100000000  0.6012820000000 1.0
C      1  0.5186150000000  0.5716960000000  0.4377740000000 1.0
C      1  0.5460080000000  0.4121620000000  0.5903260000000 1.0
C      1  0.5226850000000  0.3996590000000  0.4672160000000 1.0
C      1  0.4652130000000  0.5295130000000  0.4298040000000 1.0
C      1  0.5396160000000  0.4874240000000  0.5148440000000 1.0
C      1  0.5670740000000  0.4786560000000  0.4748350000000 1.0
C      1  0.5132320000000  0.4726540000000  0.4585950000000 1.0
C      1  0.4944990000000  0.5858690000000  0.4809540000000 1.0
C      1  0.4906240000000  0.5802600000000  0.5092650000000 1.0
C      1  0.5295260000000  0.4801970000000  0.6075070000000 1.0
C      1  0.4972070000000  0.5347520000000  0.5972870000000 1.0
C      1  0.4440370000000  0.4869350000000  0.4332210000000 1.0
END
