TITL C-627108-131-1186 0.944324147494368 125000 -547.879920865135 0 0 91 (C1) n - 1
REM
REM in /home/nfs/bkarasulu/CARBON/AIRSS/Generating-Clusters/LCBOP/Only-C1/SD-CG/FIRE-CG
REM
REM
REM
REM
REM
REM ./C.cell (11c1c37f851c82e70ff6c80c92926a4b)
REM AIRSS Version 0.9.1 bugfix July 2018 build 013d7b7c2542+ Fri, 06 Jul 2018 19:26:36 +0100
REM compiler GCC version 9.2.1 20190827 (Red Hat 9.2.1-1)
REM options -cpp -mtune=generic -march=x86-64 -g -O0 -fpre-include=/usr/include/finclude/math-vector-fortran.h
REM seed -1366381595 1343479295 1126408704 905917055 -701337403 604693943 -1749885304 425073221 -794108920 1125032729 610417429 -1556546324 659222701 1079557240 26130476 402501505 -163885382 -1397901196 852849146 1044600226 404818390 -715403261 1738282116 -954518620 646861290 -778158469 1006106264 2035440584 -1195499629 -1577944099 -1387766383 1274595379 761692222
REM
CELL 1.54180   50.00000   50.00000   50.00000   90.00000   90.00000   90.00000
LATT -1
SFAC C  
C      1  0.4422030000000  0.5874930000000  0.5049680000000 1.0
C      1  0.4598460000000  0.4178340000000  0.5780830000000 1.0
C      1  0.5288370000000  0.4876090000000  0.4129430000000 1.0
C      1  0.5438760000000  0.5416380000000  0.5295880000000 1.0
C      1  0.5130070000000  0.5412190000000  0.4095460000000 1.0
C      1  0.5697880000000  0.5283680000000  0.5314000000000 1.0
C      1  0.4950340000000  0.3579060000000  0.6417450000000 1.0
C      1  0.4446130000000  0.4908570000000  0.4306530000000 1.0
C      1  0.5416960000000  0.4938440000000  0.5654290000000 1.0
C      1  0.5278590000000  0.5124690000000  0.5791090000000 1.0
C      1  0.4968290000000  0.5720180000000  0.5531240000000 1.0
C      1  0.4415330000000  0.4882840000000  0.5410030000000 1.0
C      1  0.5727310000000  0.5002290000000  0.4360350000000 1.0
C      1  0.5025530000000  0.6003050000000  0.5120650000000 1.0
C      1  0.4848950000000  0.5617830000000  0.4558890000000 1.0
C      1  0.4449920000000  0.4394290000000  0.4824690000000 1.0
C      1  0.4650450000000  0.5299920000000  0.4039680000000 1.0
C      1  0.4227480000000  0.5230740000000  0.5037810000000 1.0
C      1  0.5199840000000  0.5279140000000  0.5140210000000 1.0
C      1  0.4516140000000  0.5208450000000  0.4664750000000 1.0
C      1  0.5865180000000  0.4642160000000  0.5023160000000 1.0
C      1  0.5248550000000  0.5775640000000  0.5547610000000 1.0
C      1  0.4298300000000  0.4611260000000  0.4968910000000 1.0
C      1  0.5887800000000  0.5105160000000  0.5231230000000 1.0
C      1  0.4766000000000  0.3755170000000  0.6345600000000 1.0
C      1  0.4116910000000  0.5045870000000  0.4873990000000 1.0
C      1  0.4502880000000  0.4485120000000  0.4553130000000 1.0
C      1  0.5316230000000  0.3229480000000  0.6560090000000 1.0
C      1  0.5094700000000  0.5321050000000  0.5794510000000 1.0
C      1  0.4788500000000  0.5678710000000  0.4302000000000 1.0
C      1  0.5139650000000  0.5121720000000  0.4136410000000 1.0
C      1  0.4208630000000  0.4800990000000  0.4768050000000 1.0
C      1  0.6014670000000  0.5011200000000  0.4772490000000 1.0
C      1  0.4957010000000  0.4829840000000  0.5381620000000 1.0
C      1  0.4345970000000  0.4735280000000  0.4510690000000 1.0
C      1  0.4730920000000  0.4448910000000  0.4386220000000 1.0
C      1  0.5478070000000  0.5851320000000  0.5105670000000 1.0
C      1  0.5229720000000  0.4995490000000  0.4709410000000 1.0
C      1  0.6035730000000  0.5105430000000  0.3930790000000 1.0
C      1  0.4611550000000  0.4294990000000  0.5543490000000 1.0
C      1  0.5418780000000  0.4552850000000  0.4754680000000 1.0
C      1  0.5379070000000  0.5109420000000  0.4941260000000 1.0
C      1  0.5421490000000  0.5697220000000  0.5340160000000 1.0
C      1  0.4956160000000  0.4600910000000  0.4969370000000 1.0
C      1  0.4363570000000  0.4004750000000  0.6444870000000 1.0
C      1  0.4361810000000  0.5412860000000  0.4585270000000 1.0
C      1  0.4627990000000  0.4437210000000  0.5289060000000 1.0
C      1  0.4169440000000  0.4064330000000  0.6608230000000 1.0
C      1  0.5319340000000  0.5777080000000  0.4442490000000 1.0
C      1  0.4274500000000  0.5841140000000  0.4828350000000 1.0
C      1  0.4887010000000  0.5466330000000  0.5660110000000 1.0
C      1  0.4659010000000  0.5074650000000  0.4218890000000 1.0
C      1  0.4634680000000  0.5741260000000  0.5172710000000 1.0
C      1  0.4925080000000  0.5079270000000  0.4336300000000 1.0
C      1  0.5028280000000  0.5156070000000  0.4590720000000 1.0
C      1  0.5692430000000  0.5522880000000  0.4818580000000 1.0
C      1  0.4809680000000  0.4792860000000  0.4823600000000 1.0
C      1  0.4571650000000  0.3940900000000  0.6269750000000 1.0
C      1  0.5372610000000  0.4778830000000  0.4586910000000 1.0
C      1  0.4853870000000  0.5859680000000  0.5301420000000 1.0
C      1  0.5180170000000  0.4460800000000  0.4874540000000 1.0
C      1  0.4682580000000  0.5467120000000  0.5108490000000 1.0
C      1  0.4652020000000  0.5004300000000  0.4776970000000 1.0
C      1  0.5141040000000  0.4635160000000  0.4059820000000 1.0
C      1  0.4848260000000  0.5505600000000  0.4083390000000 1.0
C      1  0.5612240000000  0.5256950000000  0.4785470000000 1.0
C      1  0.5792660000000  0.5100370000000  0.4621090000000 1.0
C      1  0.5300120000000  0.5595620000000  0.4239730000000 1.0
C      1  0.4940180000000  0.4524650000000  0.4232280000000 1.0
C      1  0.4585370000000  0.4062770000000  0.6018810000000 1.0
C      1  0.5966510000000  0.4908930000000  0.5034660000000 1.0
C      1  0.5055310000000  0.5072560000000  0.5319390000000 1.0
C      1  0.5196420000000  0.4510810000000  0.3821490000000 1.0
C      1  0.5466120000000  0.4892250000000  0.5144250000000 1.0
C      1  0.4586350000000  0.4260240000000  0.5039720000000 1.0
C      1  0.5690900000000  0.5756140000000  0.4948760000000 1.0
C      1  0.5889870000000  0.5053630000000  0.4140420000000 1.0
C      1  0.4650870000000  0.5310000000000  0.5612300000000 1.0
C      1  0.4949950000000  0.5407620000000  0.4998230000000 1.0
C      1  0.5485730000000  0.4851620000000  0.4336930000000 1.0
C      1  0.5134800000000  0.3402820000000  0.6489360000000 1.0
C      1  0.5265380000000  0.5910620000000  0.4673740000000 1.0
C      1  0.5477480000000  0.4839490000000  0.5410380000000 1.0
C      1  0.4500820000000  0.5154760000000  0.5425880000000 1.0
C      1  0.4403420000000  0.4650870000000  0.5241590000000 1.0
C      1  0.4880640000000  0.4596310000000  0.5244450000000 1.0
C      1  0.4466220000000  0.5292070000000  0.5177640000000 1.0
C      1  0.4958530000000  0.5406800000000  0.4711900000000 1.0
C      1  0.5670670000000  0.4517360000000  0.4880940000000 1.0
C      1  0.4256160000000  0.5652670000000  0.4638700000000 1.0
C      1  0.5252990000000  0.5952700000000  0.4957930000000 1.0
END
