TITL C-627106-156-1022 -7.67312310969153e-07 125000 -506.614953006041 0 0 83 (C1) n - 1
REM
REM in /home/nfs/bkarasulu/CARBON/AIRSS/Generating-Clusters/LCBOP/Only-C1/SD-CG/FIRE-CG
REM
REM
REM
REM
REM
REM ./C.cell (11c1c37f851c82e70ff6c80c92926a4b)
REM AIRSS Version 0.9.1 bugfix July 2018 build 013d7b7c2542+ Fri, 06 Jul 2018 19:26:36 +0100
REM compiler GCC version 9.2.1 20190827 (Red Hat 9.2.1-1)
REM options -cpp -mtune=generic -march=x86-64 -g -O0 -fpre-include=/usr/include/finclude/math-vector-fortran.h
REM seed -1392011294 1290415173 1359815900 394446698 -854273581 1738058971 158450931 -1887009727 1526788515 -1526551279 1561237216 1382863916 -1041647684 -1401843648 1623497158 1940456309 -753754027 995154337 72017018 -880255045 -627971988 84932894 259570291 -1088256358 -1950462677 -2024822372 1031491827 1473176181 -1825511945 -1505259345 512868792 -1410237862 1664123725
REM
CELL 1.54180   50.00000   50.00000   50.00000   90.00000   90.00000   90.00000
LATT -1
SFAC C  
C      1  0.4161300000000  0.5573730000000  0.4336760000000 1.0
C      1  0.4388420000000  0.3705760000000  0.5118510000000 1.0
C      1  0.4754790000000  0.5229010000000  0.5881370000000 1.0
C      1  0.4775260000000  0.4495890000000  0.5388000000000 1.0
C      1  0.5423820000000  0.5381250000000  0.4616120000000 1.0
C      1  0.4892220000000  0.4725990000000  0.4177400000000 1.0
C      1  0.4946700000000  0.4291880000000  0.4427380000000 1.0
C      1  0.5597390000000  0.5214930000000  0.5077540000000 1.0
C      1  0.4565210000000  0.4652430000000  0.4786790000000 1.0
C      1  0.5251880000000  0.5280090000000  0.5896270000000 1.0
C      1  0.5015130000000  0.5111050000000  0.5971540000000 1.0
C      1  0.4740100000000  0.5515660000000  0.5862540000000 1.0
C      1  0.4423720000000  0.4917420000000  0.4146870000000 1.0
C      1  0.5148840000000  0.5387230000000  0.5648490000000 1.0
C      1  0.5000910000000  0.5887150000000  0.5570860000000 1.0
C      1  0.4183620000000  0.5702090000000  0.4573440000000 1.0
C      1  0.5598380000000  0.5794420000000  0.4395040000000 1.0
C      1  0.4689840000000  0.4745070000000  0.5272720000000 1.0
C      1  0.3952350000000  0.5190790000000  0.4756200000000 1.0
C      1  0.4259830000000  0.5141560000000  0.4117940000000 1.0
C      1  0.5703950000000  0.6042360000000  0.4458340000000 1.0
C      1  0.5642850000000  0.4683390000000  0.4672120000000 1.0
C      1  0.4867720000000  0.4028200000000  0.4390330000000 1.0
C      1  0.5146500000000  0.4371950000000  0.4609840000000 1.0
C      1  0.4583180000000  0.4316660000000  0.5485340000000 1.0
C      1  0.4785390000000  0.4516510000000  0.4350870000000 1.0
C      1  0.4377420000000  0.3870400000000  0.5326920000000 1.0
C      1  0.5126000000000  0.5772750000000  0.5112360000000 1.0
C      1  0.4840500000000  0.5746030000000  0.5759190000000 1.0
C      1  0.4444890000000  0.4091110000000  0.5458880000000 1.0
C      1  0.5549880000000  0.4479700000000  0.4847020000000 1.0
C      1  0.5466770000000  0.4780570000000  0.5241300000000 1.0
C      1  0.4931180000000  0.5874130000000  0.5292360000000 1.0
C      1  0.5071330000000  0.5187400000000  0.5458330000000 1.0
C      1  0.4996500000000  0.4825560000000  0.4877700000000 1.0
C      1  0.4356960000000  0.4728690000000  0.4349700000000 1.0
C      1  0.4102020000000  0.5301870000000  0.4284920000000 1.0
C      1  0.5142650000000  0.4918740000000  0.5555800000000 1.0
C      1  0.4995880000000  0.5313090000000  0.5219010000000 1.0
C      1  0.5088800000000  0.4630000000000  0.4703740000000 1.0
C      1  0.5398080000000  0.4879710000000  0.4300860000000 1.0
C      1  0.6055320000000  0.5238410000000  0.4887860000000 1.0
C      1  0.5360930000000  0.4263570000000  0.4761190000000 1.0
C      1  0.4690480000000  0.4886270000000  0.4054700000000 1.0
C      1  0.5585470000000  0.4916030000000  0.4512670000000 1.0
C      1  0.5517180000000  0.5877250000000  0.4853930000000 1.0
C      1  0.5588090000000  0.4975800000000  0.5700650000000 1.0
C      1  0.4098750000000  0.5357640000000  0.4931870000000 1.0
C      1  0.5216770000000  0.3856600000000  0.5025590000000 1.0
C      1  0.5472230000000  0.4523710000000  0.5129410000000 1.0
C      1  0.5271910000000  0.4325670000000  0.5207440000000 1.0
C      1  0.5194720000000  0.5494650000000  0.5134560000000 1.0
C      1  0.4740130000000  0.3809640000000  0.4471500000000 1.0
C      1  0.4728420000000  0.5324400000000  0.5140590000000 1.0
C      1  0.5581430000000  0.5593310000000  0.5424540000000 1.0
C      1  0.5276410000000  0.4119690000000  0.5001210000000 1.0
C      1  0.5480040000000  0.5864870000000  0.5391960000000 1.0
C      1  0.5051350000000  0.4865020000000  0.5822910000000 1.0
C      1  0.4595810000000  0.3669420000000  0.4645160000000 1.0
C      1  0.5388620000000  0.5903390000000  0.5106550000000 1.0
C      1  0.5646670000000  0.5458140000000  0.5667690000000 1.0
C      1  0.5664030000000  0.6095280000000  0.4726630000000 1.0
C      1  0.4552500000000  0.4597930000000  0.4507530000000 1.0
C      1  0.5642630000000  0.5184390000000  0.4614570000000 1.0
C      1  0.5477840000000  0.5435670000000  0.5205280000000 1.0
C      1  0.5187440000000  0.5255070000000  0.4714720000000 1.0
C      1  0.5039020000000  0.4397650000000  0.5348080000000 1.0
C      1  0.5284050000000  0.5946210000000  0.5591850000000 1.0
C      1  0.5534810000000  0.5235380000000  0.5816920000000 1.0
C      1  0.5416410000000  0.4995120000000  0.5064250000000 1.0
C      1  0.4737710000000  0.4765110000000  0.4985120000000 1.0
C      1  0.5485580000000  0.5661310000000  0.4632650000000 1.0
C      1  0.5416770000000  0.4847220000000  0.5510510000000 1.0
C      1  0.5180830000000  0.5035560000000  0.4900830000000 1.0
C      1  0.5786160000000  0.5213870000000  0.4863140000000 1.0
C      1  0.4248300000000  0.5252820000000  0.5143000000000 1.0
C      1  0.4607390000000  0.5061840000000  0.5690720000000 1.0
C      1  0.4154880000000  0.5615630000000  0.4827630000000 1.0
C      1  0.4468560000000  0.3633260000000  0.4875680000000 1.0
C      1  0.5163000000000  0.4807240000000  0.4192060000000 1.0
C      1  0.3947480000000  0.5175030000000  0.4486960000000 1.0
C      1  0.4501980000000  0.5188260000000  0.5237050000000 1.0
C      1  0.4573710000000  0.4974420000000  0.5416120000000 1.0
END
