TITL C-627111-6168-962 9874.8899454264 125000 -1121.32112192799 0 0 183 (C1) n - 1
REM
REM in /home/nfs/bkarasulu/CARBON/AIRSS/Generating-Clusters/LCBOP/Only-C1/SD-CG/FIRE-CG
REM
REM
REM
REM
REM
REM ./C.cell (11c1c37f851c82e70ff6c80c92926a4b)
REM AIRSS Version 0.9.1 bugfix July 2018 build 013d7b7c2542+ Fri, 06 Jul 2018 19:26:36 +0100
REM compiler GCC version 9.2.1 20190827 (Red Hat 9.2.1-1)
REM options -cpp -mtune=generic -march=x86-64 -g -O0 -fpre-include=/usr/include/finclude/math-vector-fortran.h
REM seed 1586944310 -2099056739 -1137942658 161045348 -53633865 -1318200557 850720154 350125631 -1283947180 635839022 1954873827 -860091012 1458836191 1738244149 2098027132 -1540771193 -1258609295 -197817645 -1227734639 -3532720 1777378072 -397851492 -1454434069 -186035897 1796108826 739859571 1010593386 106756275 1530015588 1702050432 192738066 1163012078 627261311
REM
CELL 1.54180   50.00000   50.00000   50.00000   90.00000   90.00000   90.00000
LATT -1
SFAC C  
C      1  0.5209030000000  0.4511860000000  0.3932240000000 1.0
C      1  0.5304920000000  0.5026870000000  0.5188200000000 1.0
C      1  0.5386630000000  0.5251350000000  0.4504520000000 1.0
C      1  0.4697410000000  0.4731320000000  0.5892630000000 1.0
C      1  0.5027610000000  0.5721530000000  0.5890210000000 1.0
C      1  0.4449380000000  0.3808000000000  0.5176830000000 1.0
C      1  0.4545530000000  0.6303140000000  0.5049650000000 1.0
C      1  0.5160670000000  0.4035630000000  0.4045490000000 1.0
C      1  0.4131870000000  0.4561960000000  0.4425290000000 1.0
C      1  0.4400630000000  0.5444690000000  0.4854900000000 1.0
C      1  0.5707330000000  0.4786170000000  0.4267630000000 1.0
C      1  0.5399460000000  0.4563870000000  0.4835290000000 1.0
C      1  0.4439700000000  0.4570090000000  0.5954680000000 1.0
C      1  0.5348480000000  0.4950530000000  0.5824120000000 1.0
C      1  0.4220420000000  0.5941760000000  0.4987410000000 1.0
C      1  0.4127860000000  0.4413750000000  0.5457300000000 1.0
C      1  0.6582580000000  0.4725170000000  0.4773850000000 1.0
C      1  0.4595090000000  0.4365440000000  0.4128220000000 1.0
C      1  0.5221210000000  0.5536360000000  0.5347960000000 1.0
C      1  0.4193230000000  0.4668120000000  0.5416760000000 1.0
C      1  0.5626110000000  0.6104160000000  0.4768630000000 1.0
C      1  0.5669730000000  0.5769500000000  0.4361530000000 1.0
C      1  0.5642460000000  0.5297240000000  0.4410000000000 1.0
C      1  0.4776630000000  0.5528760000000  0.3947080000000 1.0
C      1  0.5757130000000  0.4153470000000  0.4687310000000 1.0
C      1  0.5719880000000  0.5506260000000  0.4238090000000 1.0
C      1  0.4751170000000  0.5048260000000  0.4699320000000 1.0
C      1  0.4867800000000  0.5228160000000  0.6050950000000 1.0
C      1  0.5328730000000  0.5261940000000  0.4772360000000 1.0
C      1  0.5373320000000  0.3511250000000  0.5768880000000 1.0
C      1  0.4794710000000  0.3663400000000  0.4588540000000 1.0
C      1  0.6051920000000  0.5525600000000  0.4887540000000 1.0
C      1  0.5075720000000  0.5603240000000  0.4478840000000 1.0
C      1  0.4740290000000  0.6059670000000  0.5617370000000 1.0
C      1  0.4462870000000  0.3793790000000  0.4911730000000 1.0
C      1  0.5069950000000  0.4675000000000  0.5201110000000 1.0
C      1  0.3759260000000  0.4982250000000  0.5406970000000 1.0
C      1  0.4751410000000  0.5444890000000  0.5315220000000 1.0
C      1  0.5674670000000  0.4588840000000  0.4053290000000 1.0
C      1  0.4320230000000  0.4805310000000  0.4750210000000 1.0
C      1  0.4724060000000  0.5855030000000  0.5029800000000 1.0
C      1  0.4469480000000  0.4650800000000  0.4962500000000 1.0
C      1  0.5380160000000  0.4955890000000  0.3862790000000 1.0
C      1  0.5418230000000  0.3882390000000  0.5037000000000 1.0
C      1  0.5215450000000  0.5966030000000  0.5500730000000 1.0
C      1  0.4729460000000  0.4565710000000  0.4003700000000 1.0
C      1  0.5804950000000  0.5012650000000  0.5266550000000 1.0
C      1  0.4387300000000  0.5040320000000  0.6054600000000 1.0
C      1  0.4030640000000  0.4758120000000  0.5895780000000 1.0
C      1  0.5495520000000  0.5549260000000  0.5297700000000 1.0
C      1  0.4569010000000  0.3824900000000  0.4652520000000 1.0
C      1  0.5774380000000  0.5885810000000  0.4625680000000 1.0
C      1  0.4561240000000  0.5594430000000  0.5975080000000 1.0
C      1  0.4258180000000  0.5234210000000  0.5882000000000 1.0
C      1  0.3895850000000  0.4513640000000  0.5143940000000 1.0
C      1  0.5156430000000  0.4925070000000  0.5619150000000 1.0
C      1  0.5068350000000  0.4187950000000  0.5276970000000 1.0
C      1  0.5579960000000  0.5509640000000  0.5029940000000 1.0
C      1  0.5416420000000  0.5860550000000  0.4252180000000 1.0
C      1  0.4916240000000  0.4573920000000  0.4752420000000 1.0
C      1  0.4118670000000  0.5885970000000  0.5247620000000 1.0
C      1  0.4196000000000  0.5112110000000  0.5613960000000 1.0
C      1  0.5708270000000  0.6111990000000  0.5047750000000 1.0
C      1  0.5560930000000  0.4900910000000  0.5174920000000 1.0
C      1  0.4456440000000  0.4992640000000  0.4324710000000 1.0
C      1  0.5533670000000  0.4127350000000  0.5126970000000 1.0
C      1  0.4974250000000  0.4690710000000  0.3931000000000 1.0
C      1  0.5895230000000  0.5903070000000  0.5124830000000 1.0
C      1  0.6214460000000  0.5456060000000  0.5110340000000 1.0
C      1  0.5137230000000  0.4599980000000  0.4938080000000 1.0
C      1  0.3821970000000  0.6113000000000  0.4771200000000 1.0
C      1  0.5176830000000  0.4387180000000  0.4399420000000 1.0
C      1  0.6177470000000  0.4739930000000  0.4508050000000 1.0
C      1  0.4766630000000  0.3446280000000  0.4424040000000 1.0
C      1  0.5088940000000  0.4651040000000  0.5509320000000 1.0
C      1  0.5352710000000  0.4277440000000  0.5301980000000 1.0
C      1  0.5616400000000  0.4916810000000  0.5728000000000 1.0
C      1  0.5774030000000  0.5167570000000  0.5686620000000 1.0
C      1  0.5838610000000  0.5119240000000  0.4790530000000 1.0
C      1  0.5009930000000  0.5866990000000  0.4971190000000 1.0
C      1  0.4947100000000  0.5719310000000  0.4036050000000 1.0
C      1  0.5671830000000  0.5406850000000  0.3969910000000 1.0
C      1  0.5912290000000  0.5718470000000  0.5373710000000 1.0
C      1  0.5352040000000  0.5528490000000  0.4862580000000 1.0
C      1  0.4607500000000  0.4827540000000  0.5424070000000 1.0
C      1  0.3941170000000  0.5461120000000  0.4580870000000 1.0
C      1  0.5375620000000  0.4499890000000  0.5510200000000 1.0
C      1  0.5932480000000  0.5196810000000  0.5440040000000 1.0
C      1  0.3999810000000  0.5196590000000  0.4597730000000 1.0
C      1  0.5441330000000  0.5838740000000  0.5657020000000 1.0
C      1  0.5410670000000  0.6249510000000  0.4665160000000 1.0
C      1  0.4924340000000  0.5058410000000  0.4894270000000 1.0
C      1  0.5243400000000  0.3754370000000  0.4882140000000 1.0
C      1  0.5766630000000  0.4202030000000  0.4971240000000 1.0
C      1  0.5012020000000  0.5356780000000  0.5381030000000 1.0
C      1  0.4035480000000  0.5730540000000  0.4569370000000 1.0
C      1  0.5139400000000  0.3996750000000  0.5742600000000 1.0
C      1  0.4951810000000  0.3872870000000  0.4005600000000 1.0
C      1  0.4624310000000  0.6414440000000  0.5282730000000 1.0
C      1  0.5207390000000  0.4397150000000  0.6109070000000 1.0
C      1  0.5191930000000  0.5095910000000  0.4941710000000 1.0
C      1  0.4977980000000  0.4056250000000  0.5515920000000 1.0
C      1  0.3969180000000  0.5202430000000  0.5435490000000 1.0
C      1  0.4844360000000  0.4272630000000  0.5094390000000 1.0
C      1  0.5696810000000  0.5439310000000  0.5740700000000 1.0
C      1  0.5196120000000  0.4300630000000  0.4126260000000 1.0
C      1  0.4835010000000  0.5514700000000  0.5977350000000 1.0
C      1  0.5853930000000  0.4490650000000  0.5641720000000 1.0
C      1  0.4530430000000  0.3901170000000  0.5412850000000 1.0
C      1  0.4700670000000  0.4470210000000  0.4915480000000 1.0
C      1  0.4700000000000  0.4082540000000  0.5541600000000 1.0
C      1  0.4999010000000  0.4606080000000  0.4484740000000 1.0
C      1  0.4499360000000  0.6033220000000  0.4970240000000 1.0
C      1  0.4675840000000  0.5011310000000  0.6002290000000 1.0
C      1  0.6186840000000  0.4497550000000  0.4936780000000 1.0
C      1  0.4257480000000  0.4773210000000  0.6066870000000 1.0
C      1  0.5028240000000  0.6095870000000  0.4374330000000 1.0
C      1  0.5544370000000  0.5190150000000  0.3860280000000 1.0
C      1  0.4332310000000  0.4764610000000  0.4455850000000 1.0
C      1  0.4470900000000  0.5633110000000  0.4408250000000 1.0
C      1  0.5261520000000  0.4919700000000  0.6090280000000 1.0
C      1  0.4681640000000  0.5713840000000  0.5275130000000 1.0
C      1  0.4583660000000  0.5866020000000  0.5488870000000 1.0
C      1  0.5968780000000  0.5794320000000  0.4849080000000 1.0
C      1  0.5808570000000  0.5374560000000  0.4898270000000 1.0
C      1  0.5729490000000  0.4334810000000  0.4188410000000 1.0
C      1  0.5177830000000  0.6256250000000  0.4532540000000 1.0
C      1  0.5791140000000  0.4856980000000  0.4788700000000 1.0
C      1  0.5168210000000  0.4184110000000  0.5952290000000 1.0
C      1  0.5971150000000  0.4821390000000  0.4357630000000 1.0
C      1  0.5658070000000  0.4296700000000  0.4466200000000 1.0
C      1  0.4081200000000  0.5804620000000  0.5499470000000 1.0
C      1  0.6821990000000  0.4817370000000  0.4819760000000 1.0
C      1  0.4365620000000  0.4374650000000  0.5733600000000 1.0
C      1  0.4529230000000  0.5281510000000  0.5289830000000 1.0
C      1  0.6315480000000  0.4651220000000  0.4737980000000 1.0
C      1  0.5078420000000  0.5069140000000  0.4234740000000 1.0
C      1  0.5243560000000  0.4653100000000  0.6180270000000 1.0
C      1  0.5102850000000  0.5134490000000  0.6179690000000 1.0
C      1  0.3975000000000  0.4998860000000  0.5017540000000 1.0
C      1  0.4089940000000  0.4985220000000  0.4768450000000 1.0
C      1  0.5317610000000  0.5721710000000  0.5899240000000 1.0
C      1  0.4417070000000  0.4705850000000  0.5241310000000 1.0
C      1  0.5995730000000  0.4345890000000  0.5048140000000 1.0
C      1  0.5107430000000  0.5827680000000  0.4267990000000 1.0
C      1  0.5144040000000  0.5324480000000  0.4361260000000 1.0
C      1  0.5161510000000  0.4841860000000  0.4401930000000 1.0
C      1  0.4066400000000  0.4359960000000  0.4622870000000 1.0
C      1  0.3828090000000  0.4804020000000  0.5178530000000 1.0
C      1  0.5134450000000  0.5690090000000  0.4766260000000 1.0
C      1  0.4479880000000  0.5084270000000  0.5479100000000 1.0
C      1  0.4145340000000  0.5686580000000  0.5730940000000 1.0
C      1  0.4620860000000  0.4342270000000  0.5605990000000 1.0
C      1  0.4580230000000  0.5164590000000  0.4518700000000 1.0
C      1  0.5433830000000  0.4477760000000  0.4544840000000 1.0
C      1  0.4499080000000  0.5422780000000  0.4591070000000 1.0
C      1  0.6062290000000  0.5453800000000  0.5355010000000 1.0
C      1  0.5143980000000  0.5107620000000  0.5409720000000 1.0
C      1  0.4615160000000  0.5311920000000  0.3951460000000 1.0
C      1  0.5454000000000  0.4664270000000  0.3886780000000 1.0
C      1  0.4487230000000  0.5100360000000  0.4064110000000 1.0
C      1  0.4559580000000  0.4098130000000  0.4224970000000 1.0
C      1  0.4198050000000  0.4118110000000  0.4564120000000 1.0
C      1  0.4781440000000  0.4629270000000  0.5601290000000 1.0
C      1  0.4443920000000  0.4012810000000  0.4474750000000 1.0
C      1  0.4693310000000  0.3900980000000  0.4072180000000 1.0
C      1  0.5039180000000  0.3711090000000  0.4717700000000 1.0
C      1  0.5267880000000  0.3749340000000  0.5758640000000 1.0
C      1  0.4064640000000  0.5233260000000  0.5164200000000 1.0
C      1  0.5162420000000  0.5971470000000  0.5210010000000 1.0
C      1  0.4024540000000  0.5927580000000  0.4776010000000 1.0
C      1  0.4702070000000  0.6323440000000  0.5524950000000 1.0
C      1  0.4242040000000  0.5772360000000  0.4379760000000 1.0
C      1  0.4111480000000  0.4827860000000  0.5634290000000 1.0
C      1  0.5598820000000  0.4730530000000  0.4947250000000 1.0
C      1  0.5455220000000  0.4766140000000  0.4414290000000 1.0
C      1  0.5620040000000  0.4635450000000  0.5621160000000 1.0
C      1  0.3953140000000  0.4403870000000  0.4888060000000 1.0
C      1  0.5653180000000  0.5660600000000  0.5527330000000 1.0
C      1  0.4985410000000  0.5945680000000  0.5694190000000 1.0
C      1  0.4306050000000  0.5514960000000  0.5885830000000 1.0
C      1  0.4322670000000  0.5338510000000  0.5102030000000 1.0
C      1  0.5097000000000  0.4962540000000  0.3964800000000 1.0
END
