TITL C-627113-6568-1322 -65.2014546054072 125000 -380.291373485476 0 0 65 (C1) n - 1
REM
REM in /home/nfs/bkarasulu/CARBON/AIRSS/Generating-Clusters/LCBOP/Only-C1/SD-CG/FIRE-CG
REM
REM
REM
REM
REM
REM ./C.cell (11c1c37f851c82e70ff6c80c92926a4b)
REM AIRSS Version 0.9.1 bugfix July 2018 build 013d7b7c2542+ Fri, 06 Jul 2018 19:26:36 +0100
REM compiler GCC version 9.2.1 20190827 (Red Hat 9.2.1-1)
REM options -cpp -mtune=generic -march=x86-64 -g -O0 -fpre-include=/usr/include/finclude/math-vector-fortran.h
REM seed -314630224 891374460 -1844187687 1131183580 2044916850 -162861513 -495447686 1009163978 -311664333 1689115472 1812831954 805555354 649870138 -1953849564 793033994 -1752019097 678198374 2007881609 -1219250319 515345336 1937253203 1151332828 -825172365 1204111666 -2086713241 -1301718247 2083211040 -1768491785 2102864946 1297309 -832859945 -1828241361 -1184304600
REM
CELL 1.54180   50.00000   50.00000   50.00000   90.00000   90.00000   90.00000
LATT -1
SFAC C  
C      1  0.4263110000000  0.5623530000000  0.5364350000000 1.0
C      1  0.4645320000000  0.6264130000000  0.5332360000000 1.0
C      1  0.5651900000000  0.5525220000000  0.5626330000000 1.0
C      1  0.4988760000000  0.5184230000000  0.4056370000000 1.0
C      1  0.5124850000000  0.4825210000000  0.5266950000000 1.0
C      1  0.4908040000000  0.6285030000000  0.4611840000000 1.0
C      1  0.5164090000000  0.4600280000000  0.4590750000000 1.0
C      1  0.4477970000000  0.5053960000000  0.4710250000000 1.0
C      1  0.5563930000000  0.4625200000000  0.5418420000000 1.0
C      1  0.5294470000000  0.5137830000000  0.4921640000000 1.0
C      1  0.4357630000000  0.5054880000000  0.4450080000000 1.0
C      1  0.5589450000000  0.5313420000000  0.5487950000000 1.0
C      1  0.4982180000000  0.4520970000000  0.4778750000000 1.0
C      1  0.5688860000000  0.4855120000000  0.5314160000000 1.0
C      1  0.5188020000000  0.6264630000000  0.4615830000000 1.0
C      1  0.5397530000000  0.3965510000000  0.6037030000000 1.0
C      1  0.4539120000000  0.5150780000000  0.4254140000000 1.0
C      1  0.5125210000000  0.5597530000000  0.4439660000000 1.0
C      1  0.4419960000000  0.5811000000000  0.5242550000000 1.0
C      1  0.5366450000000  0.3960680000000  0.6566020000000 1.0
C      1  0.5428930000000  0.3736200000000  0.5612330000000 1.0
C      1  0.4858060000000  0.4783940000000  0.5176560000000 1.0
C      1  0.5300330000000  0.5791610000000  0.4493930000000 1.0
C      1  0.5524100000000  0.5089060000000  0.5339450000000 1.0
C      1  0.5379210000000  0.5028340000000  0.4674700000000 1.0
C      1  0.4728660000000  0.4921500000000  0.4719370000000 1.0
C      1  0.5458920000000  0.3278610000000  0.5318420000000 1.0
C      1  0.4642090000000  0.4807400000000  0.5351000000000 1.0
C      1  0.5849970000000  0.4846720000000  0.5083760000000 1.0
C      1  0.4819180000000  0.4720940000000  0.4902200000000 1.0
C      1  0.4920350000000  0.5002240000000  0.4513750000000 1.0
C      1  0.4098690000000  0.4971840000000  0.4397740000000 1.0
C      1  0.4572940000000  0.6013120000000  0.4804370000000 1.0
C      1  0.5281660000000  0.5055480000000  0.5190290000000 1.0
C      1  0.5141070000000  0.5158970000000  0.3846600000000 1.0
C      1  0.4512920000000  0.6036440000000  0.5384420000000 1.0
C      1  0.5518180000000  0.3293170000000  0.5051490000000 1.0
C      1  0.5188030000000  0.4372120000000  0.5526550000000 1.0
C      1  0.5351140000000  0.3958680000000  0.6826270000000 1.0
C      1  0.4435920000000  0.4843690000000  0.5506190000000 1.0
C      1  0.5413720000000  0.3973940000000  0.5758250000000 1.0
C      1  0.4739980000000  0.6247490000000  0.4847210000000 1.0
C      1  0.5266970000000  0.4617950000000  0.5398740000000 1.0
C      1  0.5382010000000  0.3962730000000  0.6301430000000 1.0
C      1  0.5823660000000  0.4907280000000  0.4824040000000 1.0
C      1  0.5657430000000  0.5005400000000  0.4618360000000 1.0
C      1  0.5179620000000  0.4880510000000  0.4535720000000 1.0
C      1  0.4776680000000  0.6123080000000  0.4406710000000 1.0
C      1  0.3600930000000  0.4814880000000  0.4305960000000 1.0
C      1  0.4653000000000  0.5626330000000  0.4554570000000 1.0
C      1  0.4831940000000  0.5209780000000  0.4306170000000 1.0
C      1  0.4866010000000  0.5484800000000  0.4429280000000 1.0
C      1  0.5414690000000  0.4219720000000  0.5625620000000 1.0
C      1  0.3356000000000  0.4737710000000  0.4261000000000 1.0
C      1  0.4625100000000  0.5911890000000  0.4525260000000 1.0
C      1  0.4449400000000  0.5289520000000  0.4860970000000 1.0
C      1  0.4744890000000  0.6361270000000  0.5101980000000 1.0
C      1  0.5642360000000  0.4384850000000  0.5553310000000 1.0
C      1  0.5338780000000  0.6047380000000  0.4564020000000 1.0
C      1  0.4529310000000  0.5551750000000  0.4810490000000 1.0
C      1  0.5414560000000  0.3036770000000  0.5438920000000 1.0
C      1  0.3849960000000  0.4893320000000  0.4351670000000 1.0
C      1  0.5759080000000  0.5078370000000  0.4375590000000 1.0
C      1  0.5443510000000  0.3513560000000  0.5469790000000 1.0
C      1  0.4493200000000  0.5790500000000  0.4970100000000 1.0
END
