TITL C-627113-6568-1506 -1.66008214475792e-07 125000 -666.856079877338 0 0 112 (C1) n - 1
REM
REM in /home/nfs/bkarasulu/CARBON/AIRSS/Generating-Clusters/LCBOP/Only-C1/SD-CG/FIRE-CG
REM
REM
REM
REM
REM
REM ./C.cell (11c1c37f851c82e70ff6c80c92926a4b)
REM AIRSS Version 0.9.1 bugfix July 2018 build 013d7b7c2542+ Fri, 06 Jul 2018 19:26:36 +0100
REM compiler GCC version 9.2.1 20190827 (Red Hat 9.2.1-1)
REM options -cpp -mtune=generic -march=x86-64 -g -O0 -fpre-include=/usr/include/finclude/math-vector-fortran.h
REM seed -1804148328 1148203203 60527097 751608398 32160452 1996361433 -164980256 589265345 1230679414 -1149844969 1734606467 2034183672 -1324852886 599429922 1412640590 -1783076677 -664149073 -704829233 1882931182 1288596569 387224433 -565830514 214898342 1412791403 -346907263 -1486284914 647181201 1729043720 -301162069 -1954478094 1105092638 -103496694 1995437110
REM
CELL 1.54180   50.00000   50.00000   50.00000   90.00000   90.00000   90.00000
LATT -1
SFAC C  
C      1  0.4152740000000  0.5460520000000  0.5062380000000 1.0
C      1  0.5450920000000  0.5316690000000  0.4091070000000 1.0
C      1  0.4787030000000  0.3965050000000  0.5125100000000 1.0
C      1  0.4650900000000  0.5834630000000  0.4786180000000 1.0
C      1  0.5259710000000  0.5109320000000  0.4063240000000 1.0
C      1  0.4567730000000  0.5669790000000  0.4560030000000 1.0
C      1  0.4740840000000  0.5875700000000  0.5980410000000 1.0
C      1  0.5321000000000  0.4258390000000  0.5547830000000 1.0
C      1  0.4341370000000  0.5497570000000  0.4562880000000 1.0
C      1  0.4268260000000  0.5465440000000  0.5329450000000 1.0
C      1  0.5391580000000  0.5290630000000  0.5120320000000 1.0
C      1  0.5792170000000  0.5046110000000  0.4735830000000 1.0
C      1  0.5565430000000  0.4370640000000  0.5412990000000 1.0
C      1  0.4607460000000  0.5074620000000  0.4534260000000 1.0
C      1  0.4775050000000  0.4315350000000  0.5519710000000 1.0
C      1  0.5048260000000  0.5069170000000  0.4680430000000 1.0
C      1  0.4719140000000  0.5565680000000  0.5232480000000 1.0
C      1  0.5706610000000  0.4503370000000  0.4665370000000 1.0
C      1  0.5606240000000  0.5468760000000  0.4247220000000 1.0
C      1  0.4142310000000  0.5438930000000  0.4777490000000 1.0
C      1  0.5191100000000  0.5638640000000  0.4644470000000 1.0
C      1  0.4787320000000  0.5630860000000  0.5863590000000 1.0
C      1  0.5622110000000  0.4622420000000  0.5545000000000 1.0
C      1  0.5685710000000  0.4368190000000  0.4899840000000 1.0
C      1  0.4839530000000  0.3975180000000  0.4356150000000 1.0
C      1  0.5167450000000  0.4827280000000  0.5124700000000 1.0
C      1  0.5478360000000  0.5667810000000  0.4695680000000 1.0
C      1  0.5369320000000  0.4825600000000  0.4059420000000 1.0
C      1  0.4002770000000  0.5190780000000  0.4391620000000 1.0
C      1  0.5100850000000  0.4922740000000  0.5391340000000 1.0
C      1  0.4304220000000  0.4838660000000  0.4873290000000 1.0
C      1  0.5124270000000  0.5080280000000  0.5849610000000 1.0
C      1  0.5140420000000  0.4361040000000  0.4237320000000 1.0
C      1  0.4747480000000  0.3942020000000  0.4855160000000 1.0
C      1  0.5779310000000  0.5286850000000  0.5618910000000 1.0
C      1  0.4304540000000  0.4509460000000  0.5392220000000 1.0
C      1  0.4884840000000  0.5147710000000  0.4872800000000 1.0
C      1  0.4592260000000  0.4478260000000  0.5373200000000 1.0
C      1  0.5613330000000  0.4783960000000  0.4217640000000 1.0
C      1  0.4127890000000  0.4470960000000  0.5159020000000 1.0
C      1  0.5194930000000  0.4454610000000  0.5722080000000 1.0
C      1  0.5886170000000  0.5470330000000  0.5087040000000 1.0
C      1  0.4800170000000  0.6088390000000  0.4828040000000 1.0
C      1  0.5125440000000  0.5872300000000  0.4219230000000 1.0
C      1  0.4722900000000  0.4069890000000  0.4596920000000 1.0
C      1  0.5295130000000  0.4691920000000  0.4527150000000 1.0
C      1  0.5920230000000  0.5050940000000  0.5545230000000 1.0
C      1  0.5010700000000  0.4113460000000  0.4196460000000 1.0
C      1  0.5469890000000  0.5419030000000  0.5943390000000 1.0
C      1  0.4693090000000  0.4495780000000  0.5103580000000 1.0
C      1  0.4904760000000  0.4889430000000  0.4239470000000 1.0
C      1  0.4426750000000  0.4987650000000  0.5079420000000 1.0
C      1  0.4710640000000  0.4683470000000  0.5839430000000 1.0
C      1  0.3937560000000  0.5282460000000  0.4643430000000 1.0
C      1  0.5601000000000  0.5516680000000  0.5180170000000 1.0
C      1  0.4792940000000  0.5300790000000  0.4332080000000 1.0
C      1  0.4865490000000  0.5093350000000  0.5735600000000 1.0
C      1  0.4443620000000  0.5904130000000  0.5453870000000 1.0
C      1  0.4530360000000  0.4563950000000  0.4506060000000 1.0
C      1  0.4788300000000  0.5571110000000  0.4400630000000 1.0
C      1  0.5720270000000  0.5303580000000  0.5901580000000 1.0
C      1  0.5574400000000  0.4673910000000  0.4480000000000 1.0
C      1  0.5048450000000  0.6112130000000  0.4962450000000 1.0
C      1  0.5360470000000  0.4061760000000  0.5128690000000 1.0
C      1  0.5384020000000  0.4679740000000  0.5704420000000 1.0
C      1  0.4979870000000  0.5157480000000  0.4154920000000 1.0
C      1  0.5219310000000  0.4570120000000  0.4046020000000 1.0
C      1  0.4480090000000  0.5653330000000  0.5354020000000 1.0
C      1  0.4470120000000  0.4821960000000  0.4637670000000 1.0
C      1  0.4948920000000  0.4589470000000  0.4982260000000 1.0
C      1  0.5598200000000  0.5500550000000  0.5495260000000 1.0
C      1  0.4623670000000  0.4850830000000  0.4144000000000 1.0
C      1  0.4427510000000  0.5078020000000  0.4139330000000 1.0
C      1  0.5049160000000  0.5575550000000  0.5776370000000 1.0
C      1  0.4564500000000  0.5447890000000  0.5851510000000 1.0
C      1  0.4311900000000  0.5001480000000  0.5333630000000 1.0
C      1  0.5491070000000  0.5752130000000  0.4990040000000 1.0
C      1  0.4899260000000  0.5368010000000  0.5327540000000 1.0
C      1  0.5056010000000  0.5667860000000  0.4896430000000 1.0
C      1  0.4297530000000  0.5227630000000  0.5499610000000 1.0
C      1  0.6192250000000  0.5043930000000  0.5583760000000 1.0
C      1  0.4959140000000  0.4456710000000  0.4715000000000 1.0
C      1  0.5081940000000  0.4875040000000  0.4482260000000 1.0
C      1  0.5256490000000  0.4919460000000  0.5647220000000 1.0
C      1  0.5163320000000  0.4444200000000  0.4517320000000 1.0
C      1  0.5156540000000  0.5396280000000  0.5228230000000 1.0
C      1  0.4664280000000  0.5112190000000  0.5014090000000 1.0
C      1  0.4086140000000  0.4685280000000  0.4974050000000 1.0
C      1  0.5396180000000  0.5585570000000  0.5700800000000 1.0
C      1  0.5186370000000  0.4092490000000  0.5359430000000 1.0
C      1  0.4901340000000  0.4098870000000  0.5355120000000 1.0
C      1  0.4620870000000  0.4968090000000  0.5812800000000 1.0
C      1  0.4785680000000  0.5663340000000  0.4977400000000 1.0
C      1  0.5657500000000  0.4933330000000  0.4953190000000 1.0
C      1  0.4517980000000  0.4599870000000  0.4224690000000 1.0
C      1  0.5395860000000  0.5011450000000  0.5034960000000 1.0
C      1  0.5986060000000  0.5120060000000  0.4577530000000 1.0
C      1  0.5642080000000  0.5594860000000  0.4481750000000 1.0
C      1  0.4710470000000  0.4361040000000  0.4601870000000 1.0
C      1  0.5571000000000  0.4266920000000  0.5138360000000 1.0
C      1  0.5810750000000  0.4810530000000  0.5152040000000 1.0
C      1  0.5042760000000  0.5697260000000  0.4411130000000 1.0
C      1  0.4250940000000  0.4254830000000  0.5018570000000 1.0
C      1  0.5348410000000  0.3863900000000  0.4942190000000 1.0
C      1  0.4899810000000  0.4471920000000  0.5732290000000 1.0
C      1  0.5794000000000  0.4819720000000  0.5432490000000 1.0
C      1  0.4437540000000  0.5201780000000  0.5757070000000 1.0
C      1  0.4265670000000  0.5258330000000  0.4304200000000 1.0
C      1  0.4512680000000  0.4310100000000  0.4972240000000 1.0
C      1  0.5215250000000  0.5304790000000  0.5982030000000 1.0
C      1  0.4887360000000  0.5117150000000  0.5452150000000 1.0
C      1  0.5220720000000  0.5882570000000  0.5023030000000 1.0
END
