TITL C-627113-6568-1425 -0.000104434894437679 125000 -192.321298755981 0 0 32 (C1) n - 1
REM
REM in /home/nfs/bkarasulu/CARBON/AIRSS/Generating-Clusters/LCBOP/Only-C1/SD-CG/FIRE-CG
REM
REM
REM
REM
REM
REM ./C.cell (11c1c37f851c82e70ff6c80c92926a4b)
REM AIRSS Version 0.9.1 bugfix July 2018 build 013d7b7c2542+ Fri, 06 Jul 2018 19:26:36 +0100
REM compiler GCC version 9.2.1 20190827 (Red Hat 9.2.1-1)
REM options -cpp -mtune=generic -march=x86-64 -g -O0 -fpre-include=/usr/include/finclude/math-vector-fortran.h
REM seed 1390924515 1535865879 1142668975 1315552988 1794901626 1195119973 -926360909 1821441099 -476586863 -2009303194 -497624353 2025026734 1524582853 681022174 -1444714003 1736326203 773123565 -277805227 584445773 -1696961798 1606307755 1494006242 -1592632365 -1148733461 -435230466 1156139733 1882388938 1594446952 -222925937 -157717101 1289209342 -213963769 1256977598
REM
CELL 1.54180   50.00000   50.00000   50.00000   90.00000   90.00000   90.00000
LATT -1
SFAC C  
C      1  0.5769110000000  0.4796460000000  0.5503490000000 1.0
C      1  0.5245180000000  0.4832940000000  0.4779640000000 1.0
C      1  0.4711440000000  0.4623000000000  0.5046120000000 1.0
C      1  0.5157300000000  0.5396660000000  0.5127750000000 1.0
C      1  0.4940930000000  0.4747170000000  0.5148500000000 1.0
C      1  0.5520420000000  0.4824290000000  0.4823770000000 1.0
C      1  0.4307990000000  0.5247520000000  0.4166190000000 1.0
C      1  0.5062330000000  0.4669930000000  0.5387710000000 1.0
C      1  0.4531460000000  0.5421770000000  0.4757240000000 1.0
C      1  0.4997880000000  0.5214130000000  0.4988050000000 1.0
C      1  0.5322810000000  0.5527320000000  0.5288740000000 1.0
C      1  0.5069950000000  0.4939250000000  0.4979720000000 1.0
C      1  0.5829550000000  0.4771690000000  0.5230370000000 1.0
C      1  0.4518300000000  0.4626840000000  0.4842030000000 1.0
C      1  0.4500430000000  0.5693400000000  0.4754390000000 1.0
C      1  0.4250110000000  0.4675340000000  0.4912690000000 1.0
C      1  0.5518960000000  0.5567470000000  0.5463430000000 1.0
C      1  0.4463000000000  0.4859880000000  0.4414480000000 1.0
C      1  0.4095670000000  0.4894970000000  0.4920600000000 1.0
C      1  0.5274460000000  0.4636520000000  0.5544640000000 1.0
C      1  0.4871970000000  0.4620720000000  0.4501690000000 1.0
C      1  0.4364980000000  0.5123170000000  0.4402090000000 1.0
C      1  0.4327970000000  0.5252300000000  0.4654270000000 1.0
C      1  0.5119460000000  0.4697950000000  0.4567860000000 1.0
C      1  0.4130630000000  0.5143150000000  0.4823400000000 1.0
C      1  0.5860440000000  0.5266820000000  0.5691650000000 1.0
C      1  0.5718550000000  0.5479410000000  0.5615910000000 1.0
C      1  0.5730310000000  0.4792330000000  0.4984020000000 1.0
C      1  0.4764750000000  0.5304700000000  0.4861090000000 1.0
C      1  0.5533920000000  0.4672230000000  0.5593300000000 1.0
C      1  0.5883850000000  0.5003900000000  0.5652440000000 1.0
C      1  0.4605880000000  0.4676780000000  0.4572710000000 1.0
END
