TITL C-627112-676-1879 2.40580498727474 125000 -272.37289271485 0 0 47 (C1) n - 1
REM
REM in /home/nfs/bkarasulu/CARBON/AIRSS/Generating-Clusters/LCBOP/Only-C1/SD-CG/FIRE-CG
REM
REM
REM
REM
REM
REM ./C.cell (11c1c37f851c82e70ff6c80c92926a4b)
REM AIRSS Version 0.9.1 bugfix July 2018 build 013d7b7c2542+ Fri, 06 Jul 2018 19:26:36 +0100
REM compiler GCC version 9.2.1 20190827 (Red Hat 9.2.1-1)
REM options -cpp -mtune=generic -march=x86-64 -g -O0 -fpre-include=/usr/include/finclude/math-vector-fortran.h
REM seed 186483148 142092147 1535075484 -1021880118 891150444 254704716 1999932517 930158007 -1603331270 2075065693 -973957568 2142315831 -2073492841 -531692138 109971390 -1057636312 1372940490 -764347780 2022760321 364937454 1097320122 1908422817 1579225601 -1987319387 -887177116 503756570 -1181343711 -1306487638 777009510 1686985874 -2030293788 -1063690428 1284168246
REM
CELL 1.54180   50.00000   50.00000   50.00000   90.00000   90.00000   90.00000
LATT -1
SFAC C  
C      1  0.5797710000000  0.4872960000000  0.5416990000000 1.0
C      1  0.4337680000000  0.5197110000000  0.5393890000000 1.0
C      1  0.5486790000000  0.4209710000000  0.5515130000000 1.0
C      1  0.5355350000000  0.5056010000000  0.6065300000000 1.0
C      1  0.4963050000000  0.4716940000000  0.5471760000000 1.0
C      1  0.4499120000000  0.4438140000000  0.4374580000000 1.0
C      1  0.5361590000000  0.5393850000000  0.5147590000000 1.0
C      1  0.4767010000000  0.4894370000000  0.5456420000000 1.0
C      1  0.5594520000000  0.5719250000000  0.4681920000000 1.0
C      1  0.5102350000000  0.4704980000000  0.4723770000000 1.0
C      1  0.4424760000000  0.4181280000000  0.4294440000000 1.0
C      1  0.5202300000000  0.4548430000000  0.4932140000000 1.0
C      1  0.3891450000000  0.5458150000000  0.5299590000000 1.0
C      1  0.4306130000000  0.5343330000000  0.4643710000000 1.0
C      1  0.5077610000000  0.4981050000000  0.4757580000000 1.0
C      1  0.5577390000000  0.4503820000000  0.3896470000000 1.0
C      1  0.4109820000000  0.5326260000000  0.5353240000000 1.0
C      1  0.4818620000000  0.5804680000000  0.5304660000000 1.0
C      1  0.5216010000000  0.4554470000000  0.4274780000000 1.0
C      1  0.5260960000000  0.5320460000000  0.5621060000000 1.0
C      1  0.5348470000000  0.5614230000000  0.4713230000000 1.0
C      1  0.4197400000000  0.5129810000000  0.4529250000000 1.0
C      1  0.4356230000000  0.3941270000000  0.4219460000000 1.0
C      1  0.5305680000000  0.5188240000000  0.5846230000000 1.0
C      1  0.5037600000000  0.5675750000000  0.5382230000000 1.0
C      1  0.5398020000000  0.4528840000000  0.4083980000000 1.0
C      1  0.5274790000000  0.4449000000000  0.5178960000000 1.0
C      1  0.5720520000000  0.5088520000000  0.5292540000000 1.0
C      1  0.5639410000000  0.5322600000000  0.5164900000000 1.0
C      1  0.5220410000000  0.5463860000000  0.5384790000000 1.0
C      1  0.5826500000000  0.5490560000000  0.5036550000000 1.0
C      1  0.4765130000000  0.4493800000000  0.4440220000000 1.0
C      1  0.4561190000000  0.5058070000000  0.5424160000000 1.0
C      1  0.4202040000000  0.4879520000000  0.4440880000000 1.0
C      1  0.5296660000000  0.4378780000000  0.5652160000000 1.0
C      1  0.5251010000000  0.4393540000000  0.5918810000000 1.0
C      1  0.4519970000000  0.5470310000000  0.4769670000000 1.0
C      1  0.4776030000000  0.5358040000000  0.4749460000000 1.0
C      1  0.4608730000000  0.5816250000000  0.5141260000000 1.0
C      1  0.5813200000000  0.5662220000000  0.4829440000000 1.0
C      1  0.5163860000000  0.4528900000000  0.5438460000000 1.0
C      1  0.4308400000000  0.4641970000000  0.4389780000000 1.0
C      1  0.5026890000000  0.4583530000000  0.4478270000000 1.0
C      1  0.5473960000000  0.4250040000000  0.5242100000000 1.0
C      1  0.5238600000000  0.5422410000000  0.4889320000000 1.0
C      1  0.5029370000000  0.5252550000000  0.4801380000000 1.0
C      1  0.4489710000000  0.5692140000000  0.4937500000000 1.0
END
