TITL C-627108-131-226 0.00183967723616414 125000 -481.211674311453 0 0 80 (C1) n - 1
REM
REM in /home/nfs/bkarasulu/CARBON/AIRSS/Generating-Clusters/LCBOP/Only-C1/SD-CG/FIRE-CG
REM
REM
REM
REM
REM
REM ./C.cell (11c1c37f851c82e70ff6c80c92926a4b)
REM AIRSS Version 0.9.1 bugfix July 2018 build 013d7b7c2542+ Fri, 06 Jul 2018 19:26:36 +0100
REM compiler GCC version 9.2.1 20190827 (Red Hat 9.2.1-1)
REM options -cpp -mtune=generic -march=x86-64 -g -O0 -fpre-include=/usr/include/finclude/math-vector-fortran.h
REM seed 1577952669 1971211696 717919862 1532886455 -496510235 -1665739715 115571066 129329266 -1557935381 -726748272 -91909865 1902138188 838599974 -1385073265 278064867 -1971145557 -1367756871 895149123 453224094 -32162441 -578717150 799388439 -454252582 -121376477 1275146257 -386618383 -1994386048 -1939517465 -467733774 -812729429 1277259163 124545610 -1414456311
REM
CELL 1.54180   50.00000   50.00000   50.00000   90.00000   90.00000   90.00000
LATT -1
SFAC C  
C      1  0.4416380000000  0.5659620000000  0.5542200000000 1.0
C      1  0.5782990000000  0.5234470000000  0.5189400000000 1.0
C      1  0.5859690000000  0.5285770000000  0.5467560000000 1.0
C      1  0.5663180000000  0.5722750000000  0.4618060000000 1.0
C      1  0.5478880000000  0.4496740000000  0.5174130000000 1.0
C      1  0.5759980000000  0.4863580000000  0.4813230000000 1.0
C      1  0.4134550000000  0.4997380000000  0.4978160000000 1.0
C      1  0.3947210000000  0.4623240000000  0.5592980000000 1.0
C      1  0.5066820000000  0.5660240000000  0.5432490000000 1.0
C      1  0.5111590000000  0.4736370000000  0.4628560000000 1.0
C      1  0.5618410000000  0.5678050000000  0.4340540000000 1.0
C      1  0.5251270000000  0.4311580000000  0.4781510000000 1.0
C      1  0.4822700000000  0.5541900000000  0.4938050000000 1.0
C      1  0.4898680000000  0.4731500000000  0.4207850000000 1.0
C      1  0.5069140000000  0.4997280000000  0.5817500000000 1.0
C      1  0.4619570000000  0.5317450000000  0.4919480000000 1.0
C      1  0.5813230000000  0.5527650000000  0.4772900000000 1.0
C      1  0.5741460000000  0.5492930000000  0.5047310000000 1.0
C      1  0.4173690000000  0.5045390000000  0.5454240000000 1.0
C      1  0.4056040000000  0.4109880000000  0.4528800000000 1.0
C      1  0.4546410000000  0.5551940000000  0.5328240000000 1.0
C      1  0.5602240000000  0.4644480000000  0.4686790000000 1.0
C      1  0.5395730000000  0.4917720000000  0.5479230000000 1.0
C      1  0.3837440000000  0.3678930000000  0.4321620000000 1.0
C      1  0.4229120000000  0.5154810000000  0.5194280000000 1.0
C      1  0.4580620000000  0.4570930000000  0.4738860000000 1.0
C      1  0.5450640000000  0.5867140000000  0.4737860000000 1.0
C      1  0.4715260000000  0.4945620000000  0.4266820000000 1.0
C      1  0.5186800000000  0.5822250000000  0.4764900000000 1.0
C      1  0.5182190000000  0.4823310000000  0.4201040000000 1.0
C      1  0.4993500000000  0.5620300000000  0.4715480000000 1.0
C      1  0.5673490000000  0.4965990000000  0.5077840000000 1.0
C      1  0.4793550000000  0.4479440000000  0.4293330000000 1.0
C      1  0.5147310000000  0.4809230000000  0.5083950000000 1.0
C      1  0.5485940000000  0.4442390000000  0.4882580000000 1.0
C      1  0.5336220000000  0.4391070000000  0.5407220000000 1.0
C      1  0.4436760000000  0.5348260000000  0.5148510000000 1.0
C      1  0.5942830000000  0.5038890000000  0.4682360000000 1.0
C      1  0.4895740000000  0.4435100000000  0.5658510000000 1.0
C      1  0.4296820000000  0.4551580000000  0.4733150000000 1.0
C      1  0.5456180000000  0.4683140000000  0.4371740000000 1.0
C      1  0.5316800000000  0.5625220000000  0.5272180000000 1.0
C      1  0.3945820000000  0.3892620000000  0.4424360000000 1.0
C      1  0.4634270000000  0.4542130000000  0.5649320000000 1.0
C      1  0.4640240000000  0.5068340000000  0.4772530000000 1.0
C      1  0.5217580000000  0.4798110000000  0.5666350000000 1.0
C      1  0.5013730000000  0.5268960000000  0.5816750000000 1.0
C      1  0.5160040000000  0.4519680000000  0.5603050000000 1.0
C      1  0.4393230000000  0.4404530000000  0.5694320000000 1.0
C      1  0.5080320000000  0.5236750000000  0.5135440000000 1.0
C      1  0.5438750000000  0.4796830000000  0.5207070000000 1.0
C      1  0.4396810000000  0.4984050000000  0.5616940000000 1.0
C      1  0.5042320000000  0.4464100000000  0.4673680000000 1.0
C      1  0.5193400000000  0.5383330000000  0.4246490000000 1.0
C      1  0.5143350000000  0.5059370000000  0.4934320000000 1.0
C      1  0.5024980000000  0.5492680000000  0.4455900000000 1.0
C      1  0.5151330000000  0.5501910000000  0.5697640000000 1.0
C      1  0.5478170000000  0.5451750000000  0.4255900000000 1.0
C      1  0.5574960000000  0.5691080000000  0.5177530000000 1.0
C      1  0.4821700000000  0.5634060000000  0.5243160000000 1.0
C      1  0.5727280000000  0.5413420000000  0.5677060000000 1.0
C      1  0.4686080000000  0.4797330000000  0.4888270000000 1.0
C      1  0.5172200000000  0.5110980000000  0.4145570000000 1.0
C      1  0.5401360000000  0.5196670000000  0.5473280000000 1.0
C      1  0.4875350000000  0.5160630000000  0.5320360000000 1.0
C      1  0.4609670000000  0.4811410000000  0.5555480000000 1.0
C      1  0.5306140000000  0.5339450000000  0.5249930000000 1.0
C      1  0.4772810000000  0.4899290000000  0.5347940000000 1.0
C      1  0.4860180000000  0.4755540000000  0.5118600000000 1.0
C      1  0.3950670000000  0.4878280000000  0.5504480000000 1.0
C      1  0.5962690000000  0.5309700000000  0.4666260000000 1.0
C      1  0.5444440000000  0.5095250000000  0.4561670000000 1.0
C      1  0.5440490000000  0.5396740000000  0.5682950000000 1.0
C      1  0.5215460000000  0.4992540000000  0.4678550000000 1.0
C      1  0.4128180000000  0.4439130000000  0.5668010000000 1.0
C      1  0.4628460000000  0.5071910000000  0.4488310000000 1.0
C      1  0.5586590000000  0.5212190000000  0.4365750000000 1.0
C      1  0.4151190000000  0.4771300000000  0.4835670000000 1.0
C      1  0.4774880000000  0.4429860000000  0.4577430000000 1.0
C      1  0.4167810000000  0.4326580000000  0.4632240000000 1.0
END
