TITL C-627109-622-932 -457.699380533076 125000 -983.675366852882 0 0 161 (C1) n - 1
REM
REM in /home/nfs/bkarasulu/CARBON/AIRSS/Generating-Clusters/LCBOP/Only-C1/SD-CG/FIRE-CG
REM
REM
REM
REM
REM
REM ./C.cell (11c1c37f851c82e70ff6c80c92926a4b)
REM AIRSS Version 0.9.1 bugfix July 2018 build 013d7b7c2542+ Fri, 06 Jul 2018 19:26:36 +0100
REM compiler GCC version 9.2.1 20190827 (Red Hat 9.2.1-1)
REM options -cpp -mtune=generic -march=x86-64 -g -O0 -fpre-include=/usr/include/finclude/math-vector-fortran.h
REM seed -618533266 688117237 307744030 339574158 -1768526725 -1758717969 651495966 1062696190 -1857394 561176042 -1367967197 863961833 -1243942151 -2096471381 534268188 1421902053 -584449611 -287438625 773817489 464788078 767524996 -2080640478 1109411132 500435046 171765991 -1705512641 -180734208 -1014932221 -1502501044 -200373002 204753820 -1195503816 -1000922346
REM
CELL 1.54180   50.00000   50.00000   50.00000   90.00000   90.00000   90.00000
LATT -1
SFAC C  
C      1  0.3934370000000  0.5301690000000  0.4894450000000 1.0
C      1  0.5650000000000  0.5761930000000  0.4887540000000 1.0
C      1  0.4432010000000  0.5305540000000  0.5603160000000 1.0
C      1  0.5089430000000  0.4649880000000  0.6375310000000 1.0
C      1  0.5479620000000  0.5217030000000  0.5818790000000 1.0
C      1  0.4570200000000  0.4918780000000  0.6029130000000 1.0
C      1  0.6320320000000  0.5483510000000  0.5189020000000 1.0
C      1  0.6154290000000  0.5295420000000  0.5259470000000 1.0
C      1  0.3583230000000  0.4596920000000  0.5506060000000 1.0
C      1  0.4939920000000  0.5296910000000  0.6055750000000 1.0
C      1  0.4740580000000  0.6056810000000  0.4750550000000 1.0
C      1  0.6203090000000  0.4797320000000  0.4830450000000 1.0
C      1  0.4291730000000  0.5826690000000  0.5552270000000 1.0
C      1  0.3845290000000  0.4541660000000  0.5433710000000 1.0
C      1  0.4335780000000  0.4677950000000  0.4704270000000 1.0
C      1  0.4716580000000  0.4946690000000  0.4938170000000 1.0
C      1  0.4159510000000  0.5324820000000  0.5516070000000 1.0
C      1  0.4436030000000  0.5534100000000  0.4194610000000 1.0
C      1  0.5347810000000  0.4451820000000  0.5999560000000 1.0
C      1  0.4980270000000  0.4237920000000  0.4206130000000 1.0
C      1  0.6050900000000  0.4949370000000  0.5579940000000 1.0
C      1  0.4508300000000  0.5362790000000  0.5869420000000 1.0
C      1  0.5140930000000  0.4620900000000  0.5545660000000 1.0
C      1  0.5126190000000  0.5616550000000  0.4336910000000 1.0
C      1  0.3964000000000  0.4633670000000  0.5190060000000 1.0
C      1  0.3834640000000  0.5365600000000  0.3856870000000 1.0
C      1  0.5974840000000  0.4878310000000  0.4128540000000 1.0
C      1  0.6010690000000  0.4933900000000  0.4705640000000 1.0
C      1  0.5091660000000  0.4917480000000  0.6344820000000 1.0
C      1  0.4624150000000  0.5385860000000  0.5408280000000 1.0
C      1  0.4914520000000  0.4339910000000  0.4735440000000 1.0
C      1  0.5991960000000  0.5084140000000  0.5342910000000 1.0
C      1  0.4484190000000  0.4775130000000  0.5818420000000 1.0
C      1  0.4290920000000  0.5707980000000  0.4600970000000 1.0
C      1  0.4967100000000  0.5665530000000  0.4562280000000 1.0
C      1  0.6247360000000  0.4470290000000  0.5228600000000 1.0
C      1  0.5474640000000  0.5937700000000  0.4755890000000 1.0
C      1  0.4464140000000  0.5034160000000  0.4335160000000 1.0
C      1  0.4166290000000  0.4910030000000  0.4682460000000 1.0
C      1  0.5509320000000  0.4937190000000  0.4247770000000 1.0
C      1  0.4055960000000  0.5706620000000  0.4411090000000 1.0
C      1  0.4771940000000  0.3586230000000  0.4881660000000 1.0
C      1  0.4600090000000  0.3597920000000  0.5093760000000 1.0
C      1  0.6140550000000  0.4661800000000  0.4197240000000 1.0
C      1  0.4548080000000  0.5445190000000  0.5150360000000 1.0
C      1  0.6045120000000  0.5145960000000  0.4184940000000 1.0
C      1  0.5752660000000  0.5047660000000  0.4710230000000 1.0
C      1  0.4720570000000  0.4992510000000  0.4436880000000 1.0
C      1  0.5235410000000  0.4922480000000  0.4169320000000 1.0
C      1  0.4852780000000  0.4359280000000  0.5233280000000 1.0
C      1  0.4145870000000  0.5567130000000  0.4176520000000 1.0
C      1  0.4658420000000  0.5511860000000  0.4921820000000 1.0
C      1  0.4459090000000  0.6244740000000  0.5371600000000 1.0
C      1  0.5122060000000  0.4462830000000  0.4105190000000 1.0
C      1  0.4945460000000  0.6043360000000  0.5709070000000 1.0
C      1  0.5922490000000  0.4456340000000  0.3487890000000 1.0
C      1  0.5217910000000  0.6033370000000  0.4808690000000 1.0
C      1  0.4340900000000  0.4282960000000  0.5020900000000 1.0
C      1  0.4317530000000  0.5928090000000  0.5039480000000 1.0
C      1  0.4467160000000  0.4339040000000  0.4308240000000 1.0
C      1  0.4195040000000  0.5028280000000  0.4423530000000 1.0
C      1  0.5048870000000  0.4713740000000  0.4219950000000 1.0
C      1  0.5331270000000  0.5696540000000  0.5637800000000 1.0
C      1  0.4015010000000  0.4916080000000  0.5162470000000 1.0
C      1  0.5764640000000  0.5006170000000  0.5193580000000 1.0
C      1  0.5369350000000  0.4461550000000  0.3968640000000 1.0
C      1  0.5588350000000  0.4788180000000  0.5235860000000 1.0
C      1  0.4103720000000  0.5607650000000  0.5531600000000 1.0
C      1  0.5200600000000  0.6203800000000  0.5030890000000 1.0
C      1  0.6072670000000  0.4345740000000  0.5388250000000 1.0
C      1  0.4735000000000  0.4918070000000  0.5432300000000 1.0
C      1  0.3835440000000  0.5664310000000  0.4590340000000 1.0
C      1  0.5334570000000  0.4752380000000  0.5108560000000 1.0
C      1  0.5206290000000  0.4179280000000  0.5593430000000 1.0
C      1  0.5494220000000  0.4709610000000  0.5956110000000 1.0
C      1  0.4605410000000  0.5493420000000  0.3979620000000 1.0
C      1  0.5326140000000  0.4967160000000  0.5903200000000 1.0
C      1  0.6239380000000  0.4334870000000  0.3086340000000 1.0
C      1  0.4571420000000  0.4463390000000  0.5128220000000 1.0
C      1  0.5458580000000  0.5747110000000  0.5373460000000 1.0
C      1  0.4850380000000  0.4738760000000  0.4424010000000 1.0
C      1  0.5117690000000  0.4088960000000  0.4411180000000 1.0
C      1  0.5867610000000  0.5661860000000  0.4738540000000 1.0
C      1  0.4593940000000  0.4677170000000  0.4871510000000 1.0
C      1  0.4187080000000  0.5731400000000  0.4878420000000 1.0
C      1  0.5795730000000  0.4300250000000  0.5421190000000 1.0
C      1  0.5878190000000  0.4241220000000  0.4741140000000 1.0
C      1  0.5329810000000  0.4664070000000  0.4837100000000 1.0
C      1  0.4906340000000  0.5002610000000  0.5638500000000 1.0
C      1  0.5534460000000  0.5626230000000  0.5117140000000 1.0
C      1  0.5680460000000  0.5163550000000  0.4967850000000 1.0
C      1  0.6149540000000  0.4440320000000  0.4346270000000 1.0
C      1  0.5545940000000  0.4964070000000  0.4528460000000 1.0
C      1  0.5135990000000  0.4858700000000  0.5693640000000 1.0
C      1  0.4032000000000  0.5036030000000  0.4902330000000 1.0
C      1  0.4528230000000  0.4757900000000  0.5538520000000 1.0
C      1  0.4416920000000  0.4117190000000  0.5668760000000 1.0
C      1  0.5444120000000  0.5346090000000  0.5033210000000 1.0
C      1  0.6040190000000  0.5370700000000  0.4330870000000 1.0
C      1  0.5410500000000  0.4270770000000  0.5773590000000 1.0
C      1  0.5700800000000  0.4813360000000  0.4080030000000 1.0
C      1  0.5301880000000  0.4893420000000  0.4664780000000 1.0
C      1  0.6290660000000  0.4633700000000  0.5022090000000 1.0
C      1  0.4677010000000  0.6057080000000  0.5814890000000 1.0
C      1  0.4493460000000  0.5844380000000  0.5769360000000 1.0
C      1  0.4802890000000  0.4573220000000  0.4659280000000 1.0
C      1  0.4510380000000  0.5564900000000  0.4473570000000 1.0
C      1  0.5658630000000  0.4249160000000  0.5178770000000 1.0
C      1  0.5665460000000  0.4371830000000  0.5663580000000 1.0
C      1  0.4922280000000  0.5591560000000  0.5939040000000 1.0
C      1  0.4980810000000  0.5921000000000  0.4696740000000 1.0
C      1  0.4089180000000  0.4423670000000  0.5037510000000 1.0
C      1  0.4989800000000  0.3861710000000  0.4519170000000 1.0
C      1  0.3338240000000  0.4657480000000  0.5571090000000 1.0
C      1  0.4895820000000  0.5419190000000  0.5459810000000 1.0
C      1  0.4748700000000  0.5430930000000  0.3771120000000 1.0
C      1  0.5091310000000  0.5796600000000  0.5779990000000 1.0
C      1  0.3985100000000  0.5352940000000  0.4083150000000 1.0
C      1  0.5984350000000  0.5540700000000  0.4530150000000 1.0
C      1  0.5180190000000  0.4445910000000  0.6224120000000 1.0
C      1  0.5258830000000  0.5208380000000  0.5228160000000 1.0
C      1  0.6082380000000  0.4394780000000  0.3285650000000 1.0
C      1  0.4663020000000  0.5183290000000  0.6028800000000 1.0
C      1  0.4296940000000  0.4334830000000  0.5555640000000 1.0
C      1  0.4709780000000  0.6333000000000  0.5412740000000 1.0
C      1  0.4022050000000  0.4387910000000  0.5589400000000 1.0
C      1  0.5613070000000  0.4596230000000  0.3912530000000 1.0
C      1  0.6046980000000  0.4289740000000  0.4540900000000 1.0
C      1  0.4419220000000  0.3799830000000  0.5128220000000 1.0
C      1  0.5135830000000  0.5089960000000  0.6124140000000 1.0
C      1  0.4623900000000  0.5620490000000  0.5891970000000 1.0
C      1  0.5268490000000  0.5351910000000  0.4789960000000 1.0
C      1  0.5722430000000  0.5275440000000  0.5930190000000 1.0
C      1  0.5764840000000  0.4520750000000  0.3690730000000 1.0
C      1  0.4403330000000  0.4018690000000  0.4945250000000 1.0
C      1  0.4772370000000  0.3786700000000  0.4679210000000 1.0
C      1  0.4855340000000  0.4944860000000  0.5173480000000 1.0
C      1  0.4747170000000  0.5463280000000  0.4642220000000 1.0
C      1  0.5314580000000  0.4231130000000  0.4561180000000 1.0
C      1  0.4332290000000  0.4482490000000  0.4492450000000 1.0
C      1  0.4695630000000  0.4243960000000  0.4201240000000 1.0
C      1  0.5053790000000  0.4369640000000  0.5439810000000 1.0
C      1  0.5299540000000  0.5593120000000  0.4143720000000 1.0
C      1  0.4512970000000  0.6071530000000  0.4887650000000 1.0
C      1  0.5160410000000  0.5332230000000  0.5454530000000 1.0
C      1  0.5651610000000  0.4291540000000  0.4900200000000 1.0
C      1  0.5127780000000  0.5124720000000  0.4691710000000 1.0
C      1  0.5342070000000  0.5406050000000  0.5658900000000 1.0
C      1  0.3998700000000  0.5125140000000  0.4249530000000 1.0
C      1  0.5142520000000  0.4955770000000  0.5168340000000 1.0
C      1  0.4962360000000  0.6220350000000  0.5484690000000 1.0
C      1  0.4546680000000  0.3962020000000  0.4704680000000 1.0
C      1  0.5422460000000  0.4399370000000  0.4764110000000 1.0
C      1  0.4446490000000  0.4529330000000  0.5404870000000 1.0
C      1  0.5160570000000  0.6239180000000  0.5291340000000 1.0
C      1  0.5724810000000  0.4624300000000  0.5800010000000 1.0
C      1  0.4324840000000  0.5998280000000  0.5320730000000 1.0
C      1  0.4045260000000  0.5102730000000  0.5380750000000 1.0
C      1  0.4828290000000  0.5157290000000  0.4659060000000 1.0
C      1  0.3934090000000  0.5579570000000  0.4852430000000 1.0
C      1  0.5951300000000  0.4777070000000  0.5755670000000 1.0
END
