TITL C-627108-131-1274 -2655.48527692335 125000 -863.123290385751 0 0 142 (C1) n - 1
REM
REM in /home/nfs/bkarasulu/CARBON/AIRSS/Generating-Clusters/LCBOP/Only-C1/SD-CG/FIRE-CG
REM
REM
REM
REM
REM
REM ./C.cell (11c1c37f851c82e70ff6c80c92926a4b)
REM AIRSS Version 0.9.1 bugfix July 2018 build 013d7b7c2542+ Fri, 06 Jul 2018 19:26:36 +0100
REM compiler GCC version 9.2.1 20190827 (Red Hat 9.2.1-1)
REM options -cpp -mtune=generic -march=x86-64 -g -O0 -fpre-include=/usr/include/finclude/math-vector-fortran.h
REM seed 11557820 1295866454 1018581321 -1062075198 398969181 1456431770 1801607737 1788628959 -1433558549 -1039262523 331855517 -1486160438 1965138604 1902776268 242222026 -2069301395 -793968621 1437854053 -491826965 -464930735 297095624 -1075546626 230160482 -798869465 773633613 -152189914 1573143441 -1462404219 2098981902 -415721561 -490638964 -633909023 2053459295
REM
CELL 1.54180   50.00000   50.00000   50.00000   90.00000   90.00000   90.00000
LATT -1
SFAC C  
C      1  0.5158260000000  0.5245810000000  0.5534340000000 1.0
C      1  0.6359330000000  0.4389740000000  0.3814120000000 1.0
C      1  0.4585720000000  0.4820570000000  0.5993660000000 1.0
C      1  0.4654010000000  0.5291030000000  0.5493720000000 1.0
C      1  0.4836180000000  0.5545460000000  0.5067780000000 1.0
C      1  0.4471370000000  0.5661440000000  0.5734510000000 1.0
C      1  0.4094450000000  0.4747970000000  0.5257150000000 1.0
C      1  0.5757380000000  0.4579420000000  0.5704740000000 1.0
C      1  0.5298510000000  0.4242700000000  0.6008530000000 1.0
C      1  0.5623110000000  0.5291880000000  0.5940970000000 1.0
C      1  0.4845280000000  0.4737240000000  0.4976500000000 1.0
C      1  0.5470470000000  0.3985190000000  0.5326830000000 1.0
C      1  0.4745730000000  0.5447710000000  0.4276470000000 1.0
C      1  0.4309980000000  0.4497060000000  0.5687130000000 1.0
C      1  0.4563000000000  0.5644550000000  0.4375010000000 1.0
C      1  0.5994000000000  0.5520840000000  0.5727510000000 1.0
C      1  0.5016220000000  0.5026820000000  0.5394650000000 1.0
C      1  0.5153360000000  0.5224520000000  0.5831450000000 1.0
C      1  0.5172810000000  0.4445820000000  0.6134080000000 1.0
C      1  0.5897890000000  0.5732400000000  0.4346730000000 1.0
C      1  0.4432960000000  0.5075490000000  0.4252100000000 1.0
C      1  0.5936900000000  0.4726960000000  0.5523290000000 1.0
C      1  0.4678780000000  0.4583390000000  0.5405040000000 1.0
C      1  0.3959650000000  0.4667590000000  0.4497210000000 1.0
C      1  0.5329530000000  0.4511710000000  0.5042770000000 1.0
C      1  0.4653090000000  0.4735940000000  0.4742970000000 1.0
C      1  0.5508270000000  0.5444570000000  0.4892680000000 1.0
C      1  0.4229850000000  0.5521810000000  0.5638770000000 1.0
C      1  0.5609670000000  0.5289420000000  0.3992650000000 1.0
C      1  0.5728110000000  0.5462490000000  0.5743910000000 1.0
C      1  0.5083500000000  0.4777200000000  0.5525960000000 1.0
C      1  0.4886840000000  0.4869340000000  0.6060490000000 1.0
C      1  0.4224950000000  0.5253980000000  0.5803860000000 1.0
C      1  0.5393560000000  0.5135350000000  0.5960350000000 1.0
C      1  0.5143430000000  0.5119800000000  0.3958140000000 1.0
C      1  0.4346470000000  0.4122990000000  0.5316490000000 1.0
C      1  0.4361000000000  0.5758370000000  0.4857160000000 1.0
C      1  0.5719380000000  0.4309910000000  0.4190120000000 1.0
C      1  0.5499720000000  0.4907950000000  0.4857620000000 1.0
C      1  0.5947200000000  0.4228340000000  0.4081040000000 1.0
C      1  0.5606680000000  0.4125210000000  0.5137310000000 1.0
C      1  0.5970510000000  0.5277250000000  0.4917530000000 1.0
C      1  0.4642450000000  0.5206990000000  0.4715900000000 1.0
C      1  0.5507550000000  0.4844010000000  0.5325790000000 1.0
C      1  0.5840900000000  0.5310330000000  0.3864620000000 1.0
C      1  0.4566810000000  0.5909250000000  0.5650650000000 1.0
C      1  0.4796170000000  0.4426600000000  0.4384790000000 1.0
C      1  0.4452370000000  0.4951730000000  0.4008900000000 1.0
C      1  0.4582250000000  0.3973770000000  0.5219560000000 1.0
C      1  0.5339630000000  0.6060440000000  0.5539740000000 1.0
C      1  0.5362550000000  0.4671210000000  0.4329680000000 1.0
C      1  0.6419470000000  0.4877050000000  0.3661970000000 1.0
C      1  0.4003070000000  0.4453760000000  0.4658020000000 1.0
C      1  0.4969210000000  0.4285110000000  0.4812310000000 1.0
C      1  0.4239090000000  0.5273910000000  0.5234070000000 1.0
C      1  0.5389320000000  0.4851930000000  0.5994980000000 1.0
C      1  0.4627150000000  0.5774040000000  0.4622390000000 1.0
C      1  0.4190470000000  0.4692490000000  0.5518770000000 1.0
C      1  0.4196950000000  0.5226090000000  0.4964410000000 1.0
C      1  0.5438010000000  0.4165990000000  0.5773520000000 1.0
C      1  0.5230020000000  0.5831020000000  0.5040390000000 1.0
C      1  0.6075330000000  0.5252740000000  0.3754420000000 1.0
C      1  0.5178700000000  0.5858670000000  0.4503630000000 1.0
C      1  0.5219940000000  0.4882940000000  0.4748860000000 1.0
C      1  0.5514030000000  0.4719410000000  0.5775250000000 1.0
C      1  0.4760670000000  0.4693860000000  0.4483690000000 1.0
C      1  0.5115150000000  0.6180420000000  0.5464090000000 1.0
C      1  0.4701050000000  0.4550820000000  0.5147860000000 1.0
C      1  0.5572750000000  0.4366050000000  0.5011310000000 1.0
C      1  0.4857340000000  0.4012720000000  0.5271490000000 1.0
C      1  0.5171970000000  0.4351000000000  0.5218420000000 1.0
C      1  0.4874080000000  0.5009840000000  0.5137090000000 1.0
C      1  0.4297980000000  0.4237650000000  0.5566460000000 1.0
C      1  0.4913100000000  0.4926450000000  0.4348040000000 1.0
C      1  0.6176070000000  0.4251850000000  0.3948360000000 1.0
C      1  0.4168620000000  0.5141300000000  0.4347210000000 1.0
C      1  0.5379660000000  0.5383890000000  0.5403570000000 1.0
C      1  0.4139200000000  0.4413300000000  0.4904160000000 1.0
C      1  0.5789750000000  0.5451180000000  0.4766700000000 1.0
C      1  0.4999070000000  0.5337410000000  0.3852520000000 1.0
C      1  0.4003350000000  0.4919970000000  0.4413030000000 1.0
C      1  0.4101650000000  0.5722050000000  0.4751340000000 1.0
C      1  0.3598020000000  0.4957140000000  0.5204290000000 1.0
C      1  0.3975650000000  0.5542900000000  0.4591870000000 1.0
C      1  0.5447330000000  0.5740320000000  0.4898980000000 1.0
C      1  0.5300310000000  0.4028210000000  0.5554610000000 1.0
C      1  0.4236310000000  0.4180700000000  0.5032610000000 1.0
C      1  0.4303240000000  0.5605240000000  0.4270970000000 1.0
C      1  0.5331930000000  0.5323790000000  0.4659660000000 1.0
C      1  0.5538170000000  0.5566460000000  0.5557860000000 1.0
C      1  0.6023600000000  0.5094750000000  0.5120530000000 1.0
C      1  0.4922600000000  0.5812900000000  0.4668580000000 1.0
C      1  0.5521850000000  0.4468400000000  0.4268920000000 1.0
C      1  0.4663480000000  0.5448760000000  0.5730470000000 1.0
C      1  0.5460510000000  0.5801330000000  0.4612050000000 1.0
C      1  0.4465350000000  0.5155090000000  0.5356100000000 1.0
C      1  0.4882140000000  0.4597790000000  0.5595930000000 1.0
C      1  0.4923370000000  0.5150510000000  0.5984080000000 1.0
C      1  0.4224600000000  0.4666640000000  0.5012210000000 1.0
C      1  0.6448870000000  0.4617210000000  0.3709680000000 1.0
C      1  0.5212080000000  0.4895140000000  0.4452420000000 1.0
C      1  0.5375430000000  0.5202190000000  0.4114630000000 1.0
C      1  0.4110720000000  0.5421600000000  0.4375520000000 1.0
C      1  0.4709890000000  0.5927880000000  0.5407050000000 1.0
C      1  0.4779720000000  0.4417890000000  0.5799060000000 1.0
C      1  0.4386730000000  0.5099370000000  0.4807380000000 1.0
C      1  0.5479630000000  0.5294950000000  0.5149010000000 1.0
C      1  0.4468040000000  0.3993820000000  0.4882630000000 1.0
C      1  0.4931270000000  0.4633990000000  0.3955150000000 1.0
C      1  0.4445470000000  0.5092560000000  0.5947330000000 1.0
C      1  0.5694040000000  0.4298110000000  0.5726660000000 1.0
C      1  0.5530270000000  0.5017450000000  0.5114900000000 1.0
C      1  0.5119030000000  0.5178320000000  0.4797680000000 1.0
C      1  0.5346960000000  0.5174560000000  0.4399240000000 1.0
C      1  0.5156770000000  0.5966750000000  0.4252060000000 1.0
C      1  0.6009960000000  0.4908940000000  0.5326440000000 1.0
C      1  0.5361150000000  0.4746840000000  0.5539760000000 1.0
C      1  0.4858280000000  0.4420080000000  0.4108420000000 1.0
C      1  0.4862420000000  0.5247770000000  0.4940320000000 1.0
C      1  0.4382250000000  0.5701110000000  0.5144120000000 1.0
C      1  0.4992390000000  0.4177120000000  0.5078990000000 1.0
C      1  0.5141370000000  0.4725120000000  0.6096130000000 1.0
C      1  0.4978090000000  0.4899000000000  0.4048530000000 1.0
C      1  0.5109510000000  0.4630060000000  0.4872360000000 1.0
C      1  0.4860740000000  0.6159840000000  0.5349290000000 1.0
C      1  0.4601700000000  0.4047540000000  0.4648820000000 1.0
C      1  0.4999560000000  0.4020250000000  0.5535580000000 1.0
C      1  0.4677130000000  0.5280030000000  0.5952830000000 1.0
C      1  0.4210660000000  0.5541460000000  0.5337610000000 1.0
C      1  0.4988990000000  0.5743830000000  0.4937170000000 1.0
C      1  0.6282330000000  0.5103890000000  0.3680230000000 1.0
C      1  0.4704810000000  0.5171550000000  0.4406650000000 1.0
C      1  0.5731570000000  0.5664790000000  0.4549150000000 1.0
C      1  0.4847650000000  0.5484870000000  0.4017660000000 1.0
C      1  0.5487190000000  0.5840680000000  0.5556280000000 1.0
C      1  0.4527870000000  0.4557650000000  0.5874630000000 1.0
C      1  0.4761360000000  0.6356250000000  0.5187520000000 1.0
C      1  0.3837410000000  0.4859070000000  0.5235710000000 1.0
C      1  0.4853940000000  0.4148160000000  0.5750630000000 1.0
C      1  0.4654990000000  0.5709900000000  0.5227670000000 1.0
C      1  0.4807930000000  0.4231290000000  0.4592220000000 1.0
C      1  0.4395330000000  0.4817740000000  0.4833920000000 1.0
END
