TITL C-627109-622-609 0.590783466815204 125000 -969.445374077898 0 0 156 (C1) n - 1
REM
REM in /home/nfs/bkarasulu/CARBON/AIRSS/Generating-Clusters/LCBOP/Only-C1/SD-CG/FIRE-CG
REM
REM
REM
REM
REM
REM ./C.cell (11c1c37f851c82e70ff6c80c92926a4b)
REM AIRSS Version 0.9.1 bugfix July 2018 build 013d7b7c2542+ Fri, 06 Jul 2018 19:26:36 +0100
REM compiler GCC version 9.2.1 20190827 (Red Hat 9.2.1-1)
REM options -cpp -mtune=generic -march=x86-64 -g -O0 -fpre-include=/usr/include/finclude/math-vector-fortran.h
REM seed 1574571920 -648800156 1647701823 1384969285 -1295213002 48590673 -1560603129 -15602874 598116798 1834348363 269269799 229329234 -779521998 1140297355 -1676453714 -34359039 -1987758178 -672773901 -542101299 1959141907 1519901887 92814898 -643326363 482240525 -855030290 1803260778 -1245234540 1084230072 -394075272 -1696691464 258246426 2117890164 2036752857
REM
CELL 1.54180   50.00000   50.00000   50.00000   90.00000   90.00000   90.00000
LATT -1
SFAC C  
C      1  0.4209350000000  0.4072270000000  0.4285230000000 1.0
C      1  0.4720560000000  0.4440800000000  0.4708870000000 1.0
C      1  0.3828650000000  0.4358320000000  0.4363960000000 1.0
C      1  0.5488990000000  0.5213880000000  0.6209790000000 1.0
C      1  0.5303710000000  0.5648540000000  0.6278750000000 1.0
C      1  0.5080860000000  0.5133980000000  0.4275470000000 1.0
C      1  0.4926820000000  0.5612270000000  0.5946130000000 1.0
C      1  0.4825310000000  0.4613940000000  0.4500480000000 1.0
C      1  0.4987720000000  0.5038960000000  0.4899940000000 1.0
C      1  0.6269230000000  0.4341640000000  0.5124110000000 1.0
C      1  0.5939170000000  0.4953750000000  0.5421300000000 1.0
C      1  0.5199510000000  0.4677900000000  0.5171180000000 1.0
C      1  0.4223110000000  0.4013520000000  0.5008410000000 1.0
C      1  0.4696040000000  0.5644700000000  0.5132350000000 1.0
C      1  0.5564690000000  0.5014330000000  0.4017600000000 1.0
C      1  0.4849950000000  0.5542390000000  0.4913830000000 1.0
C      1  0.4589790000000  0.5555080000000  0.5602060000000 1.0
C      1  0.5829640000000  0.5593280000000  0.5240030000000 1.0
C      1  0.5237440000000  0.4431070000000  0.4764790000000 1.0
C      1  0.4766070000000  0.5501360000000  0.3845660000000 1.0
C      1  0.5558270000000  0.4328920000000  0.4468110000000 1.0
C      1  0.4759940000000  0.5478680000000  0.4453550000000 1.0
C      1  0.5925270000000  0.5198630000000  0.5586090000000 1.0
C      1  0.6087690000000  0.4780070000000  0.5238330000000 1.0
C      1  0.4125550000000  0.5393310000000  0.5448000000000 1.0
C      1  0.4681570000000  0.5305500000000  0.4028740000000 1.0
C      1  0.5238440000000  0.5120750000000  0.6318440000000 1.0
C      1  0.4587780000000  0.5228990000000  0.5999290000000 1.0
C      1  0.5388390000000  0.5413590000000  0.3734980000000 1.0
C      1  0.5355680000000  0.5912220000000  0.3717490000000 1.0
C      1  0.4682480000000  0.4870140000000  0.4525820000000 1.0
C      1  0.4527830000000  0.4874720000000  0.5044740000000 1.0
C      1  0.5761350000000  0.5664740000000  0.4750210000000 1.0
C      1  0.5228420000000  0.6075420000000  0.3900970000000 1.0
C      1  0.5614490000000  0.4903450000000  0.4493120000000 1.0
C      1  0.4353240000000  0.5115230000000  0.5007150000000 1.0
C      1  0.4179370000000  0.5610240000000  0.4997880000000 1.0
C      1  0.4229990000000  0.5428730000000  0.4197080000000 1.0
C      1  0.5613280000000  0.5806610000000  0.5801910000000 1.0
C      1  0.5327620000000  0.4552060000000  0.3896520000000 1.0
C      1  0.5386260000000  0.5023080000000  0.4602850000000 1.0
C      1  0.4735580000000  0.4936740000000  0.4817980000000 1.0
C      1  0.5050930000000  0.5545100000000  0.6196140000000 1.0
C      1  0.4408590000000  0.5670930000000  0.5171360000000 1.0
C      1  0.4423240000000  0.4413310000000  0.5615770000000 1.0
C      1  0.5276320000000  0.4666690000000  0.4903440000000 1.0
C      1  0.5573830000000  0.5096380000000  0.5961560000000 1.0
C      1  0.5844610000000  0.5139580000000  0.5864180000000 1.0
C      1  0.4072500000000  0.4262400000000  0.4439360000000 1.0
C      1  0.4156540000000  0.5638710000000  0.4712780000000 1.0
C      1  0.5141930000000  0.4807900000000  0.5782660000000 1.0
C      1  0.4882710000000  0.5276320000000  0.5355040000000 1.0
C      1  0.5793110000000  0.5322270000000  0.4338280000000 1.0
C      1  0.5893060000000  0.4020890000000  0.4636020000000 1.0
C      1  0.4150290000000  0.4514700000000  0.5116610000000 1.0
C      1  0.5686310000000  0.4195000000000  0.4699460000000 1.0
C      1  0.4634460000000  0.3906810000000  0.4726570000000 1.0
C      1  0.4186570000000  0.5569110000000  0.4449240000000 1.0
C      1  0.4485800000000  0.4524250000000  0.6088980000000 1.0
C      1  0.5666320000000  0.4877860000000  0.5408680000000 1.0
C      1  0.4508140000000  0.3983770000000  0.4973960000000 1.0
C      1  0.4855950000000  0.5296470000000  0.4253890000000 1.0
C      1  0.6026000000000  0.5069750000000  0.4858570000000 1.0
C      1  0.4979540000000  0.5687020000000  0.3858630000000 1.0
C      1  0.6432990000000  0.5097080000000  0.6414150000000 1.0
C      1  0.5140220000000  0.4858920000000  0.4201030000000 1.0
C      1  0.3898160000000  0.5050000000000  0.4831290000000 1.0
C      1  0.5368780000000  0.4942380000000  0.5836980000000 1.0
C      1  0.5414790000000  0.5478960000000  0.5022580000000 1.0
C      1  0.4640060000000  0.4861780000000  0.5326150000000 1.0
C      1  0.5526540000000  0.5489650000000  0.6271020000000 1.0
C      1  0.6183450000000  0.4922690000000  0.5014800000000 1.0
C      1  0.4580880000000  0.4392520000000  0.5858750000000 1.0
C      1  0.5001560000000  0.5275440000000  0.6289280000000 1.0
C      1  0.5022380000000  0.4168370000000  0.5749850000000 1.0
C      1  0.5155040000000  0.5526420000000  0.4873910000000 1.0
C      1  0.5351160000000  0.4815510000000  0.4006290000000 1.0
C      1  0.4377510000000  0.4630560000000  0.4975050000000 1.0
C      1  0.5597780000000  0.4633040000000  0.5527050000000 1.0
C      1  0.4286330000000  0.5114270000000  0.4563770000000 1.0
C      1  0.4194980000000  0.4338770000000  0.4680130000000 1.0
C      1  0.5703860000000  0.4347600000000  0.4235450000000 1.0
C      1  0.5292380000000  0.4447240000000  0.4489450000000 1.0
C      1  0.4745430000000  0.5181060000000  0.6233490000000 1.0
C      1  0.5879360000000  0.5477190000000  0.5498390000000 1.0
C      1  0.5566200000000  0.5288540000000  0.3910810000000 1.0
C      1  0.4676650000000  0.5415590000000  0.4716060000000 1.0
C      1  0.4911540000000  0.4020910000000  0.4299620000000 1.0
C      1  0.5217390000000  0.4910780000000  0.4785080000000 1.0
C      1  0.4411690000000  0.5003220000000  0.5938620000000 1.0
C      1  0.6044600000000  0.4492350000000  0.5180660000000 1.0
C      1  0.5784260000000  0.5207690000000  0.4830400000000 1.0
C      1  0.4871360000000  0.4319830000000  0.5025400000000 1.0
C      1  0.5119000000000  0.6072930000000  0.5042320000000 1.0
C      1  0.5723660000000  0.5038170000000  0.4272050000000 1.0
C      1  0.5236460000000  0.5647590000000  0.3715840000000 1.0
C      1  0.4961300000000  0.4536410000000  0.5220180000000 1.0
C      1  0.4432420000000  0.5259730000000  0.4771040000000 1.0
C      1  0.5657240000000  0.4389360000000  0.5433580000000 1.0
C      1  0.5083840000000  0.4622250000000  0.4368810000000 1.0
C      1  0.5359280000000  0.4108260000000  0.5076880000000 1.0
C      1  0.5040170000000  0.5133110000000  0.5170900000000 1.0
C      1  0.5813800000000  0.5658630000000  0.5706920000000 1.0
C      1  0.4028230000000  0.5412400000000  0.5160970000000 1.0
C      1  0.5624340000000  0.4211240000000  0.4985560000000 1.0
C      1  0.4933460000000  0.5949690000000  0.4301860000000 1.0
C      1  0.4069980000000  0.5499020000000  0.3983480000000 1.0
C      1  0.4677080000000  0.5108880000000  0.5452320000000 1.0
C      1  0.4250300000000  0.4648860000000  0.5586570000000 1.0
C      1  0.5175440000000  0.4040290000000  0.5570320000000 1.0
C      1  0.6053450000000  0.5117280000000  0.6051130000000 1.0
C      1  0.4082410000000  0.4668620000000  0.5344350000000 1.0
C      1  0.5057790000000  0.4142350000000  0.4105980000000 1.0
C      1  0.5651880000000  0.5655990000000  0.5019960000000 1.0
C      1  0.5300300000000  0.4009540000000  0.5334690000000 1.0
C      1  0.5103630000000  0.5958140000000  0.5285150000000 1.0
C      1  0.4472430000000  0.5016980000000  0.4368980000000 1.0
C      1  0.5010670000000  0.5934040000000  0.4029720000000 1.0
C      1  0.4651710000000  0.4158710000000  0.5152620000000 1.0
C      1  0.3861060000000  0.4978000000000  0.4349320000000 1.0
C      1  0.3712020000000  0.4944910000000  0.4138070000000 1.0
C      1  0.5021060000000  0.5769240000000  0.5479530000000 1.0
C      1  0.5051880000000  0.6093900000000  0.4514990000000 1.0
C      1  0.5560620000000  0.5214200000000  0.5029960000000 1.0
C      1  0.4260980000000  0.4931700000000  0.5706060000000 1.0
C      1  0.4427260000000  0.4785220000000  0.6123390000000 1.0
C      1  0.5265740000000  0.5236370000000  0.4463730000000 1.0
C      1  0.5198800000000  0.4318280000000  0.3954420000000 1.0
C      1  0.5091190000000  0.5759060000000  0.5754860000000 1.0
C      1  0.4518800000000  0.4250060000000  0.5394480000000 1.0
C      1  0.5140410000000  0.4217970000000  0.4925870000000 1.0
C      1  0.5790840000000  0.5410540000000  0.4614260000000 1.0
C      1  0.5235660000000  0.4948440000000  0.5265780000000 1.0
C      1  0.4821600000000  0.5568700000000  0.5397600000000 1.0
C      1  0.5350410000000  0.5846900000000  0.5818090000000 1.0
C      1  0.5226870000000  0.5479650000000  0.4596600000000 1.0
C      1  0.4440420000000  0.3939130000000  0.4291110000000 1.0
C      1  0.4678290000000  0.3939290000000  0.4443670000000 1.0
C      1  0.4097810000000  0.4268190000000  0.4955720000000 1.0
C      1  0.4052350000000  0.5118580000000  0.5070740000000 1.0
C      1  0.4434710000000  0.5219070000000  0.4149560000000 1.0
C      1  0.4816150000000  0.4662490000000  0.5421630000000 1.0
C      1  0.4444280000000  0.4474520000000  0.4743060000000 1.0
C      1  0.4008360000000  0.4946890000000  0.5314560000000 1.0
C      1  0.5102930000000  0.6119760000000  0.4778030000000 1.0
C      1  0.4755020000000  0.5749890000000  0.4383420000000 1.0
C      1  0.4011340000000  0.5044140000000  0.4573620000000 1.0
C      1  0.4109580000000  0.5118120000000  0.5539840000000 1.0
C      1  0.4862830000000  0.4393160000000  0.5808070000000 1.0
C      1  0.6245230000000  0.5106460000000  0.6233550000000 1.0
C      1  0.5722930000000  0.5454990000000  0.4092050000000 1.0
C      1  0.5788230000000  0.4351460000000  0.5184910000000 1.0
C      1  0.4676610000000  0.5474570000000  0.5861220000000 1.0
C      1  0.4347500000000  0.5577860000000  0.5452470000000 1.0
C      1  0.4939460000000  0.4639070000000  0.5681520000000 1.0
C      1  0.5501300000000  0.5033390000000  0.5246220000000 1.0
END
