TITL C-627113-6568-530 6862.60462926967 125000 -1197.16262313429 0 0 196 (C1) n - 1
REM
REM in /home/nfs/bkarasulu/CARBON/AIRSS/Generating-Clusters/LCBOP/Only-C1/SD-CG/FIRE-CG
REM
REM
REM
REM
REM
REM ./C.cell (11c1c37f851c82e70ff6c80c92926a4b)
REM AIRSS Version 0.9.1 bugfix July 2018 build 013d7b7c2542+ Fri, 06 Jul 2018 19:26:36 +0100
REM compiler GCC version 9.2.1 20190827 (Red Hat 9.2.1-1)
REM options -cpp -mtune=generic -march=x86-64 -g -O0 -fpre-include=/usr/include/finclude/math-vector-fortran.h
REM seed -1313841168 -1093741849 -1504294332 1884322631 1558158008 -1638352912 624396420 -801189505 -2000646988 432398422 152165253 1720391882 -1835573338 -1762392239 -1610623215 -736855582 1699787288 1811768211 2057853057 598492475 1144835743 -1304637688 1590626097 -400107905 582378970 1097476188 1938663393 -1054511207 -324932697 494480738 19675155 -546138995 109849511
REM
CELL 1.54180   50.00000   50.00000   50.00000   90.00000   90.00000   90.00000
LATT -1
SFAC C  
C      1  0.5659130000000  0.6065760000000  0.5320570000000 1.0
C      1  0.6083530000000  0.5748310000000  0.4938790000000 1.0
C      1  0.4250360000000  0.4006390000000  0.4670590000000 1.0
C      1  0.4906460000000  0.6002850000000  0.4896230000000 1.0
C      1  0.4706680000000  0.4628340000000  0.5070120000000 1.0
C      1  0.4845220000000  0.4931880000000  0.4121210000000 1.0
C      1  0.4279290000000  0.5613120000000  0.4574850000000 1.0
C      1  0.4562750000000  0.5140620000000  0.5029270000000 1.0
C      1  0.5932150000000  0.5122000000000  0.5218740000000 1.0
C      1  0.3902030000000  0.4905890000000  0.4928740000000 1.0
C      1  0.4943050000000  0.4927790000000  0.6352370000000 1.0
C      1  0.3891170000000  0.4951920000000  0.5595030000000 1.0
C      1  0.4765730000000  0.4403280000000  0.4397740000000 1.0
C      1  0.4372920000000  0.4631910000000  0.5499340000000 1.0
C      1  0.4868740000000  0.4199950000000  0.5611850000000 1.0
C      1  0.5856840000000  0.4381130000000  0.4827240000000 1.0
C      1  0.5146430000000  0.6487890000000  0.5206580000000 1.0
C      1  0.5243660000000  0.6445550000000  0.4956730000000 1.0
C      1  0.4984590000000  0.6164540000000  0.4680420000000 1.0
C      1  0.4863840000000  0.3920250000000  0.5259610000000 1.0
C      1  0.5275070000000  0.4510310000000  0.4720620000000 1.0
C      1  0.5455900000000  0.6120610000000  0.4605200000000 1.0
C      1  0.5048530000000  0.4265170000000  0.4378510000000 1.0
C      1  0.5334520000000  0.5407700000000  0.5263590000000 1.0
C      1  0.6269980000000  0.4702380000000  0.3694350000000 1.0
C      1  0.5317550000000  0.5075300000000  0.4603010000000 1.0
C      1  0.5666330000000  0.6044660000000  0.4786920000000 1.0
C      1  0.4846910000000  0.5588990000000  0.4391590000000 1.0
C      1  0.4768750000000  0.4777150000000  0.3388680000000 1.0
C      1  0.5127420000000  0.4845640000000  0.5176770000000 1.0
C      1  0.4802830000000  0.5241320000000  0.5742980000000 1.0
C      1  0.5809940000000  0.4279290000000  0.4558220000000 1.0
C      1  0.6151270000000  0.4578560000000  0.3896430000000 1.0
C      1  0.5195260000000  0.4082090000000  0.4981100000000 1.0
C      1  0.3970030000000  0.4829310000000  0.4644560000000 1.0
C      1  0.4898890000000  0.4134300000000  0.5046530000000 1.0
C      1  0.5414610000000  0.5799370000000  0.4144340000000 1.0
C      1  0.4334590000000  0.4912230000000  0.5875280000000 1.0
C      1  0.4275660000000  0.4151520000000  0.5503460000000 1.0
C      1  0.5115340000000  0.4081480000000  0.6012030000000 1.0
C      1  0.5218870000000  0.4513280000000  0.4398580000000 1.0
C      1  0.4925770000000  0.5895810000000  0.5379580000000 1.0
C      1  0.4644330000000  0.5069520000000  0.4606800000000 1.0
C      1  0.5503240000000  0.4514660000000  0.5194540000000 1.0
C      1  0.4076750000000  0.5569720000000  0.5268580000000 1.0
C      1  0.5726620000000  0.3998450000000  0.4598880000000 1.0
C      1  0.6340950000000  0.4834240000000  0.5251440000000 1.0
C      1  0.4619760000000  0.4881720000000  0.5065720000000 1.0
C      1  0.4918070000000  0.4426830000000  0.5162600000000 1.0
C      1  0.5182450000000  0.4571240000000  0.5067400000000 1.0
C      1  0.5413950000000  0.4712430000000  0.6206080000000 1.0
C      1  0.5673240000000  0.5694260000000  0.4092320000000 1.0
C      1  0.4138490000000  0.4261340000000  0.4747910000000 1.0
C      1  0.5650360000000  0.4693030000000  0.5643660000000 1.0
C      1  0.4571610000000  0.4997280000000  0.4048370000000 1.0
C      1  0.5725040000000  0.5436520000000  0.4149310000000 1.0
C      1  0.4681020000000  0.4132010000000  0.4836000000000 1.0
C      1  0.5481300000000  0.5526320000000  0.5970750000000 1.0
C      1  0.5209180000000  0.5627600000000  0.4034060000000 1.0
C      1  0.5610070000000  0.5472290000000  0.5274860000000 1.0
C      1  0.6207870000000  0.5076560000000  0.5168130000000 1.0
C      1  0.5549940000000  0.5253680000000  0.4267350000000 1.0
C      1  0.4404850000000  0.4961770000000  0.4612680000000 1.0
C      1  0.4949820000000  0.6326710000000  0.5677200000000 1.0
C      1  0.4858860000000  0.6083320000000  0.4443340000000 1.0
C      1  0.6087630000000  0.5852870000000  0.5203490000000 1.0
C      1  0.3781070000000  0.4695570000000  0.5538240000000 1.0
C      1  0.4934900000000  0.4684020000000  0.5607990000000 1.0
C      1  0.6027320000000  0.4469850000000  0.4103860000000 1.0
C      1  0.5499850000000  0.4781010000000  0.4098900000000 1.0
C      1  0.4578560000000  0.4330680000000  0.4174420000000 1.0
C      1  0.4471560000000  0.6089610000000  0.5219000000000 1.0
C      1  0.5179710000000  0.5340050000000  0.5034400000000 1.0
C      1  0.6810870000000  0.4900730000000  0.5512460000000 1.0
C      1  0.5187950000000  0.5965110000000  0.5906870000000 1.0
C      1  0.5669520000000  0.4551900000000  0.4951940000000 1.0
C      1  0.3927490000000  0.5445590000000  0.5479420000000 1.0
C      1  0.5105750000000  0.5064160000000  0.5003340000000 1.0
C      1  0.5699580000000  0.5112190000000  0.6121730000000 1.0
C      1  0.4461920000000  0.3941470000000  0.4855070000000 1.0
C      1  0.5090530000000  0.4993580000000  0.4733360000000 1.0
C      1  0.4057530000000  0.5020250000000  0.5836260000000 1.0
C      1  0.4370020000000  0.6058300000000  0.4724200000000 1.0
C      1  0.5196360000000  0.4841920000000  0.6329140000000 1.0
C      1  0.5235930000000  0.5299300000000  0.5506280000000 1.0
C      1  0.4352990000000  0.5486900000000  0.5273750000000 1.0
C      1  0.5239440000000  0.6280420000000  0.4722080000000 1.0
C      1  0.5004700000000  0.3978460000000  0.5503390000000 1.0
C      1  0.4672270000000  0.5975110000000  0.5352010000000 1.0
C      1  0.4359310000000  0.4381480000000  0.5645050000000 1.0
C      1  0.4430720000000  0.5386270000000  0.5016830000000 1.0
C      1  0.4785640000000  0.4541980000000  0.3527380000000 1.0
C      1  0.4771580000000  0.4063390000000  0.3277560000000 1.0
C      1  0.5240950000000  0.4072790000000  0.4500510000000 1.0
C      1  0.4133400000000  0.4787550000000  0.4151020000000 1.0
C      1  0.4249980000000  0.4737040000000  0.4664900000000 1.0
C      1  0.4586270000000  0.4848000000000  0.6028430000000 1.0
C      1  0.4924940000000  0.6098450000000  0.5858240000000 1.0
C      1  0.5288300000000  0.4032780000000  0.5466960000000 1.0
C      1  0.5428340000000  0.6028600000000  0.5476440000000 1.0
C      1  0.5145770000000  0.5372100000000  0.3628650000000 1.0
C      1  0.6386290000000  0.4827960000000  0.3497720000000 1.0
C      1  0.5281420000000  0.5710180000000  0.6000530000000 1.0
C      1  0.4861330000000  0.4090800000000  0.6099770000000 1.0
C      1  0.4713800000000  0.5839820000000  0.4446580000000 1.0
C      1  0.4444340000000  0.4890340000000  0.5602120000000 1.0
C      1  0.4363460000000  0.6136660000000  0.4979570000000 1.0
C      1  0.4941290000000  0.5741180000000  0.4927550000000 1.0
C      1  0.4240860000000  0.4635310000000  0.5255480000000 1.0
C      1  0.4004110000000  0.5519010000000  0.5759020000000 1.0
C      1  0.5038000000000  0.5130460000000  0.4032650000000 1.0
C      1  0.5129760000000  0.5376980000000  0.3909640000000 1.0
C      1  0.3550310000000  0.5443810000000  0.4800780000000 1.0
C      1  0.4652150000000  0.6016390000000  0.5918350000000 1.0
C      1  0.3993940000000  0.5285010000000  0.5930210000000 1.0
C      1  0.3994440000000  0.5545530000000  0.4988200000000 1.0
C      1  0.4697690000000  0.5011080000000  0.6238070000000 1.0
C      1  0.5082870000000  0.5521080000000  0.4832050000000 1.0
C      1  0.4129180000000  0.5535680000000  0.4359940000000 1.0
C      1  0.4642900000000  0.5390530000000  0.5937860000000 1.0
C      1  0.4060040000000  0.4740200000000  0.5096620000000 1.0
C      1  0.4810020000000  0.4544410000000  0.3810410000000 1.0
C      1  0.6585020000000  0.4866490000000  0.5387010000000 1.0
C      1  0.5896350000000  0.4387270000000  0.4318830000000 1.0
C      1  0.5483660000000  0.3915760000000  0.4456720000000 1.0
C      1  0.3735530000000  0.4486380000000  0.5373590000000 1.0
C      1  0.5166370000000  0.5367860000000  0.3368900000000 1.0
C      1  0.5535200000000  0.4476260000000  0.5483550000000 1.0
C      1  0.5317170000000  0.4253870000000  0.5909420000000 1.0
C      1  0.5885990000000  0.3935080000000  0.4848920000000 1.0
C      1  0.5526640000000  0.4675040000000  0.4732000000000 1.0
C      1  0.5605870000000  0.4964410000000  0.4285770000000 1.0
C      1  0.5074840000000  0.4559630000000  0.3928720000000 1.0
C      1  0.4645000000000  0.5287320000000  0.6197940000000 1.0
C      1  0.4414790000000  0.4103940000000  0.4203740000000 1.0
C      1  0.5093520000000  0.5491430000000  0.4537360000000 1.0
C      1  0.4399980000000  0.4768490000000  0.4031760000000 1.0
C      1  0.4453610000000  0.5508510000000  0.5762020000000 1.0
C      1  0.5763220000000  0.5021940000000  0.5027080000000 1.0
C      1  0.5377330000000  0.4458310000000  0.6091520000000 1.0
C      1  0.5807460000000  0.5305920000000  0.5401260000000 1.0
C      1  0.4382380000000  0.3843740000000  0.5105910000000 1.0
C      1  0.5661470000000  0.5308720000000  0.5916970000000 1.0
C      1  0.5108240000000  0.4853890000000  0.5460750000000 1.0
C      1  0.5296820000000  0.5028300000000  0.5560710000000 1.0
C      1  0.5280850000000  0.4207190000000  0.4752360000000 1.0
C      1  0.5889300000000  0.5866450000000  0.4763000000000 1.0
C      1  0.4527870000000  0.5272110000000  0.4077990000000 1.0
C      1  0.4618670000000  0.4200210000000  0.6067960000000 1.0
C      1  0.4237390000000  0.5498340000000  0.4828900000000 1.0
C      1  0.5035490000000  0.6449120000000  0.5450590000000 1.0
C      1  0.6176100000000  0.4309260000000  0.5157110000000 1.0
C      1  0.5191780000000  0.5921500000000  0.5364650000000 1.0
C      1  0.3846260000000  0.5166830000000  0.5395330000000 1.0
C      1  0.4284910000000  0.3964340000000  0.4393930000000 1.0
C      1  0.4564700000000  0.4529950000000  0.3972600000000 1.0
C      1  0.6317670000000  0.5279600000000  0.5002330000000 1.0
C      1  0.5562820000000  0.4961310000000  0.5603840000000 1.0
C      1  0.5915870000000  0.5964770000000  0.5378340000000 1.0
C      1  0.5399210000000  0.6086850000000  0.5750610000000 1.0
C      1  0.4297770000000  0.3943560000000  0.5338930000000 1.0
C      1  0.5403360000000  0.4248140000000  0.5627860000000 1.0
C      1  0.4872770000000  0.4913550000000  0.4583510000000 1.0
C      1  0.3919930000000  0.4279240000000  0.4926330000000 1.0
C      1  0.5408280000000  0.5993040000000  0.4353210000000 1.0
C      1  0.5020790000000  0.5386290000000  0.5649980000000 1.0
C      1  0.6237860000000  0.5515470000000  0.4897850000000 1.0
C      1  0.5535430000000  0.4896550000000  0.4561650000000 1.0
C      1  0.4858070000000  0.4755440000000  0.4352990000000 1.0
C      1  0.5658200000000  0.4831930000000  0.6118190000000 1.0
C      1  0.4242770000000  0.5692340000000  0.5815650000000 1.0
C      1  0.3946000000000  0.4836520000000  0.4352320000000 1.0
C      1  0.4449890000000  0.5841690000000  0.4561690000000 1.0
C      1  0.5318570000000  0.5317300000000  0.4447790000000 1.0
C      1  0.4336570000000  0.4469450000000  0.4694040000000 1.0
C      1  0.4389760000000  0.5931630000000  0.5894160000000 1.0
C      1  0.5361760000000  0.3996620000000  0.5195320000000 1.0
C      1  0.3784060000000  0.4340960000000  0.5151120000000 1.0
C      1  0.4797420000000  0.4730530000000  0.5856100000000 1.0
C      1  0.6250820000000  0.4564820000000  0.5214600000000 1.0
C      1  0.4886580000000  0.4440180000000  0.5470400000000 1.0
C      1  0.5776110000000  0.4679920000000  0.5900550000000 1.0
C      1  0.5995420000000  0.4180240000000  0.4981550000000 1.0
C      1  0.3799600000000  0.5129770000000  0.5091550000000 1.0
C      1  0.5720740000000  0.5199080000000  0.5652810000000 1.0
C      1  0.4693880000000  0.5442090000000  0.4204320000000 1.0
C      1  0.4454050000000  0.5377030000000  0.5504470000000 1.0
C      1  0.4615120000000  0.4362130000000  0.4662540000000 1.0
C      1  0.5630280000000  0.6140350000000  0.5051190000000 1.0
C      1  0.5274040000000  0.4613760000000  0.4132110000000 1.0
C      1  0.5484770000000  0.3696090000000  0.4285360000000 1.0
C      1  0.4447010000000  0.4330150000000  0.5908220000000 1.0
C      1  0.4600290000000  0.5130950000000  0.5552010000000 1.0
C      1  0.3768370000000  0.5378890000000  0.4949520000000 1.0
C      1  0.4778840000000  0.4296410000000  0.3394030000000 1.0
C      1  0.5486250000000  0.3492240000000  0.4123010000000 1.0
END
