TITL C-627112-676-797 -0.210660538999021 125000 -858.419652908471 0 0 139 (C1) n - 1
REM
REM in /home/nfs/bkarasulu/CARBON/AIRSS/Generating-Clusters/LCBOP/Only-C1/SD-CG/FIRE-CG
REM
REM
REM
REM
REM
REM ./C.cell (11c1c37f851c82e70ff6c80c92926a4b)
REM AIRSS Version 0.9.1 bugfix July 2018 build 013d7b7c2542+ Fri, 06 Jul 2018 19:26:36 +0100
REM compiler GCC version 9.2.1 20190827 (Red Hat 9.2.1-1)
REM options -cpp -mtune=generic -march=x86-64 -g -O0 -fpre-include=/usr/include/finclude/math-vector-fortran.h
REM seed -339239199 1872121090 452173578 203692728 539137562 1804692145 2051423266 1574511348 6994365 -46866679 122962200 -1454247247 1975725033 1595851603 -474373268 939423417 -91833412 -1630537544 1155188736 1400392780 -1423429538 -1600794449 329998406 1990677049 -1756923484 1562117627 -240060096 1844518569 -2002162572 1859845915 252677499 700303624 -559660409
REM
CELL 1.54180   50.00000   50.00000   50.00000   90.00000   90.00000   90.00000
LATT -1
SFAC C  
C      1  0.5596630000000  0.4649060000000  0.4647220000000 1.0
C      1  0.4530150000000  0.5328510000000  0.4499260000000 1.0
C      1  0.5984810000000  0.4603050000000  0.5012710000000 1.0
C      1  0.5863600000000  0.4353150000000  0.5065630000000 1.0
C      1  0.4798200000000  0.4496150000000  0.4463850000000 1.0
C      1  0.4216790000000  0.4823240000000  0.4892880000000 1.0
C      1  0.5598290000000  0.5314150000000  0.5987980000000 1.0
C      1  0.6017060000000  0.5197290000000  0.5755620000000 1.0
C      1  0.4819700000000  0.4861830000000  0.5905270000000 1.0
C      1  0.4008340000000  0.5680410000000  0.4519320000000 1.0
C      1  0.5430920000000  0.5364690000000  0.4783720000000 1.0
C      1  0.5305620000000  0.5248840000000  0.5985950000000 1.0
C      1  0.5258560000000  0.5828400000000  0.4871830000000 1.0
C      1  0.6065270000000  0.5078410000000  0.5515750000000 1.0
C      1  0.5424920000000  0.5937460000000  0.4278550000000 1.0
C      1  0.5313420000000  0.4801880000000  0.5192370000000 1.0
C      1  0.5515670000000  0.5138730000000  0.4634560000000 1.0
C      1  0.4919960000000  0.5211080000000  0.3976560000000 1.0
C      1  0.5387420000000  0.5656830000000  0.4268170000000 1.0
C      1  0.5267520000000  0.4981980000000  0.5896460000000 1.0
C      1  0.5403220000000  0.5694970000000  0.5469950000000 1.0
C      1  0.4651870000000  0.5214100000000  0.5134450000000 1.0
C      1  0.4694250000000  0.5267400000000  0.3808850000000 1.0
C      1  0.4949850000000  0.3942240000000  0.5220780000000 1.0
C      1  0.4663990000000  0.4247830000000  0.5844110000000 1.0
C      1  0.4437150000000  0.4400190000000  0.5098830000000 1.0
C      1  0.4436980000000  0.5666720000000  0.5125570000000 1.0
C      1  0.4714310000000  0.4623600000000  0.5429790000000 1.0
C      1  0.4780850000000  0.3880960000000  0.3974390000000 1.0
C      1  0.5231190000000  0.5551520000000  0.5294650000000 1.0
C      1  0.5117610000000  0.5565550000000  0.4302220000000 1.0
C      1  0.4544140000000  0.6102080000000  0.5637000000000 1.0
C      1  0.5720180000000  0.4408580000000  0.5523670000000 1.0
C      1  0.4423560000000  0.4863720000000  0.4699470000000 1.0
C      1  0.5737870000000  0.5111230000000  0.3913460000000 1.0
C      1  0.3925120000000  0.5211930000000  0.4740380000000 1.0
C      1  0.5436720000000  0.5184730000000  0.5475180000000 1.0
C      1  0.5613960000000  0.5483550000000  0.4314000000000 1.0
C      1  0.4212210000000  0.4588670000000  0.5050810000000 1.0
C      1  0.5578600000000  0.4870060000000  0.5054240000000 1.0
C      1  0.4556700000000  0.4012290000000  0.4038500000000 1.0
C      1  0.4280640000000  0.4572250000000  0.6018140000000 1.0
C      1  0.4576250000000  0.4473840000000  0.4284660000000 1.0
C      1  0.5797670000000  0.5109260000000  0.5919650000000 1.0
C      1  0.4443840000000  0.5396360000000  0.5200730000000 1.0
C      1  0.4062280000000  0.4577020000000  0.5297670000000 1.0
C      1  0.5353840000000  0.5646690000000  0.5752930000000 1.0
C      1  0.4971790000000  0.4943700000000  0.4337000000000 1.0
C      1  0.4698970000000  0.4827450000000  0.5633440000000 1.0
C      1  0.4923840000000  0.4556530000000  0.5243650000000 1.0
C      1  0.5080260000000  0.4775950000000  0.5955220000000 1.0
C      1  0.5734180000000  0.4196280000000  0.5707920000000 1.0
C      1  0.4680510000000  0.5411780000000  0.4706810000000 1.0
C      1  0.4517000000000  0.5064260000000  0.5633090000000 1.0
C      1  0.4448190000000  0.5764170000000  0.4328630000000 1.0
C      1  0.5639690000000  0.4340140000000  0.5244570000000 1.0
C      1  0.4306740000000  0.5978770000000  0.4743980000000 1.0
C      1  0.4265560000000  0.4993160000000  0.5755190000000 1.0
C      1  0.4578190000000  0.4237420000000  0.4923420000000 1.0
C      1  0.4720460000000  0.4885710000000  0.4764980000000 1.0
C      1  0.4204010000000  0.5295420000000  0.5307580000000 1.0
C      1  0.4623720000000  0.4180200000000  0.5565980000000 1.0
C      1  0.4817800000000  0.4150270000000  0.4806940000000 1.0
C      1  0.5561730000000  0.4736220000000  0.4146220000000 1.0
C      1  0.5197530000000  0.4092550000000  0.4177710000000 1.0
C      1  0.4842230000000  0.5036760000000  0.5004730000000 1.0
C      1  0.5381150000000  0.6112820000000  0.4478620000000 1.0
C      1  0.5045880000000  0.5316670000000  0.4198470000000 1.0
C      1  0.4561780000000  0.5123720000000  0.6242050000000 1.0
C      1  0.4829520000000  0.5668220000000  0.5486750000000 1.0
C      1  0.5382270000000  0.4967870000000  0.5637840000000 1.0
C      1  0.5300470000000  0.6069360000000  0.4732090000000 1.0
C      1  0.5468000000000  0.5632540000000  0.4863950000000 1.0
C      1  0.4490280000000  0.4236120000000  0.4167450000000 1.0
C      1  0.5124750000000  0.4505830000000  0.5870090000000 1.0
C      1  0.4090270000000  0.4986230000000  0.4325110000000 1.0
C      1  0.5580820000000  0.5197180000000  0.4359680000000 1.0
C      1  0.4495810000000  0.4406830000000  0.5411730000000 1.0
C      1  0.4899200000000  0.4250270000000  0.4555340000000 1.0
C      1  0.6205150000000  0.4640710000000  0.4858200000000 1.0
C      1  0.5624270000000  0.5012350000000  0.4144150000000 1.0
C      1  0.4857480000000  0.5629440000000  0.4718440000000 1.0
C      1  0.5924710000000  0.4853870000000  0.5416390000000 1.0
C      1  0.5393870000000  0.4266260000000  0.4071830000000 1.0
C      1  0.4920070000000  0.5720280000000  0.4448380000000 1.0
C      1  0.4713260000000  0.5877730000000  0.4320340000000 1.0
C      1  0.5183120000000  0.4545760000000  0.5125920000000 1.0
C      1  0.4027160000000  0.5036260000000  0.4936370000000 1.0
C      1  0.4321540000000  0.4856820000000  0.4424270000000 1.0
C      1  0.5521380000000  0.4420960000000  0.4510260000000 1.0
C      1  0.4217840000000  0.4481710000000  0.5504550000000 1.0
C      1  0.5257240000000  0.5272920000000  0.5273990000000 1.0
C      1  0.4765370000000  0.6117010000000  0.4199660000000 1.0
C      1  0.5688320000000  0.5748190000000  0.5429510000000 1.0
C      1  0.4445890000000  0.4362830000000  0.5984240000000 1.0
C      1  0.4738840000000  0.5118220000000  0.6023640000000 1.0
C      1  0.4201640000000  0.5128190000000  0.3869750000000 1.0
C      1  0.5561100000000  0.4894860000000  0.4770260000000 1.0
C      1  0.5040360000000  0.3917870000000  0.4027910000000 1.0
C      1  0.5140220000000  0.4145910000000  0.4451370000000 1.0
C      1  0.4236620000000  0.5849800000000  0.4503680000000 1.0
C      1  0.4464710000000  0.4721160000000  0.4219000000000 1.0
C      1  0.5119040000000  0.5047160000000  0.5132860000000 1.0
C      1  0.4682980000000  0.5273450000000  0.5777750000000 1.0
C      1  0.4593190000000  0.4870290000000  0.4017470000000 1.0
C      1  0.5377570000000  0.4332080000000  0.5108300000000 1.0
C      1  0.5766890000000  0.4818250000000  0.5870570000000 1.0
C      1  0.4236900000000  0.4851850000000  0.6005170000000 1.0
C      1  0.4318330000000  0.5003560000000  0.6232260000000 1.0
C      1  0.5802570000000  0.5773290000000  0.5176600000000 1.0
C      1  0.3913200000000  0.5448250000000  0.4614490000000 1.0
C      1  0.4864520000000  0.4938200000000  0.4078510000000 1.0
C      1  0.5810750000000  0.4675460000000  0.5616240000000 1.0
C      1  0.5514830000000  0.4469230000000  0.4225140000000 1.0
C      1  0.4994800000000  0.5733090000000  0.4946720000000 1.0
C      1  0.5272820000000  0.4504860000000  0.5630160000000 1.0
C      1  0.5733280000000  0.4003030000000  0.5882720000000 1.0
C      1  0.4782950000000  0.3993750000000  0.5425350000000 1.0
C      1  0.4929680000000  0.4309010000000  0.5923220000000 1.0
C      1  0.4445410000000  0.5482350000000  0.4294000000000 1.0
C      1  0.4674440000000  0.5892260000000  0.5553810000000 1.0
C      1  0.5843880000000  0.5602630000000  0.4433510000000 1.0
C      1  0.5621140000000  0.5581450000000  0.5876150000000 1.0
C      1  0.5808590000000  0.5694040000000  0.5687100000000 1.0
C      1  0.5029860000000  0.4038310000000  0.4967040000000 1.0
C      1  0.4038430000000  0.5091550000000  0.4081780000000 1.0
C      1  0.4881790000000  0.5469080000000  0.5702220000000 1.0
C      1  0.5901180000000  0.5697760000000  0.4680300000000 1.0
C      1  0.4017440000000  0.5136500000000  0.5199730000000 1.0
C      1  0.5346540000000  0.4740630000000  0.5489240000000 1.0
C      1  0.5296800000000  0.4147170000000  0.4906840000000 1.0
C      1  0.5738970000000  0.5714260000000  0.4910410000000 1.0
C      1  0.4476590000000  0.5079370000000  0.3848230000000 1.0
C      1  0.4877260000000  0.4769670000000  0.4545320000000 1.0
C      1  0.5359880000000  0.4210300000000  0.4626580000000 1.0
C      1  0.5844480000000  0.4813100000000  0.5150410000000 1.0
C      1  0.4977560000000  0.5664360000000  0.5231980000000 1.0
C      1  0.4379540000000  0.5884910000000  0.4983890000000 1.0
C      1  0.5145430000000  0.5463520000000  0.5841780000000 1.0
END
