TITL C-627112-676-1880 -3.16073526298062e-06 125000 -1231.85000351373 0 0 200 (C1) n - 1
REM
REM in /home/nfs/bkarasulu/CARBON/AIRSS/Generating-Clusters/LCBOP/Only-C1/SD-CG/FIRE-CG
REM
REM
REM
REM
REM
REM ./C.cell (11c1c37f851c82e70ff6c80c92926a4b)
REM AIRSS Version 0.9.1 bugfix July 2018 build 013d7b7c2542+ Fri, 06 Jul 2018 19:26:36 +0100
REM compiler GCC version 9.2.1 20190827 (Red Hat 9.2.1-1)
REM options -cpp -mtune=generic -march=x86-64 -g -O0 -fpre-include=/usr/include/finclude/math-vector-fortran.h
REM seed 1467421138 -1695786082 1857654256 -362834619 -196237660 -9901049 364617899 -1678632079 511510562 -29971378 1888383672 -1430631162 -620529945 754382161 102859376 1778203522 501133172 -784062893 5727789 352771513 271441479 748138729 1661721697 582917956 102309430 127838608 1373852833 -307185726 -1560004052 1785892264 -384098284 616985555 -1122814833
REM
CELL 1.54180   50.00000   50.00000   50.00000   90.00000   90.00000   90.00000
LATT -1
SFAC C  
C      1  0.5050560000000  0.6196480000000  0.4947160000000 1.0
C      1  0.4375270000000  0.5330380000000  0.4224320000000 1.0
C      1  0.5053690000000  0.3926460000000  0.6280520000000 1.0
C      1  0.5480920000000  0.6114950000000  0.5184170000000 1.0
C      1  0.5870320000000  0.4932630000000  0.4025530000000 1.0
C      1  0.5949890000000  0.5093490000000  0.5543290000000 1.0
C      1  0.4452310000000  0.3922020000000  0.4411620000000 1.0
C      1  0.4846140000000  0.4852930000000  0.5670270000000 1.0
C      1  0.5665890000000  0.5361030000000  0.5925350000000 1.0
C      1  0.5515830000000  0.6056300000000  0.4711300000000 1.0
C      1  0.4935400000000  0.4356980000000  0.5980150000000 1.0
C      1  0.4432950000000  0.4166410000000  0.4271750000000 1.0
C      1  0.4596500000000  0.4742650000000  0.3956530000000 1.0
C      1  0.6150590000000  0.5226960000000  0.5073950000000 1.0
C      1  0.4263220000000  0.5858950000000  0.5255700000000 1.0
C      1  0.3757010000000  0.5328800000000  0.5086700000000 1.0
C      1  0.5226250000000  0.3795080000000  0.4802460000000 1.0
C      1  0.5735450000000  0.5164710000000  0.4673220000000 1.0
C      1  0.4470650000000  0.5369090000000  0.4781770000000 1.0
C      1  0.5754480000000  0.4342130000000  0.5399030000000 1.0
C      1  0.4972860000000  0.6257230000000  0.5214150000000 1.0
C      1  0.4626300000000  0.5207190000000  0.5260940000000 1.0
C      1  0.4997990000000  0.4137860000000  0.6138700000000 1.0
C      1  0.5919120000000  0.4221480000000  0.4461100000000 1.0
C      1  0.4856950000000  0.5957440000000  0.5841060000000 1.0
C      1  0.5685840000000  0.5610680000000  0.5540780000000 1.0
C      1  0.4929070000000  0.6067830000000  0.5399640000000 1.0
C      1  0.5244070000000  0.4527880000000  0.4916090000000 1.0
C      1  0.4833250000000  0.4463610000000  0.4589160000000 1.0
C      1  0.4729630000000  0.3870530000000  0.5257110000000 1.0
C      1  0.5010580000000  0.3636890000000  0.4710170000000 1.0
C      1  0.4665090000000  0.3760450000000  0.5021140000000 1.0
C      1  0.5614540000000  0.4823200000000  0.5018200000000 1.0
C      1  0.4748090000000  0.5462090000000  0.5297440000000 1.0
C      1  0.5085190000000  0.4741920000000  0.3945820000000 1.0
C      1  0.5407530000000  0.5663730000000  0.5512510000000 1.0
C      1  0.6376750000000  0.3928570000000  0.3975450000000 1.0
C      1  0.5791580000000  0.5491390000000  0.5287770000000 1.0
C      1  0.3898790000000  0.4893750000000  0.5806220000000 1.0
C      1  0.5208230000000  0.5226150000000  0.3779550000000 1.0
C      1  0.4925040000000  0.4140130000000  0.4143160000000 1.0
C      1  0.3647600000000  0.5092320000000  0.4986750000000 1.0
C      1  0.5608430000000  0.5817600000000  0.6020750000000 1.0
C      1  0.3630140000000  0.4826380000000  0.4959650000000 1.0
C      1  0.4702650000000  0.4434980000000  0.5317400000000 1.0
C      1  0.4143970000000  0.5311200000000  0.5761950000000 1.0
C      1  0.3998790000000  0.5481010000000  0.5012950000000 1.0
C      1  0.5528190000000  0.4991690000000  0.5671250000000 1.0
C      1  0.5353720000000  0.5673600000000  0.4405910000000 1.0
C      1  0.5779060000000  0.5396320000000  0.4242720000000 1.0
C      1  0.4730840000000  0.5383720000000  0.4667580000000 1.0
C      1  0.4124610000000  0.4918770000000  0.5125680000000 1.0
C      1  0.5396310000000  0.5862550000000  0.5299750000000 1.0
C      1  0.5197070000000  0.5205810000000  0.4542840000000 1.0
C      1  0.4310010000000  0.4772190000000  0.4039110000000 1.0
C      1  0.4787570000000  0.4609070000000  0.6533840000000 1.0
C      1  0.4448460000000  0.5087650000000  0.4359650000000 1.0
C      1  0.5110960000000  0.4886080000000  0.5764160000000 1.0
C      1  0.4866330000000  0.6007480000000  0.4837760000000 1.0
C      1  0.4028030000000  0.5073200000000  0.5635330000000 1.0
C      1  0.5400360000000  0.5697040000000  0.5064990000000 1.0
C      1  0.5267080000000  0.5101990000000  0.5633170000000 1.0
C      1  0.4454610000000  0.5735860000000  0.5933030000000 1.0
C      1  0.4652550000000  0.4709440000000  0.5823990000000 1.0
C      1  0.4125440000000  0.5445700000000  0.4293650000000 1.0
C      1  0.4683020000000  0.4554540000000  0.4157660000000 1.0
C      1  0.5157000000000  0.3895540000000  0.5491400000000 1.0
C      1  0.5227910000000  0.4841840000000  0.4152790000000 1.0
C      1  0.5286630000000  0.4959350000000  0.4402630000000 1.0
C      1  0.4151200000000  0.4311890000000  0.4906460000000 1.0
C      1  0.3689530000000  0.5426720000000  0.5352820000000 1.0
C      1  0.4412790000000  0.4286340000000  0.4856290000000 1.0
C      1  0.6156020000000  0.4798800000000  0.4442270000000 1.0
C      1  0.4185720000000  0.4862370000000  0.4842360000000 1.0
C      1  0.5173790000000  0.5403260000000  0.5626460000000 1.0
C      1  0.4750700000000  0.4562650000000  0.6052710000000 1.0
C      1  0.5971660000000  0.4808020000000  0.5471560000000 1.0
C      1  0.4116640000000  0.5720230000000  0.4353210000000 1.0
C      1  0.5614860000000  0.5344530000000  0.4018910000000 1.0
C      1  0.5081600000000  0.5722940000000  0.6223010000000 1.0
C      1  0.6052120000000  0.4776740000000  0.5202340000000 1.0
C      1  0.4912600000000  0.4955820000000  0.4872550000000 1.0
C      1  0.5533170000000  0.4698580000000  0.5671420000000 1.0
C      1  0.4409250000000  0.4605340000000  0.5728050000000 1.0
C      1  0.5158310000000  0.5332980000000  0.5077390000000 1.0
C      1  0.4898080000000  0.4824620000000  0.5391250000000 1.0
C      1  0.4629730000000  0.5950000000000  0.5986040000000 1.0
C      1  0.4461450000000  0.4879600000000  0.4797790000000 1.0
C      1  0.4551090000000  0.4877280000000  0.4524410000000 1.0
C      1  0.4693990000000  0.5665260000000  0.5110020000000 1.0
C      1  0.5933620000000  0.4199830000000  0.5223840000000 1.0
C      1  0.5362800000000  0.5197040000000  0.5181500000000 1.0
C      1  0.5503540000000  0.3750740000000  0.4828700000000 1.0
C      1  0.4786480000000  0.5266000000000  0.4007500000000 1.0
C      1  0.4036060000000  0.4341260000000  0.5555840000000 1.0
C      1  0.5746300000000  0.5150820000000  0.5745460000000 1.0
C      1  0.5869260000000  0.5194280000000  0.4423350000000 1.0
C      1  0.5604450000000  0.5400700000000  0.4765080000000 1.0
C      1  0.4945650000000  0.5183290000000  0.4695100000000 1.0
C      1  0.5972200000000  0.4554900000000  0.4815040000000 1.0
C      1  0.6206160000000  0.5452790000000  0.4913670000000 1.0
C      1  0.4731990000000  0.3686040000000  0.4755530000000 1.0
C      1  0.4738380000000  0.5663650000000  0.4218970000000 1.0
C      1  0.4662720000000  0.4329940000000  0.4768970000000 1.0
C      1  0.5333520000000  0.6161810000000  0.4919560000000 1.0
C      1  0.5446970000000  0.5942800000000  0.4459320000000 1.0
C      1  0.5478850000000  0.6108550000000  0.4240670000000 1.0
C      1  0.4110750000000  0.4699070000000  0.6232260000000 1.0
C      1  0.4482100000000  0.5859330000000  0.5079670000000 1.0
C      1  0.5839260000000  0.4657170000000  0.5048660000000 1.0
C      1  0.5488040000000  0.4252160000000  0.5339960000000 1.0
C      1  0.6143640000000  0.4786270000000  0.4731500000000 1.0
C      1  0.5890710000000  0.4100280000000  0.4955050000000 1.0
C      1  0.4355500000000  0.4644660000000  0.6322890000000 1.0
C      1  0.4923750000000  0.5143660000000  0.3789680000000 1.0
C      1  0.5233370000000  0.5628270000000  0.4142020000000 1.0
C      1  0.6266350000000  0.4105970000000  0.4131190000000 1.0
C      1  0.5054440000000  0.4398300000000  0.5717820000000 1.0
C      1  0.3893100000000  0.5598820000000  0.5461980000000 1.0
C      1  0.4187940000000  0.5016230000000  0.5394200000000 1.0
C      1  0.5418890000000  0.4924600000000  0.5204770000000 1.0
C      1  0.5438710000000  0.5050200000000  0.3715640000000 1.0
C      1  0.5984520000000  0.4969740000000  0.4290250000000 1.0
C      1  0.5733800000000  0.3870040000000  0.4902200000000 1.0
C      1  0.5677800000000  0.4135910000000  0.4342910000000 1.0
C      1  0.4918080000000  0.5741460000000  0.4946290000000 1.0
C      1  0.5355100000000  0.4369250000000  0.5120010000000 1.0
C      1  0.3915930000000  0.4324890000000  0.5320670000000 1.0
C      1  0.5150660000000  0.5597800000000  0.4987880000000 1.0
C      1  0.3938620000000  0.4775510000000  0.6043060000000 1.0
C      1  0.5137590000000  0.5411330000000  0.5920750000000 1.0
C      1  0.5373520000000  0.5443560000000  0.4580520000000 1.0
C      1  0.5420550000000  0.4124340000000  0.4269300000000 1.0
C      1  0.4178030000000  0.4650940000000  0.4286570000000 1.0
C      1  0.4905080000000  0.4005610000000  0.5431500000000 1.0
C      1  0.4760490000000  0.5605890000000  0.4494220000000 1.0
C      1  0.5790540000000  0.6044050000000  0.4822540000000 1.0
C      1  0.5759790000000  0.6127210000000  0.5098820000000 1.0
C      1  0.3920550000000  0.4390320000000  0.5048570000000 1.0
C      1  0.5339520000000  0.5428310000000  0.3967340000000 1.0
C      1  0.5102100000000  0.4398350000000  0.4502300000000 1.0
C      1  0.4633710000000  0.4603580000000  0.6307930000000 1.0
C      1  0.4392070000000  0.6057680000000  0.4638060000000 1.0
C      1  0.4430770000000  0.3446530000000  0.4466540000000 1.0
C      1  0.4249840000000  0.4372970000000  0.5731130000000 1.0
C      1  0.4214970000000  0.5409400000000  0.4850580000000 1.0
C      1  0.5937150000000  0.4285700000000  0.4739270000000 1.0
C      1  0.4884880000000  0.4287970000000  0.5490310000000 1.0
C      1  0.5141430000000  0.4038920000000  0.4893830000000 1.0
C      1  0.4347120000000  0.3958610000000  0.6063380000000 1.0
C      1  0.4920210000000  0.5530230000000  0.6056600000000 1.0
C      1  0.4442050000000  0.5288260000000  0.5736910000000 1.0
C      1  0.4222260000000  0.5936060000000  0.4470710000000 1.0
C      1  0.5431870000000  0.4783490000000  0.4571750000000 1.0
C      1  0.4597570000000  0.5479640000000  0.5917490000000 1.0
C      1  0.5671840000000  0.5086250000000  0.3886660000000 1.0
C      1  0.6142350000000  0.5692970000000  0.4813320000000 1.0
C      1  0.4538650000000  0.3686910000000  0.4544230000000 1.0
C      1  0.4285900000000  0.5949040000000  0.5525000000000 1.0
C      1  0.5306480000000  0.4534680000000  0.4643040000000 1.0
C      1  0.5383220000000  0.5699850000000  0.6170080000000 1.0
C      1  0.5393620000000  0.4016740000000  0.5458970000000 1.0
C      1  0.5986130000000  0.5278710000000  0.5313890000000 1.0
C      1  0.5774460000000  0.4594860000000  0.5549670000000 1.0
C      1  0.4056560000000  0.4812030000000  0.4514880000000 1.0
C      1  0.6235880000000  0.4558060000000  0.4316620000000 1.0
C      1  0.6022470000000  0.5927440000000  0.4710080000000 1.0
C      1  0.4980160000000  0.5747800000000  0.4098940000000 1.0
C      1  0.4568920000000  0.6027480000000  0.4853500000000 1.0
C      1  0.5397960000000  0.5415930000000  0.6057330000000 1.0
C      1  0.4912470000000  0.5853280000000  0.5582580000000 1.0
C      1  0.3730070000000  0.4577670000000  0.4958760000000 1.0
C      1  0.5254000000000  0.4618530000000  0.5729870000000 1.0
C      1  0.4225710000000  0.4364730000000  0.4307710000000 1.0
C      1  0.4046370000000  0.5572690000000  0.5701780000000 1.0
C      1  0.5082080000000  0.4750330000000  0.4980920000000 1.0
C      1  0.6232950000000  0.6157400000000  0.4268830000000 1.0
C      1  0.6143810000000  0.4292200000000  0.4297820000000 1.0
C      1  0.3595310000000  0.4911090000000  0.4394760000000 1.0
C      1  0.4048590000000  0.5676990000000  0.5221090000000 1.0
C      1  0.4237800000000  0.5782570000000  0.5752620000000 1.0
C      1  0.4589800000000  0.5456470000000  0.4080460000000 1.0
C      1  0.4884120000000  0.5146340000000  0.4236680000000 1.0
C      1  0.4687730000000  0.4706840000000  0.5230720000000 1.0
C      1  0.4647930000000  0.4935700000000  0.5024660000000 1.0
C      1  0.5634910000000  0.5532620000000  0.5026290000000 1.0
C      1  0.4702900000000  0.4655880000000  0.4424260000000 1.0
C      1  0.6138210000000  0.6048410000000  0.4485760000000 1.0
C      1  0.4310340000000  0.4163430000000  0.5906500000000 1.0
C      1  0.4449990000000  0.5144820000000  0.5468030000000 1.0
C      1  0.3852390000000  0.4997410000000  0.4432960000000 1.0
C      1  0.5153680000000  0.4207990000000  0.4297080000000 1.0
C      1  0.4844310000000  0.4855280000000  0.3827950000000 1.0
C      1  0.4671640000000  0.4269160000000  0.4144450000000 1.0
C      1  0.3924170000000  0.5261190000000  0.4362380000000 1.0
C      1  0.6178370000000  0.4950180000000  0.4994350000000 1.0
C      1  0.5152120000000  0.4815020000000  0.5252560000000 1.0
C      1  0.5741150000000  0.5632320000000  0.5827030000000 1.0
C      1  0.5605610000000  0.4920640000000  0.4749560000000 1.0
C      1  0.4921760000000  0.5555770000000  0.5513260000000 1.0
END
