TITL C-627110-360-1537 933.006743726251 125000 -558.161249547103 0 0 94 (C1) n - 1
REM
REM in /home/nfs/bkarasulu/CARBON/AIRSS/Generating-Clusters/LCBOP/Only-C1/SD-CG/FIRE-CG
REM
REM
REM
REM
REM
REM ./C.cell (11c1c37f851c82e70ff6c80c92926a4b)
REM AIRSS Version 0.9.1 bugfix July 2018 build 013d7b7c2542+ Fri, 06 Jul 2018 19:26:36 +0100
REM compiler GCC version 9.2.1 20190827 (Red Hat 9.2.1-1)
REM options -cpp -mtune=generic -march=x86-64 -g -O0 -fpre-include=/usr/include/finclude/math-vector-fortran.h
REM seed 1192488008 -219159995 758709753 -821454211 1430084458 1381533616 -753914070 404800235 1176851658 1998437889 1590510848 676333742 -1253603888 -1497197962 -1744822642 266951152 206538633 776421811 1925271107 -1388714089 -1129958749 2146705184 1834553902 -525881455 -145824306 -1171105222 -1104455353 1631276323 -2139308356 -1060850307 -1333261435 -837153481 257343171
REM
CELL 1.54180   50.00000   50.00000   50.00000   90.00000   90.00000   90.00000
LATT -1
SFAC C  
C      1  0.4117760000000  0.4579770000000  0.5214260000000 1.0
C      1  0.4868050000000  0.5306480000000  0.5922050000000 1.0
C      1  0.4862240000000  0.5560560000000  0.5825430000000 1.0
C      1  0.4758580000000  0.4579950000000  0.4122480000000 1.0
C      1  0.4110380000000  0.4321990000000  0.4611770000000 1.0
C      1  0.5034010000000  0.4727310000000  0.4481170000000 1.0
C      1  0.4471500000000  0.4940500000000  0.4604730000000 1.0
C      1  0.5888350000000  0.6331250000000  0.4853960000000 1.0
C      1  0.4506790000000  0.4666730000000  0.4216530000000 1.0
C      1  0.5740430000000  0.6155250000000  0.4985870000000 1.0
C      1  0.5157390000000  0.5263010000000  0.5476810000000 1.0
C      1  0.5005140000000  0.4984780000000  0.4588890000000 1.0
C      1  0.4736880000000  0.4822880000000  0.5377740000000 1.0
C      1  0.5313470000000  0.5536220000000  0.4459550000000 1.0
C      1  0.5701630000000  0.4413610000000  0.5136610000000 1.0
C      1  0.5244140000000  0.5125670000000  0.4611160000000 1.0
C      1  0.4370010000000  0.5502370000000  0.4599220000000 1.0
C      1  0.5396080000000  0.4917870000000  0.5721750000000 1.0
C      1  0.4481940000000  0.4397340000000  0.4921990000000 1.0
C      1  0.5723420000000  0.4629080000000  0.4416200000000 1.0
C      1  0.4444220000000  0.4940980000000  0.4140770000000 1.0
C      1  0.5117850000000  0.5564800000000  0.4938820000000 1.0
C      1  0.5398710000000  0.5121030000000  0.4825560000000 1.0
C      1  0.5786030000000  0.5317130000000  0.4637950000000 1.0
C      1  0.4872850000000  0.5697410000000  0.4583130000000 1.0
C      1  0.5592590000000  0.5976520000000  0.5113720000000 1.0
C      1  0.4971960000000  0.5790570000000  0.5368050000000 1.0
C      1  0.4884210000000  0.5036650000000  0.4852330000000 1.0
C      1  0.5250570000000  0.4980760000000  0.5449850000000 1.0
C      1  0.4477120000000  0.5112920000000  0.4364640000000 1.0
C      1  0.5734780000000  0.4427230000000  0.4601020000000 1.0
C      1  0.4492720000000  0.5094500000000  0.5748950000000 1.0
C      1  0.4675310000000  0.5097080000000  0.5314890000000 1.0
C      1  0.4680460000000  0.5755300000000  0.4792950000000 1.0
C      1  0.4395140000000  0.4523560000000  0.5166600000000 1.0
C      1  0.4586880000000  0.5030080000000  0.4845810000000 1.0
C      1  0.5834230000000  0.5026330000000  0.4672570000000 1.0
C      1  0.5404470000000  0.4477770000000  0.5595720000000 1.0
C      1  0.5582250000000  0.4710350000000  0.5636230000000 1.0
C      1  0.5159650000000  0.5737920000000  0.5159850000000 1.0
C      1  0.5393790000000  0.5023210000000  0.6245530000000 1.0
C      1  0.5256740000000  0.5156290000000  0.4163680000000 1.0
C      1  0.4982790000000  0.5314150000000  0.4950840000000 1.0
C      1  0.5124160000000  0.4519260000000  0.5709190000000 1.0
C      1  0.4083900000000  0.5017700000000  0.5511370000000 1.0
C      1  0.4924780000000  0.4328820000000  0.5649060000000 1.0
C      1  0.5483590000000  0.4934000000000  0.5258750000000 1.0
C      1  0.5010120000000  0.4828970000000  0.5030780000000 1.0
C      1  0.4040480000000  0.4787080000000  0.5385250000000 1.0
C      1  0.4589390000000  0.4579930000000  0.5367550000000 1.0
C      1  0.5527120000000  0.4337770000000  0.5366230000000 1.0
C      1  0.4686860000000  0.4205490000000  0.4926560000000 1.0
C      1  0.4446800000000  0.4665300000000  0.4507580000000 1.0
C      1  0.5175950000000  0.4027970000000  0.4873500000000 1.0
C      1  0.4914930000000  0.4070460000000  0.4905370000000 1.0
C      1  0.5570330000000  0.5390210000000  0.4450560000000 1.0
C      1  0.4880350000000  0.5280770000000  0.5404650000000 1.0
C      1  0.5528000000000  0.5128540000000  0.4291950000000 1.0
C      1  0.5799290000000  0.4858720000000  0.4920730000000 1.0
C      1  0.5580490000000  0.4372670000000  0.4858920000000 1.0
C      1  0.4039860000000  0.4065740000000  0.4143670000000 1.0
C      1  0.5847420000000  0.4674360000000  0.5158660000000 1.0
C      1  0.5102670000000  0.5397130000000  0.4274440000000 1.0
C      1  0.5713550000000  0.4798280000000  0.5393200000000 1.0
C      1  0.4450410000000  0.5591950000000  0.4862710000000 1.0
C      1  0.5180730000000  0.4565520000000  0.4652080000000 1.0
C      1  0.3926970000000  0.4440960000000  0.5061750000000 1.0
C      1  0.4356050000000  0.4455660000000  0.4670950000000 1.0
C      1  0.4547160000000  0.5380750000000  0.4404030000000 1.0
C      1  0.5150660000000  0.5661610000000  0.4669210000000 1.0
C      1  0.4996840000000  0.4710440000000  0.4200480000000 1.0
C      1  0.6034050000000  0.6503940000000  0.4723900000000 1.0
C      1  0.3916970000000  0.4335720000000  0.4815480000000 1.0
C      1  0.4513700000000  0.5162310000000  0.5085350000000 1.0
C      1  0.5488620000000  0.4885730000000  0.4963380000000 1.0
C      1  0.5384010000000  0.4998240000000  0.5986110000000 1.0
C      1  0.5389360000000  0.5486700000000  0.5854720000000 1.0
C      1  0.5127390000000  0.4922650000000  0.4062520000000 1.0
C      1  0.5023140000000  0.4814670000000  0.5314510000000 1.0
C      1  0.4763650000000  0.5046230000000  0.5852030000000 1.0
C      1  0.4819350000000  0.5489240000000  0.4373090000000 1.0
C      1  0.4398650000000  0.5427570000000  0.5101040000000 1.0
C      1  0.4068420000000  0.4185810000000  0.4373190000000 1.0
C      1  0.4287790000000  0.5204650000000  0.5572900000000 1.0
C      1  0.5355730000000  0.5441080000000  0.5586520000000 1.0
C      1  0.4937700000000  0.4798100000000  0.5830050000000 1.0
C      1  0.5384120000000  0.4612040000000  0.4846180000000 1.0
C      1  0.4306510000000  0.5430780000000  0.5382280000000 1.0
C      1  0.4689860000000  0.4367400000000  0.5524070000000 1.0
C      1  0.5434140000000  0.5778680000000  0.5225460000000 1.0
C      1  0.5425620000000  0.4119840000000  0.4847680000000 1.0
C      1  0.5521120000000  0.5590770000000  0.5413700000000 1.0
C      1  0.5702820000000  0.4914100000000  0.4421380000000 1.0
C      1  0.4884940000000  0.5732540000000  0.5617640000000 1.0
END
