TITL C-627107-135-454 0.00994164000028746 125000 -267.589288679558 0 0 45 (C1) n - 1
REM
REM in /home/nfs/bkarasulu/CARBON/AIRSS/Generating-Clusters/LCBOP/Only-C1/SD-CG/FIRE-CG
REM
REM
REM
REM
REM
REM ./C.cell (11c1c37f851c82e70ff6c80c92926a4b)
REM AIRSS Version 0.9.1 bugfix July 2018 build 013d7b7c2542+ Fri, 06 Jul 2018 19:26:36 +0100
REM compiler GCC version 9.2.1 20190827 (Red Hat 9.2.1-1)
REM options -cpp -mtune=generic -march=x86-64 -g -O0 -fpre-include=/usr/include/finclude/math-vector-fortran.h
REM seed 338372394 1380648444 1847586583 139368989 -1056661262 1114366874 -486584989 -1495124632 -2105591955 703095765 -939085421 1364302558 -176895057 -1998324474 1588283090 1323353608 2126038138 112799397 -1505842563 -1169855965 417220729 -2041092462 1855417138 2051911336 6741700 855047719 -891315591 188055300 -1990710769 2081750471 1606685186 -768777959 828647897
REM
CELL 1.54180   50.00000   50.00000   50.00000   90.00000   90.00000   90.00000
LATT -1
SFAC C  
C      1  0.4462340000000  0.4756460000000  0.5315180000000 1.0
C      1  0.5091390000000  0.4845160000000  0.5415910000000 1.0
C      1  0.5848680000000  0.5225720000000  0.5466500000000 1.0
C      1  0.4848290000000  0.5238850000000  0.4775690000000 1.0
C      1  0.5233120000000  0.5882540000000  0.4766990000000 1.0
C      1  0.4970960000000  0.5023310000000  0.4646430000000 1.0
C      1  0.5405630000000  0.5717920000000  0.4649290000000 1.0
C      1  0.4821210000000  0.4826050000000  0.4504230000000 1.0
C      1  0.5640280000000  0.5404700000000  0.5521000000000 1.0
C      1  0.4552720000000  0.4779100000000  0.4562480000000 1.0
C      1  0.4825640000000  0.5461550000000  0.4918380000000 1.0
C      1  0.4197450000000  0.4268210000000  0.4896610000000 1.0
C      1  0.4968290000000  0.4647390000000  0.4343250000000 1.0
C      1  0.4075100000000  0.4809310000000  0.4638470000000 1.0
C      1  0.4904620000000  0.5688810000000  0.5061500000000 1.0
C      1  0.5255570000000  0.4994160000000  0.4666370000000 1.0
C      1  0.6099950000000  0.5268090000000  0.5564930000000 1.0
C      1  0.5363350000000  0.4752260000000  0.4772510000000 1.0
C      1  0.4517920000000  0.4554050000000  0.5127750000000 1.0
C      1  0.5373750000000  0.4519320000000  0.4604910000000 1.0
C      1  0.4058580000000  0.4048080000000  0.4883680000000 1.0
C      1  0.5161120000000  0.5615330000000  0.5467160000000 1.0
C      1  0.5002260000000  0.5917410000000  0.4922100000000 1.0
C      1  0.5188600000000  0.4664490000000  0.5224130000000 1.0
C      1  0.4476030000000  0.5780420000000  0.5637700000000 1.0
C      1  0.5461030000000  0.4274460000000  0.4711390000000 1.0
C      1  0.4323580000000  0.4698200000000  0.4700740000000 1.0
C      1  0.5791570000000  0.5002110000000  0.5308070000000 1.0
C      1  0.5420890000000  0.5208320000000  0.4596700000000 1.0
C      1  0.5046490000000  0.4419950000000  0.5177230000000 1.0
C      1  0.4691640000000  0.5735460000000  0.5498410000000 1.0
C      1  0.5642000000000  0.4834810000000  0.5166740000000 1.0
C      1  0.4918250000000  0.5680800000000  0.5345140000000 1.0
C      1  0.4604690000000  0.4920900000000  0.5471960000000 1.0
C      1  0.5405650000000  0.5528190000000  0.5520880000000 1.0
C      1  0.5196070000000  0.4190560000000  0.5113220000000 1.0
C      1  0.4344730000000  0.4505050000000  0.4908990000000 1.0
C      1  0.4867510000000  0.4954380000000  0.5513210000000 1.0
C      1  0.5204510000000  0.4524130000000  0.4379390000000 1.0
C      1  0.5375420000000  0.4131480000000  0.4922270000000 1.0
C      1  0.3840810000000  0.4909820000000  0.4584400000000 1.0
C      1  0.5404900000000  0.4739800000000  0.5054000000000 1.0
C      1  0.4874660000000  0.6158340000000  0.4937420000000 1.0
C      1  0.5475090000000  0.5468360000000  0.4589140000000 1.0
C      1  0.4767670000000  0.4426190000000  0.5147530000000 1.0
END
