TITL C-627110-360-600 0.000152900111832476 125000 -620.471989552688 0 0 103 (C1) n - 1
REM
REM in /home/nfs/bkarasulu/CARBON/AIRSS/Generating-Clusters/LCBOP/Only-C1/SD-CG/FIRE-CG
REM
REM
REM
REM
REM
REM ./C.cell (11c1c37f851c82e70ff6c80c92926a4b)
REM AIRSS Version 0.9.1 bugfix July 2018 build 013d7b7c2542+ Fri, 06 Jul 2018 19:26:36 +0100
REM compiler GCC version 9.2.1 20190827 (Red Hat 9.2.1-1)
REM options -cpp -mtune=generic -march=x86-64 -g -O0 -fpre-include=/usr/include/finclude/math-vector-fortran.h
REM seed 119025065 -889782593 -202552590 792179309 580106512 -374946013 -1962364880 1510979943 -1281084539 -739326025 -563544250 1673993447 172044001 1485192143 1644418673 775823915 -1952166825 1860363686 748848536 1768795321 1973262369 -470748051 -109808315 1206870176 408665082 -2136210560 -1399270386 264564321 -934312351 -1652244241 366358071 -595008722 1311650334
REM
CELL 1.54180   50.00000   50.00000   50.00000   90.00000   90.00000   90.00000
LATT -1
SFAC C  
C      1  0.5469520000000  0.5931820000000  0.5367440000000 1.0
C      1  0.4295580000000  0.5896670000000  0.5332560000000 1.0
C      1  0.4924890000000  0.5004610000000  0.4672430000000 1.0
C      1  0.4879380000000  0.4174120000000  0.5863750000000 1.0
C      1  0.4444220000000  0.4450240000000  0.4344380000000 1.0
C      1  0.5214360000000  0.4632020000000  0.4236250000000 1.0
C      1  0.5090940000000  0.4568510000000  0.4484340000000 1.0
C      1  0.4737330000000  0.5208570000000  0.4625960000000 1.0
C      1  0.5087450000000  0.5022970000000  0.3974190000000 1.0
C      1  0.5459000000000  0.4801600000000  0.5812720000000 1.0
C      1  0.4761380000000  0.4681710000000  0.4052340000000 1.0
C      1  0.4643790000000  0.3782290000000  0.5635070000000 1.0
C      1  0.5647720000000  0.6132720000000  0.5416540000000 1.0
C      1  0.3767520000000  0.4810980000000  0.5335740000000 1.0
C      1  0.5672770000000  0.4765580000000  0.4053650000000 1.0
C      1  0.5572810000000  0.5681150000000  0.4682140000000 1.0
C      1  0.4978140000000  0.5383350000000  0.6201380000000 1.0
C      1  0.5767950000000  0.5028810000000  0.4011590000000 1.0
C      1  0.4255120000000  0.5322240000000  0.3960590000000 1.0
C      1  0.5584070000000  0.5211220000000  0.3879190000000 1.0
C      1  0.5014160000000  0.4402790000000  0.5145240000000 1.0
C      1  0.4461830000000  0.4259390000000  0.4791880000000 1.0
C      1  0.4942540000000  0.5901820000000  0.4559430000000 1.0
C      1  0.4645840000000  0.5600520000000  0.5159570000000 1.0
C      1  0.6372650000000  0.4726000000000  0.4287840000000 1.0
C      1  0.4650450000000  0.4154430000000  0.4946410000000 1.0
C      1  0.5085910000000  0.4219990000000  0.5668180000000 1.0
C      1  0.5101740000000  0.5968020000000  0.4346980000000 1.0
C      1  0.5045920000000  0.5304690000000  0.5948900000000 1.0
C      1  0.4289140000000  0.5292330000000  0.5654410000000 1.0
C      1  0.4661970000000  0.3550680000000  0.5206310000000 1.0
C      1  0.6264320000000  0.4591040000000  0.4488590000000 1.0
C      1  0.4776780000000  0.4659980000000  0.6038670000000 1.0
C      1  0.4478070000000  0.5138740000000  0.4725460000000 1.0
C      1  0.5243040000000  0.5437460000000  0.5800660000000 1.0
C      1  0.4992030000000  0.4747040000000  0.4658640000000 1.0
C      1  0.5151460000000  0.4570580000000  0.5322780000000 1.0
C      1  0.4917180000000  0.5084180000000  0.5823130000000 1.0
C      1  0.5369080000000  0.5075360000000  0.5242520000000 1.0
C      1  0.4924370000000  0.6307960000000  0.4823520000000 1.0
C      1  0.5470230000000  0.5208590000000  0.4779110000000 1.0
C      1  0.5577130000000  0.4756850000000  0.4522640000000 1.0
C      1  0.5649460000000  0.5932570000000  0.4715810000000 1.0
C      1  0.5628400000000  0.4130550000000  0.5189960000000 1.0
C      1  0.4529520000000  0.4772350000000  0.6105110000000 1.0
C      1  0.4344400000000  0.4936010000000  0.4575300000000 1.0
C      1  0.4973180000000  0.4816780000000  0.5903040000000 1.0
C      1  0.5585460000000  0.4989500000000  0.5668380000000 1.0
C      1  0.5422910000000  0.5346450000000  0.4083210000000 1.0
C      1  0.5149830000000  0.5274950000000  0.4083820000000 1.0
C      1  0.5990690000000  0.4340680000000  0.4865920000000 1.0
C      1  0.5240650000000  0.5974920000000  0.5211830000000 1.0
C      1  0.4522890000000  0.4679980000000  0.4199880000000 1.0
C      1  0.5536030000000  0.5418780000000  0.4595030000000 1.0
C      1  0.4934180000000  0.3948980000000  0.5296320000000 1.0
C      1  0.4429550000000  0.5203350000000  0.4995000000000 1.0
C      1  0.4325640000000  0.4925170000000  0.6027980000000 1.0
C      1  0.4451500000000  0.5808970000000  0.5117820000000 1.0
C      1  0.4813110000000  0.4382050000000  0.6038860000000 1.0
C      1  0.4968320000000  0.6038000000000  0.4809080000000 1.0
C      1  0.4246850000000  0.4698160000000  0.4703630000000 1.0
C      1  0.4518040000000  0.5249280000000  0.5486170000000 1.0
C      1  0.4871530000000  0.4162180000000  0.5116440000000 1.0
C      1  0.5488340000000  0.5177670000000  0.5481400000000 1.0
C      1  0.5495520000000  0.4685080000000  0.4259560000000 1.0
C      1  0.5421160000000  0.5434940000000  0.5583600000000 1.0
C      1  0.5555610000000  0.4948790000000  0.4707540000000 1.0
C      1  0.5817420000000  0.4231590000000  0.5034150000000 1.0
C      1  0.4740760000000  0.3751980000000  0.5372060000000 1.0
C      1  0.5716190000000  0.6184310000000  0.4727450000000 1.0
C      1  0.4233250000000  0.5105280000000  0.5855160000000 1.0
C      1  0.4156870000000  0.5538660000000  0.5646230000000 1.0
C      1  0.5203340000000  0.4686910000000  0.5794810000000 1.0
C      1  0.4956940000000  0.5401050000000  0.4238160000000 1.0
C      1  0.5172420000000  0.3989250000000  0.5485650000000 1.0
C      1  0.6472680000000  0.4860570000000  0.4088220000000 1.0
C      1  0.4743160000000  0.5135230000000  0.5609130000000 1.0
C      1  0.5034320000000  0.5890500000000  0.5042850000000 1.0
C      1  0.5824260000000  0.5183690000000  0.4254750000000 1.0
C      1  0.5225260000000  0.3739140000000  0.5650120000000 1.0
C      1  0.5507710000000  0.5674780000000  0.5472040000000 1.0
C      1  0.4051750000000  0.4707410000000  0.4901730000000 1.0
C      1  0.4921080000000  0.5632050000000  0.5088090000000 1.0
C      1  0.4532010000000  0.5342880000000  0.5217840000000 1.0
C      1  0.5316270000000  0.5243380000000  0.5017940000000 1.0
C      1  0.5594550000000  0.5352020000000  0.4326080000000 1.0
C      1  0.3641270000000  0.4878380000000  0.5553640000000 1.0
C      1  0.4479790000000  0.5784650000000  0.4615180000000 1.0
C      1  0.4364200000000  0.4451580000000  0.4615650000000 1.0
C      1  0.4310570000000  0.5119950000000  0.4115220000000 1.0
C      1  0.4736240000000  0.5705460000000  0.4534540000000 1.0
C      1  0.5159120000000  0.4487290000000  0.5597130000000 1.0
C      1  0.4378920000000  0.5858540000000  0.4851660000000 1.0
C      1  0.4711640000000  0.3950840000000  0.5832540000000 1.0
C      1  0.4166270000000  0.5781440000000  0.5536060000000 1.0
C      1  0.6140850000000  0.4460180000000  0.4683150000000 1.0
C      1  0.5419830000000  0.4054320000000  0.5334230000000 1.0
C      1  0.4800010000000  0.5437330000000  0.4467210000000 1.0
C      1  0.5094760000000  0.5415680000000  0.5038950000000 1.0
C      1  0.4391290000000  0.4919310000000  0.4290130000000 1.0
C      1  0.5033200000000  0.4759020000000  0.4051990000000 1.0
C      1  0.5270050000000  0.4811330000000  0.5242070000000 1.0
C      1  0.3899200000000  0.4748260000000  0.5114420000000 1.0
END
