TITL C-627112-676-1220 2.60745233882961e-06 125000 -705.165054608293 0 0 116 (C1) n - 1
REM
REM in /home/nfs/bkarasulu/CARBON/AIRSS/Generating-Clusters/LCBOP/Only-C1/SD-CG/FIRE-CG
REM
REM
REM
REM
REM
REM ./C.cell (11c1c37f851c82e70ff6c80c92926a4b)
REM AIRSS Version 0.9.1 bugfix July 2018 build 013d7b7c2542+ Fri, 06 Jul 2018 19:26:36 +0100
REM compiler GCC version 9.2.1 20190827 (Red Hat 9.2.1-1)
REM options -cpp -mtune=generic -march=x86-64 -g -O0 -fpre-include=/usr/include/finclude/math-vector-fortran.h
REM seed -1729176564 -1916710904 1138719099 1253687811 -1412816148 8351200 1382015707 -573631655 1397248031 317250601 4311270 -583891483 698606112 -288605242 1366488624 1530439527 -692068017 1517717361 -1592986738 -895873062 1479379170 1038951178 -372889995 -790470531 1589359514 -258420942 197789445 -814032914 1510051526 1311284584 946254039 98111939 1346728542
REM
CELL 1.54180   50.00000   50.00000   50.00000   90.00000   90.00000   90.00000
LATT -1
SFAC C  
C      1  0.5616560000000  0.4865800000000  0.4313230000000 1.0
C      1  0.6133830000000  0.4718000000000  0.5092420000000 1.0
C      1  0.4261250000000  0.4439020000000  0.5291820000000 1.0
C      1  0.5040550000000  0.4976750000000  0.4950060000000 1.0
C      1  0.5575750000000  0.4270310000000  0.5151690000000 1.0
C      1  0.5079190000000  0.4284860000000  0.5105490000000 1.0
C      1  0.4592800000000  0.5948980000000  0.4804490000000 1.0
C      1  0.5814580000000  0.5409460000000  0.5455600000000 1.0
C      1  0.4496960000000  0.5789200000000  0.5783540000000 1.0
C      1  0.4237980000000  0.4953910000000  0.5693860000000 1.0
C      1  0.5920590000000  0.5596620000000  0.5259210000000 1.0
C      1  0.4008000000000  0.4926390000000  0.4839180000000 1.0
C      1  0.5672630000000  0.5067760000000  0.4481150000000 1.0
C      1  0.5075820000000  0.6030530000000  0.4973920000000 1.0
C      1  0.4325230000000  0.3975030000000  0.5080260000000 1.0
C      1  0.4925570000000  0.4767540000000  0.5111190000000 1.0
C      1  0.4493780000000  0.5268400000000  0.5956910000000 1.0
C      1  0.5313040000000  0.4788490000000  0.3510880000000 1.0
C      1  0.4712370000000  0.5454260000000  0.5568150000000 1.0
C      1  0.4271550000000  0.4163900000000  0.5299020000000 1.0
C      1  0.4262000000000  0.3717090000000  0.5447820000000 1.0
C      1  0.5284060000000  0.4979140000000  0.5958270000000 1.0
C      1  0.4640100000000  0.5002560000000  0.5413150000000 1.0
C      1  0.5317670000000  0.5884940000000  0.5576690000000 1.0
C      1  0.4699040000000  0.4321560000000  0.4569110000000 1.0
C      1  0.4602630000000  0.4438210000000  0.4325050000000 1.0
C      1  0.4770670000000  0.4838030000000  0.4094770000000 1.0
C      1  0.5502550000000  0.5694340000000  0.4753360000000 1.0
C      1  0.4318460000000  0.3711920000000  0.5175040000000 1.0
C      1  0.5353970000000  0.5435530000000  0.5982320000000 1.0
C      1  0.5089700000000  0.4990740000000  0.4458800000000 1.0
C      1  0.5600410000000  0.5043190000000  0.4964660000000 1.0
C      1  0.4944310000000  0.5605050000000  0.5598660000000 1.0
C      1  0.4894660000000  0.4865970000000  0.5380980000000 1.0
C      1  0.5669700000000  0.5197280000000  0.4731070000000 1.0
C      1  0.4529130000000  0.5391270000000  0.5099200000000 1.0
C      1  0.4386630000000  0.5803820000000  0.4901800000000 1.0
C      1  0.4174510000000  0.5001540000000  0.4280680000000 1.0
C      1  0.4991310000000  0.4121870000000  0.5315440000000 1.0
C      1  0.5499960000000  0.4699080000000  0.3676660000000 1.0
C      1  0.5166370000000  0.5201960000000  0.5086310000000 1.0
C      1  0.4522110000000  0.4672480000000  0.4813630000000 1.0
C      1  0.5550890000000  0.5473140000000  0.5525400000000 1.0
C      1  0.4625340000000  0.5288480000000  0.5353450000000 1.0
C      1  0.5529380000000  0.4618240000000  0.5859540000000 1.0
C      1  0.5326570000000  0.5857750000000  0.4948330000000 1.0
C      1  0.4684300000000  0.5358660000000  0.4856940000000 1.0
C      1  0.5074860000000  0.4875810000000  0.3431820000000 1.0
C      1  0.4925090000000  0.5496160000000  0.4827780000000 1.0
C      1  0.5317200000000  0.5626710000000  0.4539090000000 1.0
C      1  0.5057510000000  0.5559590000000  0.4585280000000 1.0
C      1  0.4775940000000  0.6077650000000  0.5430460000000 1.0
C      1  0.5417900000000  0.5690830000000  0.5396220000000 1.0
C      1  0.5398710000000  0.5329830000000  0.5707880000000 1.0
C      1  0.5636420000000  0.4604690000000  0.3901760000000 1.0
C      1  0.5440070000000  0.5189520000000  0.5143550000000 1.0
C      1  0.4970380000000  0.6096620000000  0.5239680000000 1.0
C      1  0.5341010000000  0.4236560000000  0.4995420000000 1.0
C      1  0.4304070000000  0.5551150000000  0.5008200000000 1.0
C      1  0.4810750000000  0.4842680000000  0.6086560000000 1.0
C      1  0.4627300000000  0.4975550000000  0.3657230000000 1.0
C      1  0.4047810000000  0.5198580000000  0.4746350000000 1.0
C      1  0.5380450000000  0.4279330000000  0.4464840000000 1.0
C      1  0.5179610000000  0.4892280000000  0.5472730000000 1.0
C      1  0.5721160000000  0.4745240000000  0.5707260000000 1.0
C      1  0.5117490000000  0.5777860000000  0.5745030000000 1.0
C      1  0.4599260000000  0.5163820000000  0.4680470000000 1.0
C      1  0.5008400000000  0.4652010000000  0.6064620000000 1.0
C      1  0.6169620000000  0.4969130000000  0.4998000000000 1.0
C      1  0.5722580000000  0.5482640000000  0.4804670000000 1.0
C      1  0.5368130000000  0.4194740000000  0.4717780000000 1.0
C      1  0.4385670000000  0.4876510000000  0.5466840000000 1.0
C      1  0.5861790000000  0.4851190000000  0.5476830000000 1.0
C      1  0.5275040000000  0.5659850000000  0.5155350000000 1.0
C      1  0.5941110000000  0.4641260000000  0.5285610000000 1.0
C      1  0.4822310000000  0.4945530000000  0.3478150000000 1.0
C      1  0.4254080000000  0.5132610000000  0.5892840000000 1.0
C      1  0.6029960000000  0.5188600000000  0.5104960000000 1.0
C      1  0.4071340000000  0.4842610000000  0.5097840000000 1.0
C      1  0.5089290000000  0.5466900000000  0.5057670000000 1.0
C      1  0.5941150000000  0.5460660000000  0.5006030000000 1.0
C      1  0.5152180000000  0.4882700000000  0.4705080000000 1.0
C      1  0.4540920000000  0.5502950000000  0.5796320000000 1.0
C      1  0.5282310000000  0.4697780000000  0.5988160000000 1.0
C      1  0.5785830000000  0.4407140000000  0.5248550000000 1.0
C      1  0.4520360000000  0.4913100000000  0.4703320000000 1.0
C      1  0.4330550000000  0.5034320000000  0.4050770000000 1.0
C      1  0.4098110000000  0.5208810000000  0.4463620000000 1.0
C      1  0.4602960000000  0.5982680000000  0.5618940000000 1.0
C      1  0.4906690000000  0.4494690000000  0.5014610000000 1.0
C      1  0.4146590000000  0.4732830000000  0.4387120000000 1.0
C      1  0.3999440000000  0.4729690000000  0.4630880000000 1.0
C      1  0.4946970000000  0.5004810000000  0.4235040000000 1.0
C      1  0.4929550000000  0.3984020000000  0.5527770000000 1.0
C      1  0.5907990000000  0.5135050000000  0.5385400000000 1.0
C      1  0.5278800000000  0.5067130000000  0.5679730000000 1.0
C      1  0.5320660000000  0.5197200000000  0.6134010000000 1.0
C      1  0.3822370000000  0.5520400000000  0.5027530000000 1.0
C      1  0.4568580000000  0.4949420000000  0.3929150000000 1.0
C      1  0.4705070000000  0.4459530000000  0.4815770000000 1.0
C      1  0.5064530000000  0.4459690000000  0.4147320000000 1.0
C      1  0.5361050000000  0.4702780000000  0.4775270000000 1.0
C      1  0.5525720000000  0.4644020000000  0.4161950000000 1.0
C      1  0.4058970000000  0.5423250000000  0.4926620000000 1.0
C      1  0.4854460000000  0.6019540000000  0.4791430000000 1.0
C      1  0.5371970000000  0.4759390000000  0.5283740000000 1.0
C      1  0.4800370000000  0.4560070000000  0.4156920000000 1.0
C      1  0.4693480000000  0.5087570000000  0.6061160000000 1.0
C      1  0.4243600000000  0.4717140000000  0.5280440000000 1.0
C      1  0.5500310000000  0.4775680000000  0.5013780000000 1.0
C      1  0.5212950000000  0.5677560000000  0.5991680000000 1.0
C      1  0.4232750000000  0.3983570000000  0.5527910000000 1.0
C      1  0.5879790000000  0.4470720000000  0.3873850000000 1.0
C      1  0.5327000000000  0.4456760000000  0.4252720000000 1.0
C      1  0.4332420000000  0.4530110000000  0.4315490000000 1.0
C      1  0.6106770000000  0.4344220000000  0.3853990000000 1.0
END
