TITL C-627109-622-324 2.82045705745463e-06 125000 -866.811281308471 0 0 143 (C1) n - 1
REM
REM in /home/nfs/bkarasulu/CARBON/AIRSS/Generating-Clusters/LCBOP/Only-C1/SD-CG/FIRE-CG
REM
REM
REM
REM
REM
REM ./C.cell (11c1c37f851c82e70ff6c80c92926a4b)
REM AIRSS Version 0.9.1 bugfix July 2018 build 013d7b7c2542+ Fri, 06 Jul 2018 19:26:36 +0100
REM compiler GCC version 9.2.1 20190827 (Red Hat 9.2.1-1)
REM options -cpp -mtune=generic -march=x86-64 -g -O0 -fpre-include=/usr/include/finclude/math-vector-fortran.h
REM seed 840959729 -374958495 -136324029 -1218500591 -1449171675 1663930747 625140153 -217424182 -774221143 758276902 1339398914 1698468829 2096185530 969030404 -1096821099 1543145835 -1202385270 -540673797 1238563172 -1342245613 2041576661 881011039 702984006 -1715348873 2132011594 1706294750 -225851541 313595351 658647532 -151349581 -821385377 348983096 -1462057093
REM
CELL 1.54180   50.00000   50.00000   50.00000   90.00000   90.00000   90.00000
LATT -1
SFAC C  
C      1  0.5414470000000  0.5259210000000  0.5027680000000 1.0
C      1  0.3770140000000  0.5003410000000  0.5510350000000 1.0
C      1  0.5601230000000  0.5709870000000  0.5137900000000 1.0
C      1  0.4415220000000  0.4361840000000  0.5429390000000 1.0
C      1  0.4038150000000  0.5034090000000  0.5424040000000 1.0
C      1  0.5734850000000  0.4373450000000  0.4483150000000 1.0
C      1  0.4673420000000  0.5109980000000  0.5337720000000 1.0
C      1  0.5622960000000  0.4656980000000  0.4812970000000 1.0
C      1  0.5747010000000  0.5766600000000  0.5558230000000 1.0
C      1  0.4908340000000  0.4811220000000  0.4858350000000 1.0
C      1  0.4931550000000  0.5226150000000  0.5329580000000 1.0
C      1  0.4467100000000  0.4597000000000  0.4680020000000 1.0
C      1  0.3265870000000  0.4940950000000  0.5644750000000 1.0
C      1  0.5177760000000  0.4790910000000  0.5253430000000 1.0
C      1  0.5394390000000  0.5908480000000  0.4698100000000 1.0
C      1  0.4570730000000  0.4753290000000  0.3998420000000 1.0
C      1  0.6007880000000  0.5693240000000  0.5462280000000 1.0
C      1  0.5588040000000  0.5050600000000  0.5111870000000 1.0
C      1  0.4515790000000  0.5072340000000  0.4472070000000 1.0
C      1  0.4295690000000  0.4464080000000  0.4518740000000 1.0
C      1  0.4565690000000  0.5108810000000  0.5595810000000 1.0
C      1  0.4248430000000  0.5635500000000  0.5536380000000 1.0
C      1  0.5159140000000  0.4550540000000  0.3670590000000 1.0
C      1  0.6686750000000  0.4577980000000  0.5503610000000 1.0
C      1  0.5305000000000  0.4441080000000  0.4234870000000 1.0
C      1  0.5015490000000  0.3941250000000  0.5498110000000 1.0
C      1  0.5373730000000  0.4924730000000  0.6026250000000 1.0
C      1  0.4963560000000  0.5511490000000  0.5330340000000 1.0
C      1  0.5978490000000  0.4365580000000  0.5379470000000 1.0
C      1  0.5946420000000  0.4893890000000  0.4620360000000 1.0
C      1  0.5468570000000  0.4180820000000  0.4904040000000 1.0
C      1  0.5120220000000  0.5328370000000  0.6002910000000 1.0
C      1  0.5211170000000  0.5560020000000  0.4279790000000 1.0
C      1  0.5175960000000  0.5242530000000  0.4871020000000 1.0
C      1  0.5823540000000  0.5131730000000  0.4506710000000 1.0
C      1  0.4080120000000  0.5267890000000  0.5241190000000 1.0
C      1  0.6017400000000  0.4859460000000  0.4918830000000 1.0
C      1  0.5810110000000  0.5758590000000  0.4961860000000 1.0
C      1  0.4512090000000  0.5674750000000  0.4335710000000 1.0
C      1  0.5552430000000  0.5880950000000  0.5368810000000 1.0
C      1  0.4353190000000  0.5513890000000  0.4497690000000 1.0
C      1  0.4543410000000  0.5213240000000  0.5839170000000 1.0
C      1  0.5380850000000  0.4986140000000  0.3791730000000 1.0
C      1  0.4622160000000  0.5439700000000  0.5985300000000 1.0
C      1  0.4224430000000  0.4827250000000  0.5534100000000 1.0
C      1  0.4763720000000  0.4301420000000  0.4162690000000 1.0
C      1  0.5320930000000  0.4832400000000  0.4496370000000 1.0
C      1  0.4687480000000  0.6266020000000  0.4564730000000 1.0
C      1  0.4281520000000  0.5776590000000  0.5776770000000 1.0
C      1  0.4760090000000  0.4000620000000  0.5394950000000 1.0
C      1  0.5386990000000  0.5043020000000  0.4313920000000 1.0
C      1  0.5825570000000  0.4919520000000  0.5566190000000 1.0
C      1  0.4997320000000  0.5261720000000  0.3713830000000 1.0
C      1  0.4989570000000  0.5709110000000  0.4304860000000 1.0
C      1  0.5818770000000  0.4651770000000  0.5023690000000 1.0
C      1  0.6196750000000  0.4999310000000  0.5094000000000 1.0
C      1  0.4417230000000  0.4612570000000  0.5593820000000 1.0
C      1  0.4709360000000  0.4604580000000  0.5704500000000 1.0
C      1  0.4745300000000  0.4963370000000  0.4353150000000 1.0
C      1  0.5538300000000  0.5726900000000  0.4560940000000 1.0
C      1  0.5305700000000  0.4321750000000  0.5389800000000 1.0
C      1  0.4555100000000  0.3860590000000  0.5258220000000 1.0
C      1  0.5071250000000  0.4288600000000  0.5830470000000 1.0
C      1  0.5366230000000  0.4719410000000  0.3701830000000 1.0
C      1  0.4252240000000  0.4242680000000  0.5227730000000 1.0
C      1  0.5267670000000  0.5909570000000  0.5404620000000 1.0
C      1  0.4964080000000  0.5891880000000  0.5018180000000 1.0
C      1  0.4973860000000  0.4192180000000  0.4649190000000 1.0
C      1  0.4088420000000  0.5578370000000  0.4568380000000 1.0
C      1  0.6131440000000  0.5492230000000  0.5327880000000 1.0
C      1  0.4719680000000  0.4500460000000  0.3957280000000 1.0
C      1  0.4714130000000  0.5998840000000  0.4619080000000 1.0
C      1  0.5147480000000  0.5046300000000  0.5393380000000 1.0
C      1  0.5512710000000  0.4291690000000  0.5179830000000 1.0
C      1  0.5318630000000  0.5163350000000  0.5591030000000 1.0
C      1  0.5299030000000  0.4759590000000  0.6222000000000 1.0
C      1  0.5680970000000  0.4192990000000  0.4705350000000 1.0
C      1  0.5768450000000  0.4437250000000  0.5209150000000 1.0
C      1  0.6168740000000  0.5270030000000  0.5179090000000 1.0
C      1  0.6439410000000  0.4615710000000  0.5394740000000 1.0
C      1  0.5557890000000  0.4349730000000  0.4263090000000 1.0
C      1  0.4843440000000  0.4533470000000  0.6195580000000 1.0
C      1  0.6024880000000  0.5834530000000  0.4834440000000 1.0
C      1  0.5185240000000  0.4148920000000  0.5599080000000 1.0
C      1  0.4516120000000  0.5299780000000  0.4926590000000 1.0
C      1  0.4893190000000  0.4185230000000  0.4372860000000 1.0
C      1  0.4458210000000  0.5664940000000  0.5964630000000 1.0
C      1  0.4703230000000  0.5903910000000  0.4892380000000 1.0
C      1  0.4858930000000  0.4503030000000  0.5466220000000 1.0
C      1  0.4722220000000  0.4589150000000  0.4808220000000 1.0
C      1  0.4083450000000  0.4424280000000  0.5095900000000 1.0
C      1  0.5794220000000  0.4641920000000  0.4572420000000 1.0
C      1  0.4859730000000  0.4473380000000  0.5919560000000 1.0
C      1  0.4771870000000  0.4301340000000  0.4815700000000 1.0
C      1  0.5371520000000  0.4760450000000  0.4770830000000 1.0
C      1  0.5619980000000  0.5547370000000  0.5690930000000 1.0
C      1  0.4483450000000  0.5298720000000  0.4639550000000 1.0
C      1  0.4889240000000  0.5444240000000  0.6066460000000 1.0
C      1  0.5477710000000  0.5463650000000  0.5213970000000 1.0
C      1  0.5714810000000  0.4969110000000  0.5334740000000 1.0
C      1  0.5214040000000  0.4130510000000  0.4785580000000 1.0
C      1  0.5662020000000  0.5499650000000  0.5955510000000 1.0
C      1  0.5259210000000  0.5186340000000  0.3618250000000 1.0
C      1  0.5575720000000  0.5241550000000  0.4401090000000 1.0
C      1  0.4908280000000  0.4493930000000  0.3745600000000 1.0
C      1  0.4466420000000  0.5525000000000  0.5099770000000 1.0
C      1  0.4694850000000  0.4279580000000  0.5400590000000 1.0
C      1  0.4021420000000  0.5597820000000  0.4846850000000 1.0
C      1  0.5167820000000  0.4752130000000  0.4969090000000 1.0
C      1  0.4614900000000  0.4499550000000  0.6339970000000 1.0
C      1  0.5472420000000  0.5388080000000  0.5502250000000 1.0
C      1  0.4747180000000  0.4983000000000  0.4063340000000 1.0
C      1  0.4460090000000  0.5790770000000  0.4994920000000 1.0
C      1  0.4892840000000  0.4725200000000  0.4398690000000 1.0
C      1  0.3516170000000  0.4972080000000  0.5578840000000 1.0
C      1  0.5156520000000  0.4639760000000  0.4367820000000 1.0
C      1  0.5255320000000  0.5045190000000  0.4055850000000 1.0
C      1  0.4552820000000  0.4129530000000  0.4872660000000 1.0
C      1  0.5464870000000  0.5508560000000  0.4400230000000 1.0
C      1  0.6382420000000  0.4838160000000  0.5232390000000 1.0
C      1  0.6229400000000  0.4434170000000  0.5439720000000 1.0
C      1  0.3975740000000  0.5325870000000  0.4966300000000 1.0
C      1  0.5183670000000  0.5964900000000  0.4852250000000 1.0
C      1  0.4975140000000  0.5118530000000  0.3966830000000 1.0
C      1  0.4529410000000  0.5065020000000  0.5093520000000 1.0
C      1  0.3948280000000  0.5122190000000  0.4761420000000 1.0
C      1  0.5275830000000  0.5134880000000  0.5870320000000 1.0
C      1  0.5041120000000  0.5780720000000  0.5272890000000 1.0
C      1  0.4951260000000  0.5096760000000  0.4803270000000 1.0
C      1  0.4344060000000  0.4859770000000  0.5049300000000 1.0
C      1  0.4173070000000  0.5824890000000  0.4952890000000 1.0
C      1  0.5081700000000  0.4630570000000  0.6308650000000 1.0
C      1  0.4146540000000  0.4678880000000  0.5036530000000 1.0
C      1  0.4816980000000  0.5427340000000  0.3598730000000 1.0
C      1  0.4397990000000  0.4032490000000  0.5088230000000 1.0
C      1  0.4747680000000  0.5809690000000  0.4406500000000 1.0
C      1  0.4228510000000  0.4510700000000  0.4260570000000 1.0
C      1  0.4276610000000  0.5469210000000  0.5314230000000 1.0
C      1  0.4039890000000  0.5017280000000  0.4526240000000 1.0
C      1  0.4268920000000  0.4969960000000  0.4358360000000 1.0
C      1  0.4316140000000  0.4759720000000  0.4153960000000 1.0
C      1  0.4149320000000  0.6010200000000  0.5825320000000 1.0
C      1  0.5124960000000  0.4550460000000  0.5386180000000 1.0
END
