TITL C-627109-622-541 0.00246925471843337 125000 -912.832390143416 0 0 147 (C1) n - 1
REM
REM in /home/nfs/bkarasulu/CARBON/AIRSS/Generating-Clusters/LCBOP/Only-C1/SD-CG/FIRE-CG
REM
REM
REM
REM
REM
REM ./C.cell (11c1c37f851c82e70ff6c80c92926a4b)
REM AIRSS Version 0.9.1 bugfix July 2018 build 013d7b7c2542+ Fri, 06 Jul 2018 19:26:36 +0100
REM compiler GCC version 9.2.1 20190827 (Red Hat 9.2.1-1)
REM options -cpp -mtune=generic -march=x86-64 -g -O0 -fpre-include=/usr/include/finclude/math-vector-fortran.h
REM seed 650408668 852324162 301518651 -320399897 1515887434 -969515758 -1965206354 2075700061 -1981138124 -1689537014 -1422051281 1721810123 -495174396 -1108741750 483970049 -327706920 -1425232116 1877131466 1807096514 -1752961670 2006448105 1581263111 1497420463 -1441857639 -1585550631 -1786814064 1073938049 -957954488 -983694113 -859438466 -64938964 -35093235 -1075845355
REM
CELL 1.54180   50.00000   50.00000   50.00000   90.00000   90.00000   90.00000
LATT -1
SFAC C  
C      1  0.5316130000000  0.5597950000000  0.4878000000000 1.0
C      1  0.4417430000000  0.5694330000000  0.4546330000000 1.0
C      1  0.5378020000000  0.4874720000000  0.3893350000000 1.0
C      1  0.4882810000000  0.4317520000000  0.5800630000000 1.0
C      1  0.4899560000000  0.5709220000000  0.4112710000000 1.0
C      1  0.5605210000000  0.4911030000000  0.4062640000000 1.0
C      1  0.4052790000000  0.4935250000000  0.4477780000000 1.0
C      1  0.5302100000000  0.5882790000000  0.4847950000000 1.0
C      1  0.6084020000000  0.5520060000000  0.4049540000000 1.0
C      1  0.5595800000000  0.4446200000000  0.5137840000000 1.0
C      1  0.5578340000000  0.5923280000000  0.5688540000000 1.0
C      1  0.4857170000000  0.5756850000000  0.3855160000000 1.0
C      1  0.5658300000000  0.5293770000000  0.4560870000000 1.0
C      1  0.5203500000000  0.4696310000000  0.5952520000000 1.0
C      1  0.3988790000000  0.5028830000000  0.5186110000000 1.0
C      1  0.5685890000000  0.4771310000000  0.4803290000000 1.0
C      1  0.5409600000000  0.6084780000000  0.4409260000000 1.0
C      1  0.5833820000000  0.4301850000000  0.5741870000000 1.0
C      1  0.6098710000000  0.5531020000000  0.4522820000000 1.0
C      1  0.4255620000000  0.5131950000000  0.5970380000000 1.0
C      1  0.5354990000000  0.4579670000000  0.4387640000000 1.0
C      1  0.4606980000000  0.4255150000000  0.5723490000000 1.0
C      1  0.4448220000000  0.4471980000000  0.5622930000000 1.0
C      1  0.5195140000000  0.5773340000000  0.5315080000000 1.0
C      1  0.5775830000000  0.4724040000000  0.4534820000000 1.0
C      1  0.3880130000000  0.4810350000000  0.5326630000000 1.0
C      1  0.4083140000000  0.4330720000000  0.4883180000000 1.0
C      1  0.6081040000000  0.5953420000000  0.4291540000000 1.0
C      1  0.4740380000000  0.5373980000000  0.5049390000000 1.0
C      1  0.4738880000000  0.6102790000000  0.4582910000000 1.0
C      1  0.4686220000000  0.5027920000000  0.4186070000000 1.0
C      1  0.4163340000000  0.4480510000000  0.5555940000000 1.0
C      1  0.5280190000000  0.4099180000000  0.5213990000000 1.0
C      1  0.5127440000000  0.5190220000000  0.6221800000000 1.0
C      1  0.4975770000000  0.5782260000000  0.5954820000000 1.0
C      1  0.5779040000000  0.5867790000000  0.5852970000000 1.0
C      1  0.5337990000000  0.3618620000000  0.4411310000000 1.0
C      1  0.4658170000000  0.5026760000000  0.4767250000000 1.0
C      1  0.5160340000000  0.5587340000000  0.5967320000000 1.0
C      1  0.4770420000000  0.3799130000000  0.5680640000000 1.0
C      1  0.4420230000000  0.5096720000000  0.5400620000000 1.0
C      1  0.4356770000000  0.3771320000000  0.5188410000000 1.0
C      1  0.4747560000000  0.5881000000000  0.5526210000000 1.0
C      1  0.5388820000000  0.4754140000000  0.4864280000000 1.0
C      1  0.5479500000000  0.4087260000000  0.4596120000000 1.0
C      1  0.4973270000000  0.6172380000000  0.5013280000000 1.0
C      1  0.4105750000000  0.5041040000000  0.4731990000000 1.0
C      1  0.4945950000000  0.4619920000000  0.4651500000000 1.0
C      1  0.4533130000000  0.4950080000000  0.5611980000000 1.0
C      1  0.4820520000000  0.5794990000000  0.3599930000000 1.0
C      1  0.5112160000000  0.5260960000000  0.4086160000000 1.0
C      1  0.5867630000000  0.4967790000000  0.6017540000000 1.0
C      1  0.5401590000000  0.5656670000000  0.4104370000000 1.0
C      1  0.4894770000000  0.5060150000000  0.6245230000000 1.0
C      1  0.4653750000000  0.5850750000000  0.4489460000000 1.0
C      1  0.4269640000000  0.3869120000000  0.4944960000000 1.0
C      1  0.5193410000000  0.4271900000000  0.5428550000000 1.0
C      1  0.5816470000000  0.3557000000000  0.4804330000000 1.0
C      1  0.5410230000000  0.4873340000000  0.5880820000000 1.0
C      1  0.5805270000000  0.4438330000000  0.4485610000000 1.0
C      1  0.5816390000000  0.5077550000000  0.3985170000000 1.0
C      1  0.5907340000000  0.5369470000000  0.4616730000000 1.0
C      1  0.5146230000000  0.4542780000000  0.5324030000000 1.0
C      1  0.3769820000000  0.4606370000000  0.5159630000000 1.0
C      1  0.5372280000000  0.5877680000000  0.5528260000000 1.0
C      1  0.4744910000000  0.5262720000000  0.4577550000000 1.0
C      1  0.4573250000000  0.3991290000000  0.5607120000000 1.0
C      1  0.3897160000000  0.5088600000000  0.4920830000000 1.0
C      1  0.4767650000000  0.6227860000000  0.5192660000000 1.0
C      1  0.4893240000000  0.4350580000000  0.4702370000000 1.0
C      1  0.4975910000000  0.6176910000000  0.4719560000000 1.0
C      1  0.5695900000000  0.3378550000000  0.4643590000000 1.0
C      1  0.5152160000000  0.4572710000000  0.4167000000000 1.0
C      1  0.5172910000000  0.5981190000000  0.5092370000000 1.0
C      1  0.4048570000000  0.4293500000000  0.5370180000000 1.0
C      1  0.3988920000000  0.4713530000000  0.5576710000000 1.0
C      1  0.4944290000000  0.5468240000000  0.4567160000000 1.0
C      1  0.4730350000000  0.4789400000000  0.4597630000000 1.0
C      1  0.4844800000000  0.4645940000000  0.5308580000000 1.0
C      1  0.4300560000000  0.4157320000000  0.4935400000000 1.0
C      1  0.4615780000000  0.4687930000000  0.5533050000000 1.0
C      1  0.4887390000000  0.4240890000000  0.4955900000000 1.0
C      1  0.5681850000000  0.4793870000000  0.5902020000000 1.0
C      1  0.5982200000000  0.5198580000000  0.6080410000000 1.0
C      1  0.4605180000000  0.6050390000000  0.5343370000000 1.0
C      1  0.5934870000000  0.5704470000000  0.5992710000000 1.0
C      1  0.4062640000000  0.4469940000000  0.4638430000000 1.0
C      1  0.5486430000000  0.3404300000000  0.4476500000000 1.0
C      1  0.5064680000000  0.4039690000000  0.5040790000000 1.0
C      1  0.6008250000000  0.5462690000000  0.6074360000000 1.0
C      1  0.5326930000000  0.5403020000000  0.4200500000000 1.0
C      1  0.5762770000000  0.4543740000000  0.5807900000000 1.0
C      1  0.4904350000000  0.4961830000000  0.5243420000000 1.0
C      1  0.4007100000000  0.5033200000000  0.5966220000000 1.0
C      1  0.3910070000000  0.4835710000000  0.5814550000000 1.0
C      1  0.5970570000000  0.5293970000000  0.3962390000000 1.0
C      1  0.4280450000000  0.5058010000000  0.5162470000000 1.0
C      1  0.4585680000000  0.5266370000000  0.4333260000000 1.0
C      1  0.5427220000000  0.5322940000000  0.5321390000000 1.0
C      1  0.5078240000000  0.4158220000000  0.5659550000000 1.0
C      1  0.5333370000000  0.5537450000000  0.5161620000000 1.0
C      1  0.4924790000000  0.5680880000000  0.5418860000000 1.0
C      1  0.4006450000000  0.5131380000000  0.4280500000000 1.0
C      1  0.5212190000000  0.5446270000000  0.4662720000000 1.0
C      1  0.4504660000000  0.5032930000000  0.5884120000000 1.0
C      1  0.5799690000000  0.4604800000000  0.5013200000000 1.0
C      1  0.5234670000000  0.6060500000000  0.4629550000000 1.0
C      1  0.6118680000000  0.5675890000000  0.4281470000000 1.0
C      1  0.4952710000000  0.5026910000000  0.4065470000000 1.0
C      1  0.5008270000000  0.5149430000000  0.5440960000000 1.0
C      1  0.5030850000000  0.3879560000000  0.5689010000000 1.0
C      1  0.4993480000000  0.4531720000000  0.5942030000000 1.0
C      1  0.4864720000000  0.5686690000000  0.4389470000000 1.0
C      1  0.5527860000000  0.4172910000000  0.5089540000000 1.0
C      1  0.5534210000000  0.4327540000000  0.4458420000000 1.0
C      1  0.5221350000000  0.4684930000000  0.4641190000000 1.0
C      1  0.4352800000000  0.5995580000000  0.5226220000000 1.0
C      1  0.5605810000000  0.4033650000000  0.4853050000000 1.0
C      1  0.4806870000000  0.5097470000000  0.5017990000000 1.0
C      1  0.5238070000000  0.5317930000000  0.5994480000000 1.0
C      1  0.3929050000000  0.4377040000000  0.5120280000000 1.0
C      1  0.5661430000000  0.6210180000000  0.4429010000000 1.0
C      1  0.4481320000000  0.4220090000000  0.5165960000000 1.0
C      1  0.4362570000000  0.5034040000000  0.4872950000000 1.0
C      1  0.5350180000000  0.4621920000000  0.5129810000000 1.0
C      1  0.5914790000000  0.6149120000000  0.4366190000000 1.0
C      1  0.4136930000000  0.4663840000000  0.4444970000000 1.0
C      1  0.4715020000000  0.4375300000000  0.5138970000000 1.0
C      1  0.4471640000000  0.3983000000000  0.5346040000000 1.0
C      1  0.4538910000000  0.5531990000000  0.4979820000000 1.0
C      1  0.4363180000000  0.5693290000000  0.4830620000000 1.0
C      1  0.4613350000000  0.4790040000000  0.4333580000000 1.0
C      1  0.5583830000000  0.4790930000000  0.4320190000000 1.0
C      1  0.4122250000000  0.5375370000000  0.4260170000000 1.0
C      1  0.5779420000000  0.3813020000000  0.4873230000000 1.0
C      1  0.4790310000000  0.5909430000000  0.5804350000000 1.0
C      1  0.5120530000000  0.4800060000000  0.3998280000000 1.0
C      1  0.4252390000000  0.5896370000000  0.4994120000000 1.0
C      1  0.5386190000000  0.5909780000000  0.4189660000000 1.0
C      1  0.4693980000000  0.4992520000000  0.6084470000000 1.0
C      1  0.5339400000000  0.5137120000000  0.5791680000000 1.0
C      1  0.5338250000000  0.3880050000000  0.4468850000000 1.0
C      1  0.5400240000000  0.5350130000000  0.4472260000000 1.0
C      1  0.5283830000000  0.5171270000000  0.5514010000000 1.0
C      1  0.4378310000000  0.4639680000000  0.4298720000000 1.0
C      1  0.4880830000000  0.5404610000000  0.5472490000000 1.0
C      1  0.4371430000000  0.5464360000000  0.4359040000000 1.0
END
