TITL C-627112-676-1843 1.92847447430739e-05 125000 -1022.69829663271 0 0 167 (C1) n - 1
REM
REM in /home/nfs/bkarasulu/CARBON/AIRSS/Generating-Clusters/LCBOP/Only-C1/SD-CG/FIRE-CG
REM
REM
REM
REM
REM
REM ./C.cell (11c1c37f851c82e70ff6c80c92926a4b)
REM AIRSS Version 0.9.1 bugfix July 2018 build 013d7b7c2542+ Fri, 06 Jul 2018 19:26:36 +0100
REM compiler GCC version 9.2.1 20190827 (Red Hat 9.2.1-1)
REM options -cpp -mtune=generic -march=x86-64 -g -O0 -fpre-include=/usr/include/finclude/math-vector-fortran.h
REM seed 1940673349 -1456723139 -1543574610 784810137 18039092 1783673432 662062556 954965790 -1006888842 911108959 1973202159 1922498607 -1315909948 1643942916 -1843892758 58664905 918936507 245227083 -1280018489 352994627 2041553428 965082787 137680737 -173741590 -481827693 -588846416 293679341 -532444141 -2116653251 -1116229790 -206507730 947607371 -833328025
REM
CELL 1.54180   50.00000   50.00000   50.00000   90.00000   90.00000   90.00000
LATT -1
SFAC C  
C      1  0.4581960000000  0.3863850000000  0.4336910000000 1.0
C      1  0.6102550000000  0.4455710000000  0.4709700000000 1.0
C      1  0.4537760000000  0.4532510000000  0.4487510000000 1.0
C      1  0.4943580000000  0.5692450000000  0.4341270000000 1.0
C      1  0.5598330000000  0.5597860000000  0.6060420000000 1.0
C      1  0.5364110000000  0.4646000000000  0.6045500000000 1.0
C      1  0.4881530000000  0.4303600000000  0.4909610000000 1.0
C      1  0.4907710000000  0.6238390000000  0.5371170000000 1.0
C      1  0.5475810000000  0.5711850000000  0.4453910000000 1.0
C      1  0.6040890000000  0.5219710000000  0.4797330000000 1.0
C      1  0.4056090000000  0.4595140000000  0.5493130000000 1.0
C      1  0.5935710000000  0.5564310000000  0.5398190000000 1.0
C      1  0.5607390000000  0.4931390000000  0.4589060000000 1.0
C      1  0.5469520000000  0.5262130000000  0.4205860000000 1.0
C      1  0.4832620000000  0.5873870000000  0.5114510000000 1.0
C      1  0.5172660000000  0.5402620000000  0.5718850000000 1.0
C      1  0.5913830000000  0.5163160000000  0.5045630000000 1.0
C      1  0.3813220000000  0.5268140000000  0.4992770000000 1.0
C      1  0.5122280000000  0.4541370000000  0.6159960000000 1.0
C      1  0.5128970000000  0.5905750000000  0.5109410000000 1.0
C      1  0.5188620000000  0.6001500000000  0.4821850000000 1.0
C      1  0.4737570000000  0.5120810000000  0.6147430000000 1.0
C      1  0.4691140000000  0.5124410000000  0.4482450000000 1.0
C      1  0.4860220000000  0.4326280000000  0.3982790000000 1.0
C      1  0.4541440000000  0.4924670000000  0.5334990000000 1.0
C      1  0.4566430000000  0.4088640000000  0.5570280000000 1.0
C      1  0.5629550000000  0.4560940000000  0.6085040000000 1.0
C      1  0.3985620000000  0.5602130000000  0.4592520000000 1.0
C      1  0.4134230000000  0.4323700000000  0.5521420000000 1.0
C      1  0.6183320000000  0.4994780000000  0.4700240000000 1.0
C      1  0.4020480000000  0.4683470000000  0.5221900000000 1.0
C      1  0.4273830000000  0.5155680000000  0.4285900000000 1.0
C      1  0.5164740000000  0.5361790000000  0.6003730000000 1.0
C      1  0.5965390000000  0.5349880000000  0.5244750000000 1.0
C      1  0.4687990000000  0.5644100000000  0.5193050000000 1.0
C      1  0.5230410000000  0.4047940000000  0.5227970000000 1.0
C      1  0.4946160000000  0.4160270000000  0.4192010000000 1.0
C      1  0.5326660000000  0.5224020000000  0.5548650000000 1.0
C      1  0.5918830000000  0.5144550000000  0.4280950000000 1.0
C      1  0.4714940000000  0.4814260000000  0.5143560000000 1.0
C      1  0.4945090000000  0.5517490000000  0.5598770000000 1.0
C      1  0.4247990000000  0.4351760000000  0.4952910000000 1.0
C      1  0.4566980000000  0.4769540000000  0.5850660000000 1.0
C      1  0.4379050000000  0.4807170000000  0.4856150000000 1.0
C      1  0.4803980000000  0.4562560000000  0.3870850000000 1.0
C      1  0.5742500000000  0.5652900000000  0.5582410000000 1.0
C      1  0.5217370000000  0.4112900000000  0.4262490000000 1.0
C      1  0.4992220000000  0.6151050000000  0.4682980000000 1.0
C      1  0.3868860000000  0.5456980000000  0.4787730000000 1.0
C      1  0.4497450000000  0.6163230000000  0.4772890000000 1.0
C      1  0.4216270000000  0.4632340000000  0.5020040000000 1.0
C      1  0.4685290000000  0.4353310000000  0.5627000000000 1.0
C      1  0.4727590000000  0.6072920000000  0.4615680000000 1.0
C      1  0.4386380000000  0.5280850000000  0.4070550000000 1.0
C      1  0.3732460000000  0.4617800000000  0.4602390000000 1.0
C      1  0.4896860000000  0.4972430000000  0.5622700000000 1.0
C      1  0.3731320000000  0.4998730000000  0.4935020000000 1.0
C      1  0.4761590000000  0.4069630000000  0.4393280000000 1.0
C      1  0.4423350000000  0.5556630000000  0.5107200000000 1.0
C      1  0.4824950000000  0.4410230000000  0.5378720000000 1.0
C      1  0.4616130000000  0.4676850000000  0.4717330000000 1.0
C      1  0.5672600000000  0.4184470000000  0.4369720000000 1.0
C      1  0.4418300000000  0.5743750000000  0.5710730000000 1.0
C      1  0.5260920000000  0.4555530000000  0.5580370000000 1.0
C      1  0.5326550000000  0.5740960000000  0.5260450000000 1.0
C      1  0.5189880000000  0.6188930000000  0.5253940000000 1.0
C      1  0.5845610000000  0.4350410000000  0.4783890000000 1.0
C      1  0.5060860000000  0.3972550000000  0.5466750000000 1.0
C      1  0.4477000000000  0.5983050000000  0.5547240000000 1.0
C      1  0.4350080000000  0.5714830000000  0.4222010000000 1.0
C      1  0.5744010000000  0.4953940000000  0.5569420000000 1.0
C      1  0.5197560000000  0.5637630000000  0.4482210000000 1.0
C      1  0.5455040000000  0.4268230000000  0.4205600000000 1.0
C      1  0.3786990000000  0.4817100000000  0.5145300000000 1.0
C      1  0.5625970000000  0.4753140000000  0.4126100000000 1.0
C      1  0.4418820000000  0.4214120000000  0.5138860000000 1.0
C      1  0.4508370000000  0.5019860000000  0.6005090000000 1.0
C      1  0.5186410000000  0.4650490000000  0.4225470000000 1.0
C      1  0.4991440000000  0.5311250000000  0.4011640000000 1.0
C      1  0.5827420000000  0.4506100000000  0.5413280000000 1.0
C      1  0.4996600000000  0.5377410000000  0.4887990000000 1.0
C      1  0.4376140000000  0.5492520000000  0.5816740000000 1.0
C      1  0.4533200000000  0.5526140000000  0.4101730000000 1.0
C      1  0.4411870000000  0.3672860000000  0.4286870000000 1.0
C      1  0.4909230000000  0.4391600000000  0.6041650000000 1.0
C      1  0.5605010000000  0.4816760000000  0.4851430000000 1.0
C      1  0.4927400000000  0.5011490000000  0.4476640000000 1.0
C      1  0.5921120000000  0.4465700000000  0.5679560000000 1.0
C      1  0.5503800000000  0.5738720000000  0.5462160000000 1.0
C      1  0.4331360000000  0.4357000000000  0.4478230000000 1.0
C      1  0.3682230000000  0.4867760000000  0.4690370000000 1.0
C      1  0.5432250000000  0.4546280000000  0.4148260000000 1.0
C      1  0.4143890000000  0.4307130000000  0.4685740000000 1.0
C      1  0.5159330000000  0.4086690000000  0.5718210000000 1.0
C      1  0.5085940000000  0.4542250000000  0.5349240000000 1.0
C      1  0.5357140000000  0.4113870000000  0.4742150000000 1.0
C      1  0.5938190000000  0.5084370000000  0.5726310000000 1.0
C      1  0.5939380000000  0.5317440000000  0.5861670000000 1.0
C      1  0.4334900000000  0.6009250000000  0.5274150000000 1.0
C      1  0.4372260000000  0.5273930000000  0.5034820000000 1.0
C      1  0.6259190000000  0.4280110000000  0.4551080000000 1.0
C      1  0.4694570000000  0.4503490000000  0.5874000000000 1.0
C      1  0.4704260000000  0.4267400000000  0.5144770000000 1.0
C      1  0.5231800000000  0.4944250000000  0.5167010000000 1.0
C      1  0.5361460000000  0.5501540000000  0.6144920000000 1.0
C      1  0.5159310000000  0.4155570000000  0.4962360000000 1.0
C      1  0.4144860000000  0.5705860000000  0.4400550000000 1.0
C      1  0.4806240000000  0.4828710000000  0.3846100000000 1.0
C      1  0.5476740000000  0.4999530000000  0.5650030000000 1.0
C      1  0.4736160000000  0.5425440000000  0.4800790000000 1.0
C      1  0.6172190000000  0.4121600000000  0.4351080000000 1.0
C      1  0.4472850000000  0.6168460000000  0.5063850000000 1.0
C      1  0.4778010000000  0.3906250000000  0.5487060000000 1.0
C      1  0.5475040000000  0.6062590000000  0.4842860000000 1.0
C      1  0.5156690000000  0.4675690000000  0.5071100000000 1.0
C      1  0.4330690000000  0.4150320000000  0.5409460000000 1.0
C      1  0.4855880000000  0.5476390000000  0.5337460000000 1.0
C      1  0.4830790000000  0.5523790000000  0.4128660000000 1.0
C      1  0.5072590000000  0.4807920000000  0.4400990000000 1.0
C      1  0.5455140000000  0.6242130000000  0.5096790000000 1.0
C      1  0.5308450000000  0.4785270000000  0.5780340000000 1.0
C      1  0.4785330000000  0.4177340000000  0.4654270000000 1.0
C      1  0.3879560000000  0.4394260000000  0.4630080000000 1.0
C      1  0.5279950000000  0.5309760000000  0.3996580000000 1.0
C      1  0.4635050000000  0.4884330000000  0.5591700000000 1.0
C      1  0.5231030000000  0.5190920000000  0.5281840000000 1.0
C      1  0.5245550000000  0.3977040000000  0.4514300000000 1.0
C      1  0.5771200000000  0.4911790000000  0.5076420000000 1.0
C      1  0.4232940000000  0.5759480000000  0.5170730000000 1.0
C      1  0.4320980000000  0.5207050000000  0.5866470000000 1.0
C      1  0.4123750000000  0.5079030000000  0.5689420000000 1.0
C      1  0.5388910000000  0.5362510000000  0.3742460000000 1.0
C      1  0.5855990000000  0.5707170000000  0.4758680000000 1.0
C      1  0.4743190000000  0.6146630000000  0.5146100000000 1.0
C      1  0.3905030000000  0.5300740000000  0.5265470000000 1.0
C      1  0.5619230000000  0.5855570000000  0.4680220000000 1.0
C      1  0.4865240000000  0.4645040000000  0.4922260000000 1.0
C      1  0.5626510000000  0.4215250000000  0.4660220000000 1.0
C      1  0.5703980000000  0.4281290000000  0.5295270000000 1.0
C      1  0.5965240000000  0.5460360000000  0.4654760000000 1.0
C      1  0.4415190000000  0.5141770000000  0.4529590000000 1.0
C      1  0.5788340000000  0.4783430000000  0.5338950000000 1.0
C      1  0.4733920000000  0.5810890000000  0.4505740000000 1.0
C      1  0.5397430000000  0.4624150000000  0.4903480000000 1.0
C      1  0.5340190000000  0.4299760000000  0.5677970000000 1.0
C      1  0.4865060000000  0.5083990000000  0.3898290000000 1.0
C      1  0.5060800000000  0.4940330000000  0.5844900000000 1.0
C      1  0.6180040000000  0.4726440000000  0.4716480000000 1.0
C      1  0.5619370000000  0.5501600000000  0.4314690000000 1.0
C      1  0.4347940000000  0.5122100000000  0.5275350000000 1.0
C      1  0.5917110000000  0.4086800000000  0.4273210000000 1.0
C      1  0.5182160000000  0.5447340000000  0.4695090000000 1.0
C      1  0.5839830000000  0.4488200000000  0.5934520000000 1.0
C      1  0.4996750000000  0.4128380000000  0.5950940000000 1.0
C      1  0.5039840000000  0.5351560000000  0.5164440000000 1.0
C      1  0.5645800000000  0.5004650000000  0.4288850000000 1.0
C      1  0.5499690000000  0.5405980000000  0.3505790000000 1.0
C      1  0.4350230000000  0.5092360000000  0.4801840000000 1.0
C      1  0.5510100000000  0.4095390000000  0.5278220000000 1.0
C      1  0.4053640000000  0.4800320000000  0.5692860000000 1.0
C      1  0.4727710000000  0.6148840000000  0.5589940000000 1.0
C      1  0.4608210000000  0.5614200000000  0.4661140000000 1.0
C      1  0.5008460000000  0.5128920000000  0.6057220000000 1.0
C      1  0.5888140000000  0.5412970000000  0.4383950000000 1.0
C      1  0.5609840000000  0.5448070000000  0.3273290000000 1.0
C      1  0.5776150000000  0.5549930000000  0.5848220000000 1.0
C      1  0.4113660000000  0.5187320000000  0.5424650000000 1.0
END
