TITL C-627109-622-245 2.79898632226888e-08 125000 -921.524466800475 0 0 149 (C1) n - 1
REM
REM in /home/nfs/bkarasulu/CARBON/AIRSS/Generating-Clusters/LCBOP/Only-C1/SD-CG/FIRE-CG
REM
REM
REM
REM
REM
REM ./C.cell (11c1c37f851c82e70ff6c80c92926a4b)
REM AIRSS Version 0.9.1 bugfix July 2018 build 013d7b7c2542+ Fri, 06 Jul 2018 19:26:36 +0100
REM compiler GCC version 9.2.1 20190827 (Red Hat 9.2.1-1)
REM options -cpp -mtune=generic -march=x86-64 -g -O0 -fpre-include=/usr/include/finclude/math-vector-fortran.h
REM seed -986976986 -1481030882 -727741412 1106254727 58749966 -1652042050 680566912 1925759511 -1377496697 -853183030 821837211 1447911094 -2036167885 2126864875 -1359450442 1156395522 -389072251 -1350469225 2055406131 1476697769 1472973839 1813221462 662313559 -1791442504 297810072 -1087163730 1199345236 -1850790040 -575017178 -568162450 -723292936 781734108 -201377519
REM
CELL 1.54180   50.00000   50.00000   50.00000   90.00000   90.00000   90.00000
LATT -1
SFAC C  
C      1  0.5561210000000  0.4756720000000  0.5454340000000 1.0
C      1  0.4299450000000  0.5187230000000  0.5621750000000 1.0
C      1  0.3775930000000  0.5278570000000  0.5243340000000 1.0
C      1  0.5742300000000  0.5550110000000  0.5612700000000 1.0
C      1  0.5047670000000  0.3983950000000  0.4571590000000 1.0
C      1  0.4016320000000  0.5043370000000  0.4502510000000 1.0
C      1  0.5188110000000  0.5918180000000  0.5367030000000 1.0
C      1  0.5772470000000  0.5251920000000  0.4780590000000 1.0
C      1  0.5219550000000  0.4497720000000  0.3955230000000 1.0
C      1  0.5335800000000  0.5304930000000  0.3940590000000 1.0
C      1  0.5278270000000  0.4039240000000  0.4442420000000 1.0
C      1  0.5585670000000  0.5468140000000  0.5163110000000 1.0
C      1  0.5018630000000  0.4478330000000  0.5698900000000 1.0
C      1  0.5913880000000  0.5002350000000  0.4119860000000 1.0
C      1  0.4809100000000  0.4104530000000  0.5466310000000 1.0
C      1  0.4521650000000  0.4194040000000  0.5490340000000 1.0
C      1  0.4669440000000  0.5102660000000  0.5981520000000 1.0
C      1  0.5076720000000  0.5387570000000  0.5931870000000 1.0
C      1  0.5408320000000  0.6004260000000  0.5209040000000 1.0
C      1  0.3984910000000  0.5472890000000  0.5215070000000 1.0
C      1  0.4787830000000  0.5661380000000  0.5333320000000 1.0
C      1  0.4727670000000  0.4583780000000  0.5158790000000 1.0
C      1  0.4198710000000  0.4464370000000  0.4611000000000 1.0
C      1  0.3718090000000  0.5019430000000  0.5293830000000 1.0
C      1  0.4846490000000  0.4656010000000  0.3659480000000 1.0
C      1  0.4015790000000  0.4600120000000  0.4793700000000 1.0
C      1  0.5526040000000  0.3923410000000  0.5279670000000 1.0
C      1  0.5783410000000  0.4823040000000  0.5007100000000 1.0
C      1  0.4312730000000  0.5050690000000  0.5371260000000 1.0
C      1  0.4864690000000  0.4359190000000  0.5070060000000 1.0
C      1  0.5688860000000  0.4386260000000  0.5137850000000 1.0
C      1  0.5555310000000  0.4809040000000  0.3855050000000 1.0
C      1  0.5921590000000  0.5503820000000  0.5822790000000 1.0
C      1  0.4950880000000  0.4959060000000  0.6285710000000 1.0
C      1  0.4861080000000  0.6020610000000  0.4986270000000 1.0
C      1  0.5382310000000  0.4793440000000  0.5669130000000 1.0
C      1  0.3956320000000  0.4540670000000  0.5326290000000 1.0
C      1  0.5324640000000  0.5387070000000  0.5208120000000 1.0
C      1  0.5063970000000  0.3727200000000  0.5264800000000 1.0
C      1  0.4331690000000  0.4618400000000  0.4415560000000 1.0
C      1  0.4829890000000  0.4077910000000  0.5009510000000 1.0
C      1  0.5749010000000  0.4394500000000  0.4851440000000 1.0
C      1  0.5040170000000  0.4568330000000  0.4602580000000 1.0
C      1  0.4461310000000  0.5415680000000  0.4606990000000 1.0
C      1  0.3954240000000  0.4861160000000  0.4695590000000 1.0
C      1  0.4332610000000  0.4772680000000  0.5365920000000 1.0
C      1  0.4693420000000  0.4969200000000  0.4489450000000 1.0
C      1  0.4977760000000  0.5528600000000  0.4905730000000 1.0
C      1  0.5493620000000  0.4849340000000  0.5920220000000 1.0
C      1  0.4027650000000  0.4448620000000  0.5053920000000 1.0
C      1  0.5051340000000  0.4273930000000  0.5507280000000 1.0
C      1  0.5705340000000  0.5108620000000  0.4531510000000 1.0
C      1  0.5403940000000  0.4750730000000  0.4331320000000 1.0
C      1  0.5678340000000  0.5503930000000  0.4890270000000 1.0
C      1  0.4910790000000  0.4913860000000  0.5500610000000 1.0
C      1  0.5067340000000  0.5275460000000  0.3850020000000 1.0
C      1  0.6202590000000  0.5155790000000  0.5370620000000 1.0
C      1  0.4633130000000  0.4245990000000  0.4642810000000 1.0
C      1  0.5873440000000  0.5089520000000  0.5005780000000 1.0
C      1  0.4596860000000  0.5771380000000  0.5515300000000 1.0
C      1  0.4361220000000  0.4265080000000  0.4748610000000 1.0
C      1  0.4261450000000  0.5512440000000  0.4782110000000 1.0
C      1  0.4788620000000  0.5298090000000  0.3967500000000 1.0
C      1  0.5118630000000  0.5207980000000  0.4545830000000 1.0
C      1  0.5563470000000  0.5958810000000  0.4994410000000 1.0
C      1  0.4558130000000  0.5240510000000  0.5753450000000 1.0
C      1  0.4823960000000  0.6295810000000  0.5029210000000 1.0
C      1  0.4974060000000  0.5001370000000  0.4424980000000 1.0
C      1  0.4750040000000  0.4765710000000  0.6295450000000 1.0
C      1  0.4947910000000  0.5865160000000  0.5215290000000 1.0
C      1  0.4550330000000  0.5517380000000  0.5877770000000 1.0
C      1  0.5511900000000  0.4204000000000  0.5262520000000 1.0
C      1  0.4191450000000  0.4569480000000  0.5512790000000 1.0
C      1  0.4596050000000  0.4702040000000  0.4458840000000 1.0
C      1  0.4389780000000  0.4403120000000  0.5667930000000 1.0
C      1  0.5005880000000  0.4488310000000  0.3794550000000 1.0
C      1  0.5041540000000  0.5105760000000  0.3611400000000 1.0
C      1  0.5726980000000  0.4671640000000  0.4756690000000 1.0
C      1  0.4460920000000  0.4648260000000  0.5149800000000 1.0
C      1  0.5612960000000  0.4823990000000  0.4537460000000 1.0
C      1  0.4928980000000  0.5172340000000  0.6090160000000 1.0
C      1  0.4795110000000  0.6550070000000  0.5078530000000 1.0
C      1  0.5740880000000  0.5187790000000  0.4252830000000 1.0
C      1  0.5249160000000  0.5290110000000  0.5714160000000 1.0
C      1  0.5260080000000  0.4876480000000  0.4893110000000 1.0
C      1  0.5209910000000  0.5139510000000  0.4807430000000 1.0
C      1  0.4859700000000  0.3919200000000  0.5244210000000 1.0
C      1  0.4718290000000  0.5723670000000  0.5779280000000 1.0
C      1  0.5853760000000  0.5148900000000  0.6135280000000 1.0
C      1  0.4376510000000  0.5054510000000  0.3925160000000 1.0
C      1  0.4562860000000  0.5156030000000  0.4666720000000 1.0
C      1  0.4567620000000  0.5111720000000  0.4945510000000 1.0
C      1  0.5712410000000  0.4279180000000  0.4233240000000 1.0
C      1  0.4727470000000  0.5790150000000  0.4500050000000 1.0
C      1  0.5415920000000  0.4678430000000  0.4051280000000 1.0
C      1  0.5689290000000  0.5777710000000  0.4814940000000 1.0
C      1  0.4805040000000  0.5923740000000  0.4722670000000 1.0
C      1  0.5129810000000  0.4761340000000  0.4414380000000 1.0
C      1  0.5230040000000  0.5796410000000  0.5636850000000 1.0
C      1  0.4242880000000  0.4240030000000  0.5020580000000 1.0
C      1  0.4896810000000  0.5401850000000  0.5412640000000 1.0
C      1  0.4353080000000  0.5184920000000  0.5118550000000 1.0
C      1  0.6423220000000  0.5547250000000  0.6345030000000 1.0
C      1  0.5971180000000  0.5940440000000  0.4386020000000 1.0
C      1  0.4813970000000  0.4933080000000  0.3650560000000 1.0
C      1  0.4582410000000  0.5407520000000  0.4157130000000 1.0
C      1  0.4360930000000  0.4132090000000  0.5255510000000 1.0
C      1  0.5171090000000  0.5353650000000  0.4979290000000 1.0
C      1  0.5963990000000  0.5218400000000  0.5253410000000 1.0
C      1  0.6219320000000  0.5463140000000  0.6206200000000 1.0
C      1  0.5506570000000  0.5706840000000  0.5671210000000 1.0
C      1  0.4639380000000  0.5073670000000  0.3825350000000 1.0
C      1  0.4806410000000  0.5026340000000  0.5054250000000 1.0
C      1  0.5197270000000  0.5117920000000  0.3389040000000 1.0
C      1  0.4316730000000  0.5770910000000  0.5461610000000 1.0
C      1  0.5183710000000  0.4606670000000  0.4851390000000 1.0
C      1  0.5704010000000  0.4662430000000  0.5233720000000 1.0
C      1  0.3768450000000  0.4757560000000  0.5336340000000 1.0
C      1  0.5141550000000  0.4425540000000  0.5058780000000 1.0
C      1  0.4775870000000  0.5176350000000  0.5546340000000 1.0
C      1  0.4082840000000  0.5230870000000  0.4294350000000 1.0
C      1  0.5666870000000  0.4967430000000  0.6083150000000 1.0
C      1  0.4186870000000  0.5401340000000  0.5029410000000 1.0
C      1  0.5417480000000  0.5540210000000  0.4324810000000 1.0
C      1  0.5533740000000  0.5357990000000  0.4140440000000 1.0
C      1  0.5500240000000  0.4139640000000  0.4326270000000 1.0
C      1  0.5194280000000  0.5460710000000  0.4452340000000 1.0
C      1  0.3891310000000  0.5420130000000  0.4234340000000 1.0
C      1  0.4545010000000  0.4483850000000  0.5909560000000 1.0
C      1  0.5100620000000  0.4746810000000  0.5643520000000 1.0
C      1  0.5009230000000  0.5674810000000  0.5822160000000 1.0
C      1  0.4325960000000  0.5240890000000  0.4139000000000 1.0
C      1  0.4817860000000  0.4041440000000  0.4728190000000 1.0
C      1  0.4545790000000  0.4641570000000  0.6154580000000 1.0
C      1  0.5333030000000  0.3734810000000  0.5277780000000 1.0
C      1  0.4765900000000  0.4491000000000  0.4559850000000 1.0
C      1  0.4105030000000  0.5389620000000  0.5659270000000 1.0
C      1  0.6001730000000  0.5373470000000  0.6057300000000 1.0
C      1  0.5963180000000  0.4734400000000  0.4124990000000 1.0
C      1  0.4596550000000  0.5558520000000  0.4401930000000 1.0
C      1  0.5829570000000  0.5866440000000  0.4591910000000 1.0
C      1  0.4093350000000  0.5590420000000  0.5456700000000 1.0
C      1  0.5183100000000  0.5358490000000  0.5445110000000 1.0
C      1  0.5250610000000  0.4309970000000  0.5296610000000 1.0
C      1  0.4822510000000  0.4420630000000  0.5884760000000 1.0
C      1  0.5883470000000  0.4479310000000  0.4170270000000 1.0
C      1  0.5874130000000  0.4186700000000  0.4727790000000 1.0
C      1  0.5782610000000  0.5417790000000  0.5358930000000 1.0
C      1  0.4863860000000  0.4822940000000  0.5234580000000 1.0
END
