TITL C-627107-135-564 0.111968341927299 125000 -167.510079627478 0 0 30 (C1) n - 1
REM
REM in /home/nfs/bkarasulu/CARBON/AIRSS/Generating-Clusters/LCBOP/Only-C1/SD-CG/FIRE-CG
REM
REM
REM
REM
REM
REM ./C.cell (11c1c37f851c82e70ff6c80c92926a4b)
REM AIRSS Version 0.9.1 bugfix July 2018 build 013d7b7c2542+ Fri, 06 Jul 2018 19:26:36 +0100
REM compiler GCC version 9.2.1 20190827 (Red Hat 9.2.1-1)
REM options -cpp -mtune=generic -march=x86-64 -g -O0 -fpre-include=/usr/include/finclude/math-vector-fortran.h
REM seed 1785990459 66572332 -1113925692 944579011 -931719613 -2122306875 -43335855 -1995149613 -1837127900 -716767405 64511440 1374938407 -1755713943 424936025 -1392684238 -338589926 1818072169 245834330 -1549553497 21358457 106230718 -1623093798 -1700401568 998107524 1037233554 754524617 124188230 -1839449320 -102187886 1893404467 -778803604 1911906888 -287390880
REM
CELL 1.54180   50.00000   50.00000   50.00000   90.00000   90.00000   90.00000
LATT -1
SFAC C  
C      1  0.3784640000000  0.5571770000000  0.5214580000000 1.0
C      1  0.4916510000000  0.4554730000000  0.4114730000000 1.0
C      1  0.4705730000000  0.4763930000000  0.5243920000000 1.0
C      1  0.5002800000000  0.4571770000000  0.4647240000000 1.0
C      1  0.4017350000000  0.5456870000000  0.5239230000000 1.0
C      1  0.4794450000000  0.4532350000000  0.4829610000000 1.0
C      1  0.4253410000000  0.5339350000000  0.5264760000000 1.0
C      1  0.4509790000000  0.4932450000000  0.5365340000000 1.0
C      1  0.4340710000000  0.4832230000000  0.5556180000000 1.0
C      1  0.4225580000000  0.4223720000000  0.5156780000000 1.0
C      1  0.5132240000000  0.5051600000000  0.5179700000000 1.0
C      1  0.5761320000000  0.4899820000000  0.5290360000000 1.0
C      1  0.4953810000000  0.4558630000000  0.4372620000000 1.0
C      1  0.5724120000000  0.5336420000000  0.5092640000000 1.0
C      1  0.4999430000000  0.5298950000000  0.5201240000000 1.0
C      1  0.4498750000000  0.5209950000000  0.5293920000000 1.0
C      1  0.5368740000000  0.5011390000000  0.5031590000000 1.0
C      1  0.5621270000000  0.5081000000000  0.5140740000000 1.0
C      1  0.5416240000000  0.5048480000000  0.4546940000000 1.0
C      1  0.5966430000000  0.6061160000000  0.4890050000000 1.0
C      1  0.4425640000000  0.4383860000000  0.5109360000000 1.0
C      1  0.5351300000000  0.4896140000000  0.4771790000000 1.0
C      1  0.4977790000000  0.4833220000000  0.5267950000000 1.0
C      1  0.5887570000000  0.5822370000000  0.4958800000000 1.0
C      1  0.5807190000000  0.5579490000000  0.5028080000000 1.0
C      1  0.5266060000000  0.4626290000000  0.4741250000000 1.0
C      1  0.4637760000000  0.4557890000000  0.5060440000000 1.0
C      1  0.5436360000000  0.4420370000000  0.4801000000000 1.0
C      1  0.5477280000000  0.5195600000000  0.4340700000000 1.0
C      1  0.4739740000000  0.5348210000000  0.5248480000000 1.0
END
