TITL C-627109-622-1247 -0.0113162404989923 125000 -619.478239289928 0 0 102 (C1) n - 1
REM
REM in /home/nfs/bkarasulu/CARBON/AIRSS/Generating-Clusters/LCBOP/Only-C1/SD-CG/FIRE-CG
REM
REM
REM
REM
REM
REM ./C.cell (11c1c37f851c82e70ff6c80c92926a4b)
REM AIRSS Version 0.9.1 bugfix July 2018 build 013d7b7c2542+ Fri, 06 Jul 2018 19:26:36 +0100
REM compiler GCC version 9.2.1 20190827 (Red Hat 9.2.1-1)
REM options -cpp -mtune=generic -march=x86-64 -g -O0 -fpre-include=/usr/include/finclude/math-vector-fortran.h
REM seed -432356599 2094232363 -1018459021 1358823993 896449741 -1471936111 -1745994028 799665051 -1399881736 527731580 1519424973 1146212909 -326523619 1263876492 985900857 145605789 2020133121 1784275404 -1028305914 1109406890 1696109187 1194626340 1657360234 1608994320 1194791264 19286093 954126490 -702417281 1480754866 -55254110 -1283067816 -2056758087 -338735857
REM
CELL 1.54180   50.00000   50.00000   50.00000   90.00000   90.00000   90.00000
LATT -1
SFAC C  
C      1  0.5103980000000  0.4852580000000  0.3834300000000 1.0
C      1  0.6445410000000  0.5272580000000  0.5019820000000 1.0
C      1  0.5049110000000  0.5463010000000  0.4353810000000 1.0
C      1  0.4231680000000  0.4509400000000  0.5249190000000 1.0
C      1  0.5135610000000  0.4657600000000  0.4012510000000 1.0
C      1  0.4275280000000  0.5746330000000  0.4974890000000 1.0
C      1  0.4462000000000  0.4689190000000  0.5308460000000 1.0
C      1  0.4737400000000  0.5969880000000  0.4838730000000 1.0
C      1  0.4376880000000  0.4259420000000  0.5191180000000 1.0
C      1  0.6191950000000  0.5212920000000  0.5032150000000 1.0
C      1  0.5676910000000  0.5090110000000  0.5035260000000 1.0
C      1  0.5629760000000  0.4844100000000  0.5535240000000 1.0
C      1  0.4020790000000  0.4625240000000  0.4819890000000 1.0
C      1  0.5125460000000  0.5352360000000  0.3884620000000 1.0
C      1  0.4965570000000  0.5061990000000  0.4749720000000 1.0
C      1  0.4157820000000  0.5557170000000  0.5448980000000 1.0
C      1  0.5189270000000  0.5509000000000  0.4914450000000 1.0
C      1  0.5110850000000  0.5329190000000  0.5663780000000 1.0
C      1  0.5074560000000  0.5174110000000  0.5216050000000 1.0
C      1  0.4555210000000  0.5487890000000  0.5245510000000 1.0
C      1  0.5565280000000  0.4240740000000  0.4878700000000 1.0
C      1  0.4999030000000  0.5995400000000  0.5305650000000 1.0
C      1  0.4324440000000  0.5511690000000  0.4551810000000 1.0
C      1  0.5084750000000  0.5111690000000  0.3773260000000 1.0
C      1  0.5180510000000  0.4575860000000  0.5205610000000 1.0
C      1  0.5171070000000  0.5047390000000  0.4977280000000 1.0
C      1  0.5612470000000  0.5432740000000  0.4630140000000 1.0
C      1  0.5961910000000  0.4273900000000  0.5157420000000 1.0
C      1  0.4723410000000  0.5429090000000  0.5454360000000 1.0
C      1  0.5933430000000  0.5156730000000  0.5047170000000 1.0
C      1  0.5538520000000  0.5494810000000  0.5505650000000 1.0
C      1  0.4762350000000  0.5255420000000  0.4893890000000 1.0
C      1  0.4516130000000  0.4102370000000  0.5383020000000 1.0
C      1  0.5634980000000  0.4945640000000  0.4502960000000 1.0
C      1  0.4871320000000  0.4825200000000  0.6134800000000 1.0
C      1  0.4851020000000  0.4808640000000  0.4631880000000 1.0
C      1  0.5021390000000  0.4634960000000  0.4488440000000 1.0
C      1  0.5090940000000  0.4058290000000  0.5090940000000 1.0
C      1  0.4246600000000  0.5262160000000  0.4975940000000 1.0
C      1  0.4150390000000  0.4720270000000  0.4605120000000 1.0
C      1  0.4984020000000  0.4941160000000  0.5914920000000 1.0
C      1  0.4170370000000  0.5268360000000  0.5461480000000 1.0
C      1  0.5433750000000  0.4950270000000  0.5013600000000 1.0
C      1  0.5482230000000  0.5309560000000  0.4199100000000 1.0
C      1  0.5612270000000  0.5225220000000  0.4434810000000 1.0
C      1  0.4932540000000  0.4661370000000  0.5105470000000 1.0
C      1  0.5514560000000  0.5821940000000  0.5079610000000 1.0
C      1  0.4529300000000  0.5281270000000  0.5041700000000 1.0
C      1  0.5417160000000  0.5402260000000  0.4831040000000 1.0
C      1  0.4838670000000  0.3777580000000  0.5945530000000 1.0
C      1  0.5429640000000  0.5719870000000  0.5340700000000 1.0
C      1  0.5206270000000  0.4820090000000  0.5773630000000 1.0
C      1  0.4820190000000  0.4104860000000  0.4339230000000 1.0
C      1  0.5146870000000  0.4406080000000  0.5434610000000 1.0
C      1  0.5534200000000  0.4525200000000  0.4842770000000 1.0
C      1  0.5879900000000  0.4479700000000  0.5309820000000 1.0
C      1  0.4456630000000  0.5929960000000  0.4853610000000 1.0
C      1  0.5347460000000  0.4090260000000  0.4977050000000 1.0
C      1  0.4437530000000  0.4863360000000  0.5523080000000 1.0
C      1  0.5197600000000  0.5860920000000  0.5426990000000 1.0
C      1  0.4992410000000  0.5362740000000  0.5405190000000 1.0
C      1  0.6065910000000  0.5518880000000  0.5627600000000 1.0
C      1  0.5086940000000  0.4508660000000  0.4243820000000 1.0
C      1  0.4859820000000  0.6048270000000  0.5083360000000 1.0
C      1  0.4881490000000  0.4017340000000  0.4905360000000 1.0
C      1  0.4580120000000  0.5468970000000  0.4436240000000 1.0
C      1  0.5387490000000  0.5276010000000  0.5640660000000 1.0
C      1  0.5647720000000  0.5718560000000  0.4620800000000 1.0
C      1  0.5228780000000  0.5421970000000  0.4137280000000 1.0
C      1  0.4209770000000  0.5508760000000  0.4813340000000 1.0
C      1  0.5467740000000  0.5870850000000  0.4792620000000 1.0
C      1  0.4915980000000  0.5869470000000  0.4629270000000 1.0
C      1  0.5202550000000  0.5926710000000  0.4678650000000 1.0
C      1  0.4482280000000  0.4435290000000  0.4429080000000 1.0
C      1  0.5661770000000  0.4656560000000  0.5325450000000 1.0
C      1  0.4681870000000  0.4184970000000  0.4799010000000 1.0
C      1  0.4389660000000  0.5129170000000  0.5606400000000 1.0
C      1  0.4632010000000  0.5267380000000  0.5680570000000 1.0
C      1  0.5826480000000  0.4160110000000  0.4953030000000 1.0
C      1  0.5601220000000  0.4703580000000  0.4624960000000 1.0
C      1  0.5449520000000  0.4664830000000  0.5103270000000 1.0
C      1  0.4094310000000  0.5152750000000  0.5200460000000 1.0
C      1  0.4566760000000  0.4356820000000  0.4987470000000 1.0
C      1  0.4894030000000  0.5190800000000  0.5810680000000 1.0
C      1  0.5178290000000  0.4549950000000  0.5677690000000 1.0
C      1  0.5019850000000  0.4155840000000  0.5358060000000 1.0
C      1  0.5027530000000  0.4233740000000  0.4225670000000 1.0
C      1  0.4635660000000  0.4216640000000  0.4520830000000 1.0
C      1  0.4660730000000  0.4605730000000  0.5111430000000 1.0
C      1  0.5430640000000  0.4987400000000  0.5673870000000 1.0
C      1  0.4779830000000  0.4056580000000  0.5486600000000 1.0
C      1  0.4603380000000  0.4902960000000  0.4490310000000 1.0
C      1  0.4028950000000  0.4647910000000  0.5100860000000 1.0
C      1  0.4330470000000  0.5671230000000  0.5248990000000 1.0
C      1  0.4966030000000  0.5216210000000  0.4479320000000 1.0
C      1  0.4833140000000  0.5652020000000  0.4443840000000 1.0
C      1  0.4924370000000  0.5492980000000  0.4917310000000 1.0
C      1  0.5815910000000  0.5502470000000  0.5555890000000 1.0
C      1  0.4665900000000  0.5183740000000  0.4410380000000 1.0
C      1  0.4807240000000  0.3909420000000  0.5722940000000 1.0
C      1  0.3959170000000  0.4906690000000  0.5192830000000 1.0
C      1  0.4399650000000  0.4702670000000  0.4477230000000 1.0
END
