TITL C-627112-676-743 0.73844880994348 125000 -727.322460041861 0 0 120 (C1) n - 1
REM
REM in /home/nfs/bkarasulu/CARBON/AIRSS/Generating-Clusters/LCBOP/Only-C1/SD-CG/FIRE-CG
REM
REM
REM
REM
REM
REM ./C.cell (11c1c37f851c82e70ff6c80c92926a4b)
REM AIRSS Version 0.9.1 bugfix July 2018 build 013d7b7c2542+ Fri, 06 Jul 2018 19:26:36 +0100
REM compiler GCC version 9.2.1 20190827 (Red Hat 9.2.1-1)
REM options -cpp -mtune=generic -march=x86-64 -g -O0 -fpre-include=/usr/include/finclude/math-vector-fortran.h
REM seed 1534018904 2042499966 -1360431440 -258130004 998404398 790132254 1058269576 -1814691959 -1442578806 -207241270 -327615953 1825887896 793966342 1753316846 1403858530 -377028518 1428877191 -1644460568 -773156787 -1786743409 1515039687 -1773685510 -1668425090 -590632498 988129309 1386286872 699945876 -443788280 -1957143416 -2050355505 1213022687 1813806107 438357000
REM
CELL 1.54180   50.00000   50.00000   50.00000   90.00000   90.00000   90.00000
LATT -1
SFAC C  
C      1  0.4101360000000  0.4509510000000  0.4734530000000 1.0
C      1  0.5172950000000  0.4499730000000  0.5334840000000 1.0
C      1  0.4908250000000  0.5583960000000  0.4863930000000 1.0
C      1  0.4621740000000  0.4822700000000  0.4231310000000 1.0
C      1  0.4387450000000  0.5437810000000  0.4580820000000 1.0
C      1  0.4559400000000  0.5110820000000  0.4199250000000 1.0
C      1  0.5421280000000  0.5690220000000  0.5415770000000 1.0
C      1  0.5217740000000  0.5064010000000  0.4001440000000 1.0
C      1  0.5450000000000  0.5225570000000  0.4031380000000 1.0
C      1  0.5213480000000  0.4675310000000  0.5104990000000 1.0
C      1  0.5591880000000  0.4245240000000  0.4824960000000 1.0
C      1  0.4383260000000  0.4976810000000  0.5483230000000 1.0
C      1  0.4855870000000  0.5940530000000  0.5581700000000 1.0
C      1  0.5094260000000  0.5195950000000  0.5156800000000 1.0
C      1  0.5691050000000  0.4359670000000  0.5431740000000 1.0
C      1  0.4480030000000  0.5617580000000  0.5307610000000 1.0
C      1  0.4394780000000  0.4959830000000  0.4626390000000 1.0
C      1  0.5351380000000  0.5096000000000  0.6088060000000 1.0
C      1  0.4626900000000  0.5214380000000  0.4946190000000 1.0
C      1  0.5547390000000  0.4787610000000  0.5536780000000 1.0
C      1  0.4879670000000  0.5590320000000  0.5955000000000 1.0
C      1  0.5196910000000  0.4958530000000  0.4492490000000 1.0
C      1  0.4681420000000  0.3942650000000  0.5026850000000 1.0
C      1  0.5423700000000  0.6201120000000  0.3103950000000 1.0
C      1  0.6028380000000  0.4703740000000  0.5258870000000 1.0
C      1  0.5062290000000  0.5076100000000  0.6104750000000 1.0
C      1  0.5376110000000  0.5276160000000  0.5053670000000 1.0
C      1  0.5122850000000  0.5721190000000  0.6022290000000 1.0
C      1  0.5854120000000  0.5152680000000  0.5179490000000 1.0
C      1  0.4629680000000  0.5521520000000  0.5531430000000 1.0
C      1  0.5651480000000  0.4044540000000  0.5048050000000 1.0
C      1  0.4938750000000  0.3917200000000  0.4614110000000 1.0
C      1  0.5789030000000  0.4924560000000  0.5588960000000 1.0
C      1  0.5091740000000  0.4760940000000  0.4671930000000 1.0
C      1  0.5251410000000  0.5878260000000  0.4929320000000 1.0
C      1  0.5400390000000  0.5130410000000  0.4607500000000 1.0
C      1  0.5067950000000  0.5311160000000  0.5444180000000 1.0
C      1  0.5713350000000  0.5305270000000  0.5829270000000 1.0
C      1  0.5560290000000  0.4521060000000  0.5659850000000 1.0
C      1  0.5293990000000  0.4299120000000  0.4843970000000 1.0
C      1  0.5421360000000  0.5497640000000  0.4088700000000 1.0
C      1  0.4271100000000  0.4509480000000  0.4524040000000 1.0
C      1  0.4954900000000  0.5851540000000  0.3642420000000 1.0
C      1  0.5264880000000  0.6084650000000  0.3281350000000 1.0
C      1  0.5613810000000  0.4204900000000  0.4527340000000 1.0
C      1  0.3541800000000  0.4463460000000  0.5201110000000 1.0
C      1  0.4966290000000  0.4824790000000  0.6000600000000 1.0
C      1  0.5635790000000  0.4975350000000  0.4672870000000 1.0
C      1  0.4409950000000  0.5196440000000  0.4430020000000 1.0
C      1  0.5413470000000  0.5315370000000  0.5877440000000 1.0
C      1  0.4752410000000  0.5705530000000  0.5715350000000 1.0
C      1  0.5800410000000  0.5476550000000  0.5621980000000 1.0
C      1  0.4776060000000  0.5275680000000  0.5520110000000 1.0
C      1  0.5427910000000  0.4246520000000  0.4331100000000 1.0
C      1  0.5288530000000  0.4898070000000  0.5571390000000 1.0
C      1  0.4520860000000  0.4356020000000  0.5257050000000 1.0
C      1  0.4716590000000  0.5593860000000  0.4055590000000 1.0
C      1  0.3328090000000  0.4372010000000  0.5328330000000 1.0
C      1  0.5257960000000  0.5175700000000  0.5631370000000 1.0
C      1  0.4823850000000  0.5731680000000  0.3838930000000 1.0
C      1  0.5005570000000  0.4028460000000  0.4380800000000 1.0
C      1  0.4674910000000  0.4993440000000  0.5553050000000 1.0
C      1  0.5152550000000  0.4591320000000  0.6005770000000 1.0
C      1  0.5147580000000  0.4247860000000  0.4274110000000 1.0
C      1  0.5049400000000  0.4339990000000  0.6076450000000 1.0
C      1  0.4893790000000  0.4734120000000  0.4191140000000 1.0
C      1  0.5770600000000  0.5022520000000  0.5856250000000 1.0
C      1  0.3984540000000  0.4653880000000  0.4948950000000 1.0
C      1  0.5556510000000  0.4884190000000  0.6021940000000 1.0
C      1  0.4653910000000  0.5717750000000  0.4821050000000 1.0
C      1  0.5106940000000  0.5968310000000  0.3459510000000 1.0
C      1  0.4648420000000  0.4586320000000  0.5290590000000 1.0
C      1  0.5947290000000  0.4954230000000  0.5358090000000 1.0
C      1  0.4432960000000  0.4723380000000  0.4438950000000 1.0
C      1  0.2904080000000  0.4190570000000  0.5580780000000 1.0
C      1  0.5382250000000  0.6003590000000  0.4224990000000 1.0
C      1  0.5118980000000  0.4230440000000  0.5275060000000 1.0
C      1  0.5079670000000  0.4699760000000  0.5523180000000 1.0
C      1  0.4662430000000  0.5316560000000  0.4040670000000 1.0
C      1  0.4188660000000  0.4938320000000  0.5303030000000 1.0
C      1  0.4099510000000  0.4902320000000  0.5037180000000 1.0
C      1  0.5171660000000  0.5591100000000  0.5435960000000 1.0
C      1  0.4194610000000  0.5085720000000  0.4842240000000 1.0
C      1  0.4443710000000  0.5627260000000  0.5023880000000 1.0
C      1  0.5186090000000  0.5629170000000  0.4798470000000 1.0
C      1  0.5732200000000  0.4742910000000  0.4772610000000 1.0
C      1  0.5652220000000  0.4096020000000  0.5319350000000 1.0
C      1  0.4359620000000  0.5356230000000  0.4892420000000 1.0
C      1  0.5132720000000  0.6016610000000  0.5133810000000 1.0
C      1  0.4642030000000  0.4973690000000  0.4798320000000 1.0
C      1  0.5408030000000  0.5752660000000  0.4159210000000 1.0
C      1  0.4550390000000  0.5672930000000  0.4551790000000 1.0
C      1  0.4924000000000  0.3970790000000  0.4888820000000 1.0
C      1  0.4835890000000  0.4806700000000  0.5368310000000 1.0
C      1  0.4945670000000  0.4099060000000  0.6113450000000 1.0
C      1  0.4983270000000  0.6035510000000  0.5360350000000 1.0
C      1  0.5231360000000  0.4573140000000  0.4837210000000 1.0
C      1  0.4994100000000  0.4468340000000  0.4181480000000 1.0
C      1  0.5650310000000  0.5531240000000  0.5386530000000 1.0
C      1  0.5112160000000  0.5029000000000  0.3750790000000 1.0
C      1  0.4521740000000  0.4105570000000  0.5166170000000 1.0
C      1  0.3114330000000  0.4280540000000  0.5455600000000 1.0
C      1  0.3755640000000  0.4555220000000  0.5074610000000 1.0
C      1  0.5443460000000  0.4610060000000  0.5936870000000 1.0
C      1  0.5344160000000  0.5371880000000  0.4775490000000 1.0
C      1  0.5738140000000  0.4500890000000  0.4926970000000 1.0
C      1  0.4740430000000  0.4864740000000  0.5827480000000 1.0
C      1  0.4871350000000  0.5341380000000  0.5003320000000 1.0
C      1  0.5698630000000  0.5115180000000  0.4001060000000 1.0
C      1  0.4880870000000  0.4853560000000  0.4841890000000 1.0
C      1  0.5579910000000  0.6315680000000  0.2929480000000 1.0
C      1  0.5102220000000  0.4934940000000  0.4225810000000 1.0
C      1  0.5629670000000  0.5324290000000  0.5186830000000 1.0
C      1  0.5124240000000  0.4134930000000  0.5006250000000 1.0
C      1  0.5831060000000  0.4506990000000  0.5205230000000 1.0
C      1  0.4842290000000  0.3861700000000  0.6143960000000 1.0
C      1  0.5351130000000  0.5588160000000  0.5973320000000 1.0
C      1  0.5002080000000  0.4903410000000  0.5117620000000 1.0
C      1  0.4656420000000  0.5724970000000  0.4299010000000 1.0
C      1  0.4891660000000  0.5315510000000  0.6061730000000 1.0
END
