TITL C-627106-156-1985 0.41901735526513 125000 -193.058629072096 0 0 34 (C1) n - 1
REM
REM in /home/nfs/bkarasulu/CARBON/AIRSS/Generating-Clusters/LCBOP/Only-C1/SD-CG/FIRE-CG
REM
REM
REM
REM
REM
REM ./C.cell (11c1c37f851c82e70ff6c80c92926a4b)
REM AIRSS Version 0.9.1 bugfix July 2018 build 013d7b7c2542+ Fri, 06 Jul 2018 19:26:36 +0100
REM compiler GCC version 9.2.1 20190827 (Red Hat 9.2.1-1)
REM options -cpp -mtune=generic -march=x86-64 -g -O0 -fpre-include=/usr/include/finclude/math-vector-fortran.h
REM seed 836765493 567900251 1479187489 250583108 149329250 204023824 -751188649 792012287 -108027820 -1202691469 -1511964645 1221638684 957997 -1301114759 -1694994228 -85550363 -516746686 -260547491 -2026190537 819657778 -1316858327 -1274837347 1794963807 1822117157 1700037958 -326436490 217477869 1447762919 -550512712 -1308421058 1468775706 -1652290193 -1801927795
REM
CELL 1.54180   50.00000   50.00000   50.00000   90.00000   90.00000   90.00000
LATT -1
SFAC C  
C      1  0.5074140000000  0.4641720000000  0.5533760000000 1.0
C      1  0.4714590000000  0.4916040000000  0.5097760000000 1.0
C      1  0.4643860000000  0.5684270000000  0.5286960000000 1.0
C      1  0.6551740000000  0.4385750000000  0.4580430000000 1.0
C      1  0.4964200000000  0.5331280000000  0.5065000000000 1.0
C      1  0.4867350000000  0.5542320000000  0.5194100000000 1.0
C      1  0.5352110000000  0.4737180000000  0.5098650000000 1.0
C      1  0.6303670000000  0.4458270000000  0.4687920000000 1.0
C      1  0.6635060000000  0.4497500000000  0.4344750000000 1.0
C      1  0.4832140000000  0.5098850000000  0.4653130000000 1.0
C      1  0.4814540000000  0.4742250000000  0.5571590000000 1.0
C      1  0.4393570000000  0.5003420000000  0.4461550000000 1.0
C      1  0.5269170000000  0.4645980000000  0.5351190000000 1.0
C      1  0.4462570000000  0.5417200000000  0.4703900000000 1.0
C      1  0.4560440000000  0.5549250000000  0.5790200000000 1.0
C      1  0.4561300000000  0.5174630000000  0.4604960000000 1.0
C      1  0.4726330000000  0.4848460000000  0.5814240000000 1.0
C      1  0.4641710000000  0.5066000000000  0.5942510000000 1.0
C      1  0.5008620000000  0.5065150000000  0.4445880000000 1.0
C      1  0.4334900000000  0.6023490000000  0.5123560000000 1.0
C      1  0.3934880000000  0.4498920000000  0.4061360000000 1.0
C      1  0.6068910000000  0.4526900000000  0.4789650000000 1.0
C      1  0.5599320000000  0.4664190000000  0.4993100000000 1.0
C      1  0.4673080000000  0.4801570000000  0.5335330000000 1.0
C      1  0.4583350000000  0.5680350000000  0.5559860000000 1.0
C      1  0.4239480000000  0.4834880000000  0.4327380000000 1.0
C      1  0.6708400000000  0.4203840000000  0.4712120000000 1.0
C      1  0.4580970000000  0.5325020000000  0.5932100000000 1.0
C      1  0.4085910000000  0.4665510000000  0.4193270000000 1.0
C      1  0.4460660000000  0.5783120000000  0.5092610000000 1.0
C      1  0.4418460000000  0.5623050000000  0.4865860000000 1.0
C      1  0.5834070000000  0.4595550000000  0.4891410000000 1.0
C      1  0.5177160000000  0.4904610000000  0.4955940000000 1.0
C      1  0.4923310000000  0.5063460000000  0.4937980000000 1.0
END
