TITL C-627109-622-1267 3.23280844181584 125000 -1095.65227080616 0 0 180 (C1) n - 1
REM
REM in /home/nfs/bkarasulu/CARBON/AIRSS/Generating-Clusters/LCBOP/Only-C1/SD-CG/FIRE-CG
REM
REM
REM
REM
REM
REM ./C.cell (11c1c37f851c82e70ff6c80c92926a4b)
REM AIRSS Version 0.9.1 bugfix July 2018 build 013d7b7c2542+ Fri, 06 Jul 2018 19:26:36 +0100
REM compiler GCC version 9.2.1 20190827 (Red Hat 9.2.1-1)
REM options -cpp -mtune=generic -march=x86-64 -g -O0 -fpre-include=/usr/include/finclude/math-vector-fortran.h
REM seed 1133065613 422114076 -1166210019 907043780 878847789 325748982 -448020861 1910149142 2079501791 -1194570247 -1033368117 293629107 -1854817158 -763197108 -2024549215 1884943636 -735968790 -29141483 -259886986 -313694260 -1349119751 224624065 -1199861562 -1338704004 -787538454 -2007377289 217672107 2111919766 -795725707 -1580869997 -227567577 -339029851 -1848407679
REM
CELL 1.54180   50.00000   50.00000   50.00000   90.00000   90.00000   90.00000
LATT -1
SFAC C  
C      1  0.3877830000000  0.4775020000000  0.5071190000000 1.0
C      1  0.5552910000000  0.4515890000000  0.4819520000000 1.0
C      1  0.5689340000000  0.5198270000000  0.5309300000000 1.0
C      1  0.6192290000000  0.5063470000000  0.4899080000000 1.0
C      1  0.4227450000000  0.5800630000000  0.5708790000000 1.0
C      1  0.6033420000000  0.4694460000000  0.5221210000000 1.0
C      1  0.4668480000000  0.5148400000000  0.4255290000000 1.0
C      1  0.4959980000000  0.4651230000000  0.5069720000000 1.0
C      1  0.5492750000000  0.4072330000000  0.4678580000000 1.0
C      1  0.5553320000000  0.4518170000000  0.4031950000000 1.0
C      1  0.5235010000000  0.4948680000000  0.3874350000000 1.0
C      1  0.4345000000000  0.5647880000000  0.5494760000000 1.0
C      1  0.3963330000000  0.4349860000000  0.5311830000000 1.0
C      1  0.4033220000000  0.5236210000000  0.4269420000000 1.0
C      1  0.4725490000000  0.5297620000000  0.4959880000000 1.0
C      1  0.5525480000000  0.5538100000000  0.4133210000000 1.0
C      1  0.5157920000000  0.4292930000000  0.4170280000000 1.0
C      1  0.5797830000000  0.5452620000000  0.4124810000000 1.0
C      1  0.4435420000000  0.4128660000000  0.4947870000000 1.0
C      1  0.5064840000000  0.4076270000000  0.5730630000000 1.0
C      1  0.6009820000000  0.4574240000000  0.4746270000000 1.0
C      1  0.5522220000000  0.3862950000000  0.5147990000000 1.0
C      1  0.4776950000000  0.4750340000000  0.6072120000000 1.0
C      1  0.5136120000000  0.5281240000000  0.5457050000000 1.0
C      1  0.5803340000000  0.4532550000000  0.3912200000000 1.0
C      1  0.5208150000000  0.5284500000000  0.4779100000000 1.0
C      1  0.5796620000000  0.5087140000000  0.5079870000000 1.0
C      1  0.5994530000000  0.4803140000000  0.5870420000000 1.0
C      1  0.5187020000000  0.6071080000000  0.4975380000000 1.0
C      1  0.5531420000000  0.3846700000000  0.4854660000000 1.0
C      1  0.5112940000000  0.4303100000000  0.5922630000000 1.0
C      1  0.5516970000000  0.4711770000000  0.5019370000000 1.0
C      1  0.4992050000000  0.5673530000000  0.5143670000000 1.0
C      1  0.4387970000000  0.5224780000000  0.6035680000000 1.0
C      1  0.3983880000000  0.4315850000000  0.5019650000000 1.0
C      1  0.4604220000000  0.5640270000000  0.5967430000000 1.0
C      1  0.4810920000000  0.5404130000000  0.3872500000000 1.0
C      1  0.6009350000000  0.5588570000000  0.4255230000000 1.0
C      1  0.4072120000000  0.4954560000000  0.5161970000000 1.0
C      1  0.4363340000000  0.5625790000000  0.3780750000000 1.0
C      1  0.4943850000000  0.4951210000000  0.3854880000000 1.0
C      1  0.4494910000000  0.5140820000000  0.5414760000000 1.0
C      1  0.4303130000000  0.5366440000000  0.5486630000000 1.0
C      1  0.5452600000000  0.6045400000000  0.5081750000000 1.0
C      1  0.5530670000000  0.5412550000000  0.5256290000000 1.0
C      1  0.5071870000000  0.5384130000000  0.4557830000000 1.0
C      1  0.5464220000000  0.4290000000000  0.4211420000000 1.0
C      1  0.5070110000000  0.5814930000000  0.4914800000000 1.0
C      1  0.4277670000000  0.4913340000000  0.5371470000000 1.0
C      1  0.6040560000000  0.4550540000000  0.3805870000000 1.0
C      1  0.4993500000000  0.4373690000000  0.5124500000000 1.0
C      1  0.4714880000000  0.6139990000000  0.5058780000000 1.0
C      1  0.5539720000000  0.5192370000000  0.3588560000000 1.0
C      1  0.5037950000000  0.3720630000000  0.5178210000000 1.0
C      1  0.4057700000000  0.4535310000000  0.5522960000000 1.0
C      1  0.5309050000000  0.5810000000000  0.5769690000000 1.0
C      1  0.4626290000000  0.5455970000000  0.4435300000000 1.0
C      1  0.5333550000000  0.4708430000000  0.3992030000000 1.0
C      1  0.5376520000000  0.4373220000000  0.6011150000000 1.0
C      1  0.4863620000000  0.4604660000000  0.5651120000000 1.0
C      1  0.5763270000000  0.4463140000000  0.4617160000000 1.0
C      1  0.5649250000000  0.4114170000000  0.5246430000000 1.0
C      1  0.4722460000000  0.5221650000000  0.5685410000000 1.0
C      1  0.4545270000000  0.4097480000000  0.5579110000000 1.0
C      1  0.4937780000000  0.4988420000000  0.6123250000000 1.0
C      1  0.5002500000000  0.5206180000000  0.5693020000000 1.0
C      1  0.5037290000000  0.4832980000000  0.5272270000000 1.0
C      1  0.4580500000000  0.5567970000000  0.3930150000000 1.0
C      1  0.5366800000000  0.4527860000000  0.5443840000000 1.0
C      1  0.5354450000000  0.5757480000000  0.5488430000000 1.0
C      1  0.4927430000000  0.4580830000000  0.4581650000000 1.0
C      1  0.4816260000000  0.4064390000000  0.4680170000000 1.0
C      1  0.4931570000000  0.4731320000000  0.4809230000000 1.0
C      1  0.5830110000000  0.4685630000000  0.5421010000000 1.0
C      1  0.5567720000000  0.4681060000000  0.5305950000000 1.0
C      1  0.6082980000000  0.4870760000000  0.4690870000000 1.0
C      1  0.4060230000000  0.5008550000000  0.5743140000000 1.0
C      1  0.5317230000000  0.5495170000000  0.5405400000000 1.0
C      1  0.3887970000000  0.5336340000000  0.5317820000000 1.0
C      1  0.5759050000000  0.5586990000000  0.5728400000000 1.0
C      1  0.4158820000000  0.5337920000000  0.4779300000000 1.0
C      1  0.5362360000000  0.4916810000000  0.4932100000000 1.0
C      1  0.4088240000000  0.5628080000000  0.4780060000000 1.0
C      1  0.4875650000000  0.4226180000000  0.5323110000000 1.0
C      1  0.4105680000000  0.5868720000000  0.4894020000000 1.0
C      1  0.4548020000000  0.4928320000000  0.4395690000000 1.0
C      1  0.4908340000000  0.4304060000000  0.4611920000000 1.0
C      1  0.4794340000000  0.5146950000000  0.3996470000000 1.0
C      1  0.4509460000000  0.4785210000000  0.5927330000000 1.0
C      1  0.5014590000000  0.5240350000000  0.4986990000000 1.0
C      1  0.5352020000000  0.5368490000000  0.5993030000000 1.0
C      1  0.4794770000000  0.5675860000000  0.5322160000000 1.0
C      1  0.4405830000000  0.4443660000000  0.4354550000000 1.0
C      1  0.4431070000000  0.4295870000000  0.5409250000000 1.0
C      1  0.5847090000000  0.5010990000000  0.4592530000000 1.0
C      1  0.6122480000000  0.5600490000000  0.4500350000000 1.0
C      1  0.4878120000000  0.4193010000000  0.4173850000000 1.0
C      1  0.4565880000000  0.4658250000000  0.5670110000000 1.0
C      1  0.5887540000000  0.4237860000000  0.5134790000000 1.0
C      1  0.5103100000000  0.4663970000000  0.5494750000000 1.0
C      1  0.4094030000000  0.5064030000000  0.4067340000000 1.0
C      1  0.4189880000000  0.4211510000000  0.4818650000000 1.0
C      1  0.4224290000000  0.4825400000000  0.4064730000000 1.0
C      1  0.4293020000000  0.4981140000000  0.5931000000000 1.0
C      1  0.4986030000000  0.6187450000000  0.5178500000000 1.0
C      1  0.3729750000000  0.5565670000000  0.5353910000000 1.0
C      1  0.4495050000000  0.4982660000000  0.4670470000000 1.0
C      1  0.5244930000000  0.4271710000000  0.5072450000000 1.0
C      1  0.5410170000000  0.4274300000000  0.5309890000000 1.0
C      1  0.5439100000000  0.4646570000000  0.6078260000000 1.0
C      1  0.4208050000000  0.4396580000000  0.4573840000000 1.0
C      1  0.5372610000000  0.5189030000000  0.3806000000000 1.0
C      1  0.4982310000000  0.4702100000000  0.4340120000000 1.0
C      1  0.5940910000000  0.5571250000000  0.5509590000000 1.0
C      1  0.4484330000000  0.5300710000000  0.4713250000000 1.0
C      1  0.5381800000000  0.4290140000000  0.4834900000000 1.0
C      1  0.4858820000000  0.5561660000000  0.4580330000000 1.0
C      1  0.5248580000000  0.3894550000000  0.5589890000000 1.0
C      1  0.4659670000000  0.3960830000000  0.4888930000000 1.0
C      1  0.6070400000000  0.5506060000000  0.5264740000000 1.0
C      1  0.5754040000000  0.5109900000000  0.5569720000000 1.0
C      1  0.5056250000000  0.5543850000000  0.3946630000000 1.0
C      1  0.5714060000000  0.4736560000000  0.6535830000000 1.0
C      1  0.5583960000000  0.4690830000000  0.6314710000000 1.0
C      1  0.5859990000000  0.4859780000000  0.5642050000000 1.0
C      1  0.5322170000000  0.5433300000000  0.3951260000000 1.0
C      1  0.4653620000000  0.5657950000000  0.4197340000000 1.0
C      1  0.4802380000000  0.3780380000000  0.5057870000000 1.0
C      1  0.4718300000000  0.6047880000000  0.4776130000000 1.0
C      1  0.4603830000000  0.5111570000000  0.5135980000000 1.0
C      1  0.4597090000000  0.5364440000000  0.5905810000000 1.0
C      1  0.5164150000000  0.5117430000000  0.5945300000000 1.0
C      1  0.3957920000000  0.5870250000000  0.5675890000000 1.0
C      1  0.4239670000000  0.6029020000000  0.5061730000000 1.0
C      1  0.5186940000000  0.5814960000000  0.4326750000000 1.0
C      1  0.5671280000000  0.5936960000000  0.4944100000000 1.0
C      1  0.5759550000000  0.5723390000000  0.4782200000000 1.0
C      1  0.4688470000000  0.4592700000000  0.3542960000000 1.0
C      1  0.4924500000000  0.4526040000000  0.5927980000000 1.0
C      1  0.5554940000000  0.5587270000000  0.4629350000000 1.0
C      1  0.5802570000000  0.5006890000000  0.4318790000000 1.0
C      1  0.3760740000000  0.5778480000000  0.5516720000000 1.0
C      1  0.4022750000000  0.5226280000000  0.5079840000000 1.0
C      1  0.5702850000000  0.5145750000000  0.4804410000000 1.0
C      1  0.5122120000000  0.4581460000000  0.4136500000000 1.0
C      1  0.4011840000000  0.4611860000000  0.4641900000000 1.0
C      1  0.3889600000000  0.4558680000000  0.4895410000000 1.0
C      1  0.5570980000000  0.4181000000000  0.6032110000000 1.0
C      1  0.5389600000000  0.6008070000000  0.5355180000000 1.0
C      1  0.4043000000000  0.5251290000000  0.5558550000000 1.0
C      1  0.4031340000000  0.5163600000000  0.4544730000000 1.0
C      1  0.6127630000000  0.5417730000000  0.4974660000000 1.0
C      1  0.4814130000000  0.4772800000000  0.3683230000000 1.0
C      1  0.3940440000000  0.4757110000000  0.5660570000000 1.0
C      1  0.4616410000000  0.4269850000000  0.4239980000000 1.0
C      1  0.6022740000000  0.5595870000000  0.4766230000000 1.0
C      1  0.4489030000000  0.6022010000000  0.5194160000000 1.0
C      1  0.5353330000000  0.4876720000000  0.5934520000000 1.0
C      1  0.4826740000000  0.4102070000000  0.5573580000000 1.0
C      1  0.5132790000000  0.6052420000000  0.5736030000000 1.0
C      1  0.5282270000000  0.3791090000000  0.5313480000000 1.0
C      1  0.5622210000000  0.4233920000000  0.4455400000000 1.0
C      1  0.4540460000000  0.5785410000000  0.5346690000000 1.0
C      1  0.4405520000000  0.5821400000000  0.5926600000000 1.0
C      1  0.4518620000000  0.4883770000000  0.4952260000000 1.0
C      1  0.5490070000000  0.5601670000000  0.5882830000000 1.0
C      1  0.5077900000000  0.5110900000000  0.5235640000000 1.0
C      1  0.6025100000000  0.4476970000000  0.5031280000000 1.0
C      1  0.3992100000000  0.4883580000000  0.4574500000000 1.0
C      1  0.5136430000000  0.6153510000000  0.5447450000000 1.0
C      1  0.6053920000000  0.4957430000000  0.5121030000000 1.0
C      1  0.4478010000000  0.4343470000000  0.5134220000000 1.0
C      1  0.4964730000000  0.5732950000000  0.4162470000000 1.0
C      1  0.4406990000000  0.4719950000000  0.4256090000000 1.0
C      1  0.5434250000000  0.5672390000000  0.4374080000000 1.0
C      1  0.4490610000000  0.4611840000000  0.5032070000000 1.0
C      1  0.4346500000000  0.4532310000000  0.5541140000000 1.0
C      1  0.5488500000000  0.5328980000000  0.4747980000000 1.0
C      1  0.5829440000000  0.5173260000000  0.4111750000000 1.0
C      1  0.4871730000000  0.5811490000000  0.4710930000000 1.0
END
