TITL C-627113-6568-2179 0.000569733441326743 125000 -443.164437813575 0 0 73 (C1) n - 1
REM
REM in /home/nfs/bkarasulu/CARBON/AIRSS/Generating-Clusters/LCBOP/Only-C1/SD-CG/FIRE-CG
REM
REM
REM
REM
REM
REM ./C.cell (11c1c37f851c82e70ff6c80c92926a4b)
REM AIRSS Version 0.9.1 bugfix July 2018 build 013d7b7c2542+ Fri, 06 Jul 2018 19:26:36 +0100
REM compiler GCC version 9.2.1 20190827 (Red Hat 9.2.1-1)
REM options -cpp -mtune=generic -march=x86-64 -g -O0 -fpre-include=/usr/include/finclude/math-vector-fortran.h
REM seed 1398644357 1686226729 2059180293 284780350 1612170504 1123100366 328928422 -1505839983 1420420644 -1285396140 505860613 -862827911 183496143 1135937553 1628482518 1363081524 -1285227009 -2123603132 -315940715 1071942330 -469847897 1386736438 570269972 -311361765 -1797833888 -1226797148 1457020341 244148153 -1327104143 961824614 -12347251 -628342073 -694078757
REM
CELL 1.54180   50.00000   50.00000   50.00000   90.00000   90.00000   90.00000
LATT -1
SFAC C  
C      1  0.5335030000000  0.5134600000000  0.4072650000000 1.0
C      1  0.4864680000000  0.5696060000000  0.5550390000000 1.0
C      1  0.5102110000000  0.6069740000000  0.4792820000000 1.0
C      1  0.5012570000000  0.4536440000000  0.4283780000000 1.0
C      1  0.5264070000000  0.4668380000000  0.4299680000000 1.0
C      1  0.4330950000000  0.5235520000000  0.5277230000000 1.0
C      1  0.4508850000000  0.4006380000000  0.5032250000000 1.0
C      1  0.4636400000000  0.5677230000000  0.5123930000000 1.0
C      1  0.4852590000000  0.4451790000000  0.4502480000000 1.0
C      1  0.5207370000000  0.5345640000000  0.5731390000000 1.0
C      1  0.3991930000000  0.5002440000000  0.5032010000000 1.0
C      1  0.5338160000000  0.4874330000000  0.4127990000000 1.0
C      1  0.5655090000000  0.4479220000000  0.5452940000000 1.0
C      1  0.4961870000000  0.5949370000000  0.5475390000000 1.0
C      1  0.4868740000000  0.4719660000000  0.5772620000000 1.0
C      1  0.4907690000000  0.5101500000000  0.5025420000000 1.0
C      1  0.4779660000000  0.4639780000000  0.4963560000000 1.0
C      1  0.4377800000000  0.4984340000000  0.4586640000000 1.0
C      1  0.4182140000000  0.4792990000000  0.4504330000000 1.0
C      1  0.5597900000000  0.4623590000000  0.5694570000000 1.0
C      1  0.6183520000000  0.3871550000000  0.5404910000000 1.0
C      1  0.4372450000000  0.4303030000000  0.4624910000000 1.0
C      1  0.5261960000000  0.5382840000000  0.4134400000000 1.0
C      1  0.4736570000000  0.5101020000000  0.5485120000000 1.0
C      1  0.5094310000000  0.6097510000000  0.5297760000000 1.0
C      1  0.5340320000000  0.4563850000000  0.5802980000000 1.0
C      1  0.5703130000000  0.5224780000000  0.5307250000000 1.0
C      1  0.5506560000000  0.6112770000000  0.4992320000000 1.0
C      1  0.5130270000000  0.5559000000000  0.4306930000000 1.0
C      1  0.4705680000000  0.4047950000000  0.5211010000000 1.0
C      1  0.4994120000000  0.4315250000000  0.5542130000000 1.0
C      1  0.4949190000000  0.4527310000000  0.4764350000000 1.0
C      1  0.5549160000000  0.6029710000000  0.4730520000000 1.0
C      1  0.4204580000000  0.4525340000000  0.4591440000000 1.0
C      1  0.5230980000000  0.4564390000000  0.4770540000000 1.0
C      1  0.5565550000000  0.5296430000000  0.5083160000000 1.0
C      1  0.5022990000000  0.5538310000000  0.5720240000000 1.0
C      1  0.4563570000000  0.4668270000000  0.5408790000000 1.0
C      1  0.5500190000000  0.4579710000000  0.5240170000000 1.0
C      1  0.4364480000000  0.4115420000000  0.4834170000000 1.0
C      1  0.5711870000000  0.4886740000000  0.5698570000000 1.0
C      1  0.5222710000000  0.6125010000000  0.5053930000000 1.0
C      1  0.5339650000000  0.5317230000000  0.4935750000000 1.0
C      1  0.4897770000000  0.5466290000000  0.4445150000000 1.0
C      1  0.3973940000000  0.4868820000000  0.4343710000000 1.0
C      1  0.5061870000000  0.5290210000000  0.4878260000000 1.0
C      1  0.4448280000000  0.4997010000000  0.4862480000000 1.0
C      1  0.5297620000000  0.5978790000000  0.4594190000000 1.0
C      1  0.5337570000000  0.5147420000000  0.5584990000000 1.0
C      1  0.4513540000000  0.5155950000000  0.4411010000000 1.0
C      1  0.5068940000000  0.4519870000000  0.5728960000000 1.0
C      1  0.4537580000000  0.5589280000000  0.3833180000000 1.0
C      1  0.4712530000000  0.4917720000000  0.4931530000000 1.0
C      1  0.4709440000000  0.4521600000000  0.5213980000000 1.0
C      1  0.5836370000000  0.4270850000000  0.5434510000000 1.0
C      1  0.4669590000000  0.5365150000000  0.4306670000000 1.0
C      1  0.4681130000000  0.4845230000000  0.5598180000000 1.0
C      1  0.5200570000000  0.4994220000000  0.5388630000000 1.0
C      1  0.4954230000000  0.5088240000000  0.5303200000000 1.0
C      1  0.4612630000000  0.4314190000000  0.4479110000000 1.0
C      1  0.6354340000000  0.3675140000000  0.5390530000000 1.0
C      1  0.5619390000000  0.5116360000000  0.5558240000000 1.0
C      1  0.5241300000000  0.5803810000000  0.4386880000000 1.0
C      1  0.4824100000000  0.4279700000000  0.5317130000000 1.0
C      1  0.4555270000000  0.5313150000000  0.5428930000000 1.0
C      1  0.5382080000000  0.4636140000000  0.4556390000000 1.0
C      1  0.4253670000000  0.5079670000000  0.5055950000000 1.0
C      1  0.4904800000000  0.5475170000000  0.4728040000000 1.0
C      1  0.4595990000000  0.5480240000000  0.4062550000000 1.0
C      1  0.6009840000000  0.4071260000000  0.5419530000000 1.0
C      1  0.4662470000000  0.5576240000000  0.5387100000000 1.0
C      1  0.4731520000000  0.5639090000000  0.4877020000000 1.0
C      1  0.5322210000000  0.4780760000000  0.5250560000000 1.0
END
