TITL C-627112-676-2086 36.8778685587202 125000 -752.743120384503 0 0 126 (C1) n - 1
REM
REM in /home/nfs/bkarasulu/CARBON/AIRSS/Generating-Clusters/LCBOP/Only-C1/SD-CG/FIRE-CG
REM
REM
REM
REM
REM
REM ./C.cell (11c1c37f851c82e70ff6c80c92926a4b)
REM AIRSS Version 0.9.1 bugfix July 2018 build 013d7b7c2542+ Fri, 06 Jul 2018 19:26:36 +0100
REM compiler GCC version 9.2.1 20190827 (Red Hat 9.2.1-1)
REM options -cpp -mtune=generic -march=x86-64 -g -O0 -fpre-include=/usr/include/finclude/math-vector-fortran.h
REM seed 1838271581 1135102352 64008087 -1800621931 -745604426 2141192533 2018832341 -358378060 -83076861 1195352102 2078761106 -680021129 1995344973 753382062 -1607424248 1124547106 1893728843 1036441801 1501991480 1274951430 -1937985555 254807671 558486448 1411425938 -1152723850 1962176027 -1782483095 1402426406 -1105177954 -1028610788 365808799 -1263239276 -1999857277
REM
CELL 1.54180   50.00000   50.00000   50.00000   90.00000   90.00000   90.00000
LATT -1
SFAC C  
C      1  0.5402040000000  0.4877230000000  0.4328230000000 1.0
C      1  0.4083750000000  0.4912050000000  0.5377000000000 1.0
C      1  0.4704020000000  0.4443030000000  0.4934790000000 1.0
C      1  0.4599180000000  0.5772490000000  0.4445510000000 1.0
C      1  0.5450160000000  0.4375700000000  0.5504580000000 1.0
C      1  0.4072290000000  0.5209410000000  0.5337060000000 1.0
C      1  0.5818960000000  0.5793860000000  0.5298930000000 1.0
C      1  0.4632160000000  0.5565850000000  0.5781280000000 1.0
C      1  0.5191050000000  0.4478240000000  0.5025910000000 1.0
C      1  0.5278760000000  0.4034500000000  0.5131850000000 1.0
C      1  0.5057190000000  0.6018240000000  0.4728310000000 1.0
C      1  0.5097020000000  0.4194190000000  0.4970180000000 1.0
C      1  0.4219560000000  0.5263760000000  0.4498710000000 1.0
C      1  0.4621820000000  0.4058740000000  0.5179890000000 1.0
C      1  0.5900750000000  0.5400410000000  0.4565200000000 1.0
C      1  0.4676650000000  0.5447350000000  0.5283330000000 1.0
C      1  0.5660960000000  0.4937040000000  0.5852480000000 1.0
C      1  0.4537770000000  0.4974520000000  0.5213540000000 1.0
C      1  0.5394330000000  0.4716420000000  0.5052710000000 1.0
C      1  0.4189640000000  0.4814520000000  0.5628460000000 1.0
C      1  0.4601710000000  0.5190480000000  0.5387730000000 1.0
C      1  0.4333730000000  0.4367240000000  0.5015070000000 1.0
C      1  0.5337900000000  0.4821490000000  0.5331440000000 1.0
C      1  0.5307700000000  0.5152150000000  0.4237990000000 1.0
C      1  0.6012830000000  0.5008710000000  0.4810120000000 1.0
C      1  0.5667310000000  0.4951480000000  0.4478760000000 1.0
C      1  0.4812400000000  0.4164870000000  0.4982640000000 1.0
C      1  0.4868990000000  0.5390340000000  0.5086220000000 1.0
C      1  0.4009960000000  0.5007400000000  0.4897140000000 1.0
C      1  0.4544520000000  0.5888350000000  0.5137630000000 1.0
C      1  0.4546480000000  0.5004150000000  0.4925900000000 1.0
C      1  0.5196380000000  0.5319110000000  0.4424510000000 1.0
C      1  0.4186260000000  0.5388770000000  0.5533080000000 1.0
C      1  0.5973410000000  0.5101220000000  0.5545920000000 1.0
C      1  0.5638250000000  0.5974190000000  0.5220880000000 1.0
C      1  0.4233980000000  0.5496690000000  0.4668470000000 1.0
C      1  0.4820140000000  0.4762220000000  0.3899770000000 1.0
C      1  0.4234380000000  0.4610440000000  0.4956400000000 1.0
C      1  0.4016060000000  0.5255200000000  0.5051160000000 1.0
C      1  0.4754630000000  0.5104840000000  0.5605300000000 1.0
C      1  0.4830680000000  0.4459030000000  0.5876080000000 1.0
C      1  0.4379080000000  0.5502440000000  0.5692740000000 1.0
C      1  0.4852690000000  0.5803460000000  0.4322080000000 1.0
C      1  0.5034490000000  0.4515620000000  0.5280890000000 1.0
C      1  0.5165290000000  0.4720210000000  0.4461890000000 1.0
C      1  0.4413270000000  0.5722590000000  0.4652020000000 1.0
C      1  0.5563540000000  0.5362090000000  0.5643140000000 1.0
C      1  0.5370260000000  0.5266860000000  0.3987960000000 1.0
C      1  0.4434090000000  0.4465210000000  0.5433170000000 1.0
C      1  0.4570540000000  0.4703420000000  0.5320650000000 1.0
C      1  0.5800220000000  0.5193720000000  0.4391750000000 1.0
C      1  0.5002380000000  0.4042230000000  0.5584280000000 1.0
C      1  0.5473830000000  0.5149280000000  0.5821870000000 1.0
C      1  0.5077250000000  0.5905310000000  0.4470840000000 1.0
C      1  0.5050420000000  0.5181940000000  0.5121600000000 1.0
C      1  0.5914370000000  0.5528270000000  0.5301640000000 1.0
C      1  0.5814220000000  0.4414610000000  0.5808170000000 1.0
C      1  0.5875930000000  0.4870060000000  0.5674130000000 1.0
C      1  0.5079810000000  0.4847550000000  0.6020110000000 1.0
C      1  0.5573490000000  0.4911330000000  0.4944110000000 1.0
C      1  0.4668640000000  0.4592640000000  0.4684360000000 1.0
C      1  0.5833570000000  0.5348270000000  0.5514660000000 1.0
C      1  0.5344520000000  0.5870520000000  0.4386150000000 1.0
C      1  0.4420800000000  0.4774760000000  0.4769620000000 1.0
C      1  0.5169640000000  0.3961690000000  0.5385130000000 1.0
C      1  0.4868570000000  0.4412570000000  0.4279330000000 1.0
C      1  0.6027190000000  0.5430290000000  0.5058550000000 1.0
C      1  0.4499610000000  0.4141620000000  0.4485560000000 1.0
C      1  0.4331160000000  0.3937580000000  0.4498310000000 1.0
C      1  0.5641130000000  0.4325760000000  0.5276820000000 1.0
C      1  0.4698700000000  0.5733900000000  0.5314010000000 1.0
C      1  0.5139490000000  0.5700870000000  0.3925390000000 1.0
C      1  0.5802800000000  0.5658170000000  0.4519310000000 1.0
C      1  0.4702730000000  0.5262810000000  0.3842520000000 1.0
C      1  0.6018350000000  0.5297000000000  0.4809320000000 1.0
C      1  0.4954650000000  0.5802000000000  0.5422200000000 1.0
C      1  0.5319780000000  0.5506710000000  0.3877290000000 1.0
C      1  0.4058950000000  0.4791730000000  0.5098790000000 1.0
C      1  0.5416940000000  0.6065350000000  0.5103400000000 1.0
C      1  0.4203170000000  0.4947770000000  0.4607730000000 1.0
C      1  0.5150260000000  0.5035800000000  0.5350520000000 1.0
C      1  0.4441780000000  0.4673660000000  0.4185460000000 1.0
C      1  0.4783760000000  0.4582780000000  0.5182790000000 1.0
C      1  0.4670410000000  0.4360390000000  0.4484360000000 1.0
C      1  0.4633230000000  0.4684220000000  0.5937690000000 1.0
C      1  0.4399970000000  0.4236750000000  0.5254250000000 1.0
C      1  0.4669340000000  0.5180880000000  0.4732070000000 1.0
C      1  0.5181010000000  0.5098530000000  0.5865810000000 1.0
C      1  0.5763530000000  0.4882450000000  0.4741430000000 1.0
C      1  0.4191900000000  0.5300140000000  0.4229120000000 1.0
C      1  0.4903430000000  0.4793600000000  0.4567180000000 1.0
C      1  0.4710900000000  0.5505990000000  0.3952200000000 1.0
C      1  0.5088030000000  0.4569360000000  0.5962810000000 1.0
C      1  0.4925290000000  0.5528560000000  0.5804990000000 1.0
C      1  0.5537380000000  0.4162360000000  0.5057190000000 1.0
C      1  0.4783780000000  0.5011180000000  0.3809690000000 1.0
C      1  0.4378310000000  0.4742990000000  0.5815150000000 1.0
C      1  0.5354540000000  0.4278230000000  0.4543700000000 1.0
C      1  0.5915170000000  0.4595210000000  0.5607790000000 1.0
C      1  0.4890120000000  0.5695460000000  0.4058980000000 1.0
C      1  0.4072680000000  0.5482810000000  0.4900890000000 1.0
C      1  0.5000760000000  0.5322370000000  0.5990640000000 1.0
C      1  0.5563860000000  0.4316150000000  0.5759260000000 1.0
C      1  0.5571430000000  0.4583680000000  0.3879920000000 1.0
C      1  0.5521780000000  0.4221410000000  0.4761490000000 1.0
C      1  0.4855520000000  0.4214320000000  0.5734590000000 1.0
C      1  0.5202220000000  0.6075460000000  0.4945540000000 1.0
C      1  0.5487270000000  0.5188600000000  0.4993860000000 1.0
C      1  0.4714080000000  0.4597640000000  0.4100860000000 1.0
C      1  0.4786740000000  0.4896530000000  0.6081250000000 1.0
C      1  0.5494420000000  0.4714570000000  0.4091470000000 1.0
C      1  0.4788460000000  0.5179210000000  0.6135110000000 1.0
C      1  0.4443050000000  0.5876460000000  0.4889510000000 1.0
C      1  0.5458220000000  0.5402090000000  0.5198160000000 1.0
C      1  0.5151410000000  0.4432400000000  0.4396910000000 1.0
C      1  0.5032900000000  0.5066760000000  0.5602120000000 1.0
C      1  0.5878980000000  0.4480300000000  0.5341790000000 1.0
C      1  0.5219710000000  0.5172340000000  0.4898640000000 1.0
C      1  0.5599550000000  0.5808000000000  0.4433100000000 1.0
C      1  0.5108690000000  0.5614470000000  0.5580940000000 1.0
C      1  0.5249320000000  0.4574780000000  0.5459900000000 1.0
C      1  0.5361850000000  0.5487120000000  0.5471760000000 1.0
C      1  0.4776010000000  0.5417630000000  0.4826570000000 1.0
C      1  0.4800660000000  0.5049360000000  0.4524910000000 1.0
C      1  0.4242930000000  0.4793600000000  0.4331320000000 1.0
C      1  0.4164000000000  0.3739290000000  0.4524620000000 1.0
END
