TITL C-627109-622-1055 90350.1112520518 125000 -839.459420409763 0 0 138 (C1) n - 1
REM
REM in /home/nfs/bkarasulu/CARBON/AIRSS/Generating-Clusters/LCBOP/Only-C1/SD-CG/FIRE-CG
REM
REM
REM
REM
REM
REM ./C.cell (11c1c37f851c82e70ff6c80c92926a4b)
REM AIRSS Version 0.9.1 bugfix July 2018 build 013d7b7c2542+ Fri, 06 Jul 2018 19:26:36 +0100
REM compiler GCC version 9.2.1 20190827 (Red Hat 9.2.1-1)
REM options -cpp -mtune=generic -march=x86-64 -g -O0 -fpre-include=/usr/include/finclude/math-vector-fortran.h
REM seed -1714625981 528344180 340831111 -1466398630 309800913 760443455 2119279051 199758276 1047831053 -1862338835 -628940783 1593292567 -497126038 1348095385 -76224662 675307012 -425918115 -732369723 -1784830730 -791649220 -1393322916 36508460 -1281539651 -1073267925 264739179 1160655053 -231528229 1530289301 549951432 -80670131 875372676 1475299321 -222346890
REM
CELL 1.54180   50.00000   50.00000   50.00000   90.00000   90.00000   90.00000
LATT -1
SFAC C  
C      1  0.6084570000000  0.5248590000000  0.4592470000000 1.0
C      1  0.3890080000000  0.4527520000000  0.4901800000000 1.0
C      1  0.4061330000000  0.5542250000000  0.4895350000000 1.0
C      1  0.5141790000000  0.6013720000000  0.5076800000000 1.0
C      1  0.6174050000000  0.5484820000000  0.4460430000000 1.0
C      1  0.5071070000000  0.5619590000000  0.4362680000000 1.0
C      1  0.5763350000000  0.4115170000000  0.4978340000000 1.0
C      1  0.4756500000000  0.4489780000000  0.4161420000000 1.0
C      1  0.4536300000000  0.4375230000000  0.4622350000000 1.0
C      1  0.4625430000000  0.5178010000000  0.5645780000000 1.0
C      1  0.5212990000000  0.5418680000000  0.4259810000000 1.0
C      1  0.4387940000000  0.4912950000000  0.5324370000000 1.0
C      1  0.4258390000000  0.4428930000000  0.4569300000000 1.0
C      1  0.4380750000000  0.5137020000000  0.5505950000000 1.0
C      1  0.5555450000000  0.3999840000000  0.5708110000000 1.0
C      1  0.5185030000000  0.5229260000000  0.5708470000000 1.0
C      1  0.4653090000000  0.4476780000000  0.5219270000000 1.0
C      1  0.5935960000000  0.5112950000000  0.3968560000000 1.0
C      1  0.4683300000000  0.5858680000000  0.4993570000000 1.0
C      1  0.5322030000000  0.5210850000000  0.4104960000000 1.0
C      1  0.4743100000000  0.4483600000000  0.5823250000000 1.0
C      1  0.4061210000000  0.4349500000000  0.4759650000000 1.0
C      1  0.5004920000000  0.4239350000000  0.4486800000000 1.0
C      1  0.5092040000000  0.4951650000000  0.5640120000000 1.0
C      1  0.5360920000000  0.4804200000000  0.6064000000000 1.0
C      1  0.5682170000000  0.4402000000000  0.6014740000000 1.0
C      1  0.4751740000000  0.5420950000000  0.5710750000000 1.0
C      1  0.5587640000000  0.4641670000000  0.6084540000000 1.0
C      1  0.4076950000000  0.5327490000000  0.5824900000000 1.0
C      1  0.5075780000000  0.3887930000000  0.5138550000000 1.0
C      1  0.4878110000000  0.5972860000000  0.5169390000000 1.0
C      1  0.4498720000000  0.5065990000000  0.6312770000000 1.0
C      1  0.4614030000000  0.4744760000000  0.4139080000000 1.0
C      1  0.5496940000000  0.5371040000000  0.4884260000000 1.0
C      1  0.3888330000000  0.5706050000000  0.5480290000000 1.0
C      1  0.5565620000000  0.4946900000000  0.4539870000000 1.0
C      1  0.5048810000000  0.4822900000000  0.4029470000000 1.0
C      1  0.5205380000000  0.5469760000000  0.3427410000000 1.0
C      1  0.4441780000000  0.5753860000000  0.5093850000000 1.0
C      1  0.5284460000000  0.5534940000000  0.4974800000000 1.0
C      1  0.5019000000000  0.6743120000000  0.5017090000000 1.0
C      1  0.4630100000000  0.4501670000000  0.4899810000000 1.0
C      1  0.4787580000000  0.4940600000000  0.4013960000000 1.0
C      1  0.3871240000000  0.4695100000000  0.5669270000000 1.0
C      1  0.4184580000000  0.5728560000000  0.6084670000000 1.0
C      1  0.6125380000000  0.4458250000000  0.4208840000000 1.0
C      1  0.5165850000000  0.4877350000000  0.5341820000000 1.0
C      1  0.6178400000000  0.4358640000000  0.4449800000000 1.0
C      1  0.6059540000000  0.5020060000000  0.4425070000000 1.0
C      1  0.5458370000000  0.5281920000000  0.3864580000000 1.0
C      1  0.4926440000000  0.4515710000000  0.4841750000000 1.0
C      1  0.4003570000000  0.5584380000000  0.5926710000000 1.0
C      1  0.5319440000000  0.5381730000000  0.3644570000000 1.0
C      1  0.4744190000000  0.4338050000000  0.4408200000000 1.0
C      1  0.5657780000000  0.4171510000000  0.5883790000000 1.0
C      1  0.4401740000000  0.5105110000000  0.4412030000000 1.0
C      1  0.3951140000000  0.4861420000000  0.5861580000000 1.0
C      1  0.3835970000000  0.4511510000000  0.5175140000000 1.0
C      1  0.3833590000000  0.4577100000000  0.5433340000000 1.0
C      1  0.4455220000000  0.4990570000000  0.5061040000000 1.0
C      1  0.5163670000000  0.4565130000000  0.5366160000000 1.0
C      1  0.5341800000000  0.5100130000000  0.5222830000000 1.0
C      1  0.4584560000000  0.5999190000000  0.5905710000000 1.0
C      1  0.4637150000000  0.5230650000000  0.4498390000000 1.0
C      1  0.5734690000000  0.5244430000000  0.3855950000000 1.0
C      1  0.5544120000000  0.6213740000000  0.4972590000000 1.0
C      1  0.5355130000000  0.4267090000000  0.4844940000000 1.0
C      1  0.5021590000000  0.5049380000000  0.6370790000000 1.0
C      1  0.5982000000000  0.5292480000000  0.4861940000000 1.0
C      1  0.4084840000000  0.5083500000000  0.5970430000000 1.0
C      1  0.4280050000000  0.3848440000000  0.5961160000000 1.0
C      1  0.4647290000000  0.4689120000000  0.5655210000000 1.0
C      1  0.5554320000000  0.4398140000000  0.4667800000000 1.0
C      1  0.3842100000000  0.4766760000000  0.4755850000000 1.0
C      1  0.4510380000000  0.4659340000000  0.5405050000000 1.0
C      1  0.5812760000000  0.4299930000000  0.4761560000000 1.0
C      1  0.4718310000000  0.6051450000000  0.5681930000000 1.0
C      1  0.4756490000000  0.5075840000000  0.6377940000000 1.0
C      1  0.3838560000000  0.5728790000000  0.5746090000000 1.0
C      1  0.5101710000000  0.5345000000000  0.5081680000000 1.0
C      1  0.4809940000000  0.6039270000000  0.5432810000000 1.0
C      1  0.6115520000000  0.5747220000000  0.4450060000000 1.0
C      1  0.4752050000000  0.5833430000000  0.4721330000000 1.0
C      1  0.5331320000000  0.5807360000000  0.5001920000000 1.0
C      1  0.4010240000000  0.4865840000000  0.4554450000000 1.0
C      1  0.4433080000000  0.4058970000000  0.5946220000000 1.0
C      1  0.5831090000000  0.5811650000000  0.4846150000000 1.0
C      1  0.4783950000000  0.4942240000000  0.5672790000000 1.0
C      1  0.4400370000000  0.5883650000000  0.6059490000000 1.0
C      1  0.5431630000000  0.4503630000000  0.4430940000000 1.0
C      1  0.4951010000000  0.4020180000000  0.4936540000000 1.0
C      1  0.5234660000000  0.4409230000000  0.3880870000000 1.0
C      1  0.6161860000000  0.4692190000000  0.5098900000000 1.0
C      1  0.4964910000000  0.4885510000000  0.5120180000000 1.0
C      1  0.4930360000000  0.4421620000000  0.5313950000000 1.0
C      1  0.5273340000000  0.4932100000000  0.4162300000000 1.0
C      1  0.5737800000000  0.4555110000000  0.3933640000000 1.0
C      1  0.5058500000000  0.4253560000000  0.4783250000000 1.0
C      1  0.4133890000000  0.5124330000000  0.4520690000000 1.0
C      1  0.4713540000000  0.5173610000000  0.3885790000000 1.0
C      1  0.5150230000000  0.6520360000000  0.5050060000000 1.0
C      1  0.5431660000000  0.3915420000000  0.5488330000000 1.0
C      1  0.4174260000000  0.5323740000000  0.5550780000000 1.0
C      1  0.5234700000000  0.4318630000000  0.4340250000000 1.0
C      1  0.6214270000000  0.4504920000000  0.4916380000000 1.0
C      1  0.4628280000000  0.5399860000000  0.3788530000000 1.0
C      1  0.5486750000000  0.4096490000000  0.5041530000000 1.0
C      1  0.4201780000000  0.4674740000000  0.4431090000000 1.0
C      1  0.5995310000000  0.4921760000000  0.4164930000000 1.0
C      1  0.5252430000000  0.4961730000000  0.6269210000000 1.0
C      1  0.5014040000000  0.4532930000000  0.4006320000000 1.0
C      1  0.5015570000000  0.4517390000000  0.5885660000000 1.0
C      1  0.4901820000000  0.5761520000000  0.4512450000000 1.0
C      1  0.5996320000000  0.4894880000000  0.5147260000000 1.0
C      1  0.4408410000000  0.4831220000000  0.4304330000000 1.0
C      1  0.5020260000000  0.5442700000000  0.5740150000000 1.0
C      1  0.6077700000000  0.4376100000000  0.4708580000000 1.0
C      1  0.5938030000000  0.5565480000000  0.4940250000000 1.0
C      1  0.4588500000000  0.4270450000000  0.5909850000000 1.0
C      1  0.5182850000000  0.4745630000000  0.5849410000000 1.0
C      1  0.5959650000000  0.5900070000000  0.4609310000000 1.0
C      1  0.5593470000000  0.5930220000000  0.4940500000000 1.0
C      1  0.5014280000000  0.4962420000000  0.4648690000000 1.0
C      1  0.4203170000000  0.5606240000000  0.5121260000000 1.0
C      1  0.5570500000000  0.5154900000000  0.5062890000000 1.0
C      1  0.5338110000000  0.3946440000000  0.5227680000000 1.0
C      1  0.5014120000000  0.4779610000000  0.4861130000000 1.0
C      1  0.4490700000000  0.4774730000000  0.4884980000000 1.0
C      1  0.5424470000000  0.4786520000000  0.4365370000000 1.0
C      1  0.4865000000000  0.5201250000000  0.4664520000000 1.0
C      1  0.5501530000000  0.4449090000000  0.3860720000000 1.0
C      1  0.5848350000000  0.5100430000000  0.5033540000000 1.0
C      1  0.4855720000000  0.5298180000000  0.4938250000000 1.0
C      1  0.4091990000000  0.5537080000000  0.5373760000000 1.0
C      1  0.5270940000000  0.6272080000000  0.5043450000000 1.0
C      1  0.4605150000000  0.5230510000000  0.5047260000000 1.0
C      1  0.4266900000000  0.5057700000000  0.6182070000000 1.0
C      1  0.5955020000000  0.4646950000000  0.4091660000000 1.0
END
