TITL C-627112-676-1758 0.000196728127527785 125000 -318.694760578262 0 0 54 (C1) n - 1
REM
REM in /home/nfs/bkarasulu/CARBON/AIRSS/Generating-Clusters/LCBOP/Only-C1/SD-CG/FIRE-CG
REM
REM
REM
REM
REM
REM ./C.cell (11c1c37f851c82e70ff6c80c92926a4b)
REM AIRSS Version 0.9.1 bugfix July 2018 build 013d7b7c2542+ Fri, 06 Jul 2018 19:26:36 +0100
REM compiler GCC version 9.2.1 20190827 (Red Hat 9.2.1-1)
REM options -cpp -mtune=generic -march=x86-64 -g -O0 -fpre-include=/usr/include/finclude/math-vector-fortran.h
REM seed -50119321 642136303 2119318957 -826865105 1606458395 -388443214 1768330411 444479007 7782359 -882265791 -93385200 1041863099 -549335035 -1526691972 348609224 1106459620 -1084927986 1116437962 234737647 380619920 -1162896684 -767695317 1164800080 125120909 454489276 -29216598 -30347913 -136711888 -692515188 -729542755 1558347325 -1564943684 1452127910
REM
CELL 1.54180   50.00000   50.00000   50.00000   90.00000   90.00000   90.00000
LATT -1
SFAC C  
C      1  0.5063230000000  0.5188520000000  0.4329230000000 1.0
C      1  0.5167040000000  0.4622500000000  0.5575730000000 1.0
C      1  0.4770550000000  0.4268500000000  0.4438520000000 1.0
C      1  0.4991270000000  0.4318250000000  0.4298240000000 1.0
C      1  0.5281460000000  0.5809610000000  0.4940890000000 1.0
C      1  0.5285020000000  0.4550340000000  0.5818490000000 1.0
C      1  0.4864410000000  0.4975860000000  0.4734910000000 1.0
C      1  0.5545020000000  0.5582690000000  0.4328460000000 1.0
C      1  0.5264190000000  0.4852820000000  0.5434200000000 1.0
C      1  0.5194530000000  0.4472170000000  0.4221290000000 1.0
C      1  0.3793020000000  0.5277910000000  0.5645470000000 1.0
C      1  0.4352980000000  0.4897440000000  0.5379460000000 1.0
C      1  0.5172070000000  0.4950510000000  0.4228340000000 1.0
C      1  0.4981700000000  0.5121990000000  0.5724350000000 1.0
C      1  0.4875810000000  0.5521860000000  0.4026130000000 1.0
C      1  0.5330290000000  0.5351290000000  0.5493210000000 1.0
C      1  0.5664700000000  0.4701600000000  0.4807810000000 1.0
C      1  0.5344890000000  0.5601530000000  0.5400850000000 1.0
C      1  0.5561150000000  0.5174900000000  0.4938210000000 1.0
C      1  0.5743140000000  0.4743720000000  0.4542230000000 1.0
C      1  0.4726240000000  0.4593980000000  0.5358750000000 1.0
C      1  0.5444790000000  0.4512480000000  0.4839410000000 1.0
C      1  0.4776610000000  0.5253100000000  0.6138230000000 1.0
C      1  0.5134260000000  0.5377870000000  0.4778200000000 1.0
C      1  0.4582820000000  0.4329450000000  0.4617250000000 1.0
C      1  0.4244170000000  0.5353940000000  0.4655650000000 1.0
C      1  0.5020370000000  0.4762150000000  0.4836840000000 1.0
C      1  0.4501660000000  0.5153600000000  0.5757300000000 1.0
C      1  0.4992040000000  0.5200550000000  0.4606610000000 1.0
C      1  0.4587250000000  0.4963800000000  0.4797670000000 1.0
C      1  0.5374290000000  0.4804980000000  0.5178530000000 1.0
C      1  0.5604240000000  0.4905080000000  0.5013790000000 1.0
C      1  0.3552350000000  0.5374050000000  0.5673730000000 1.0
C      1  0.5287550000000  0.5620280000000  0.4731940000000 1.0
C      1  0.4753570000000  0.5177290000000  0.5876530000000 1.0
C      1  0.5285970000000  0.5245680000000  0.4980090000000 1.0
C      1  0.5391880000000  0.4491560000000  0.6048780000000 1.0
C      1  0.4951470000000  0.4468640000000  0.5469130000000 1.0
C      1  0.4504710000000  0.4731680000000  0.4944170000000 1.0
C      1  0.5314980000000  0.5783030000000  0.5206460000000 1.0
C      1  0.5228010000000  0.4639780000000  0.4979570000000 1.0
C      1  0.4294990000000  0.5077890000000  0.5584880000000 1.0
C      1  0.4967010000000  0.4195010000000  0.5469810000000 1.0
C      1  0.4406950000000  0.5161990000000  0.4723230000000 1.0
C      1  0.5597040000000  0.4736240000000  0.4316380000000 1.0
C      1  0.5328420000000  0.4718240000000  0.4233690000000 1.0
C      1  0.5087920000000  0.5420450000000  0.4164490000000 1.0
C      1  0.5200860000000  0.5108250000000  0.5548460000000 1.0
C      1  0.5687780000000  0.5355530000000  0.4756910000000 1.0
C      1  0.5542340000000  0.5554160000000  0.4607600000000 1.0
C      1  0.4521420000000  0.4734260000000  0.5227940000000 1.0
C      1  0.4477790000000  0.4492270000000  0.4800250000000 1.0
C      1  0.4037610000000  0.5180220000000  0.5616710000000 1.0
C      1  0.5344200000000  0.5538440000000  0.4154990000000 1.0
END
