TITL C-627111-6168-1482 3.53057773049964e-07 125000 -564.25375507791 0 0 91 (C1) n - 1
REM
REM in /home/nfs/bkarasulu/CARBON/AIRSS/Generating-Clusters/LCBOP/Only-C1/SD-CG/FIRE-CG
REM
REM
REM
REM
REM
REM ./C.cell (11c1c37f851c82e70ff6c80c92926a4b)
REM AIRSS Version 0.9.1 bugfix July 2018 build 013d7b7c2542+ Fri, 06 Jul 2018 19:26:36 +0100
REM compiler GCC version 9.2.1 20190827 (Red Hat 9.2.1-1)
REM options -cpp -mtune=generic -march=x86-64 -g -O0 -fpre-include=/usr/include/finclude/math-vector-fortran.h
REM seed 1131480112 -372966789 1432881689 -771673592 -1062856944 -717794578 1416721036 361586633 905380728 -1950405073 -1921736910 -1903156683 -698116942 818048350 425250952 -1716104038 367959862 1885193597 -1328810056 -1027076973 -186147249 59322925 565905215 1680254909 424890668 -2036631741 1613081545 564778951 412545882 -552390496 -1142476133 -1131993444 -787922962
REM
CELL 1.54180   50.00000   50.00000   50.00000   90.00000   90.00000   90.00000
LATT -1
SFAC C  
C      1  0.5213370000000  0.4467130000000  0.5347150000000 1.0
C      1  0.5742580000000  0.4590470000000  0.4403980000000 1.0
C      1  0.5592730000000  0.5211510000000  0.5779000000000 1.0
C      1  0.5222480000000  0.5512290000000  0.4320760000000 1.0
C      1  0.5395800000000  0.4021810000000  0.4847860000000 1.0
C      1  0.5595500000000  0.5472410000000  0.5375000000000 1.0
C      1  0.5123400000000  0.5980990000000  0.4867060000000 1.0
C      1  0.5499820000000  0.5001210000000  0.4866960000000 1.0
C      1  0.4835980000000  0.4715640000000  0.4833160000000 1.0
C      1  0.4967310000000  0.5405800000000  0.4245300000000 1.0
C      1  0.4898940000000  0.5194150000000  0.5004080000000 1.0
C      1  0.5537430000000  0.5417290000000  0.5100800000000 1.0
C      1  0.5163860000000  0.3919640000000  0.4960050000000 1.0
C      1  0.4558440000000  0.4801320000000  0.5296450000000 1.0
C      1  0.5324460000000  0.5793180000000  0.6183060000000 1.0
C      1  0.4561270000000  0.5105400000000  0.4662690000000 1.0
C      1  0.5830790000000  0.4842450000000  0.5335710000000 1.0
C      1  0.5618390000000  0.5442860000000  0.4594470000000 1.0
C      1  0.5916780000000  0.5081480000000  0.5422900000000 1.0
C      1  0.4592590000000  0.4283480000000  0.4395600000000 1.0
C      1  0.5367240000000  0.5549050000000  0.6078300000000 1.0
C      1  0.5300410000000  0.4737710000000  0.5366770000000 1.0
C      1  0.4319730000000  0.5616510000000  0.4957260000000 1.0
C      1  0.5115420000000  0.4433210000000  0.5086960000000 1.0
C      1  0.5199690000000  0.5944410000000  0.4614830000000 1.0
C      1  0.4312510000000  0.4836550000000  0.5675240000000 1.0
C      1  0.4769120000000  0.5002990000000  0.4831170000000 1.0
C      1  0.5248880000000  0.4342350000000  0.5597940000000 1.0
C      1  0.5112700000000  0.4642300000000  0.4882770000000 1.0
C      1  0.4388360000000  0.4626240000000  0.5478500000000 1.0
C      1  0.5193980000000  0.4475850000000  0.4417850000000 1.0
C      1  0.4362830000000  0.4815820000000  0.5079840000000 1.0
C      1  0.4608740000000  0.5208120000000  0.4412580000000 1.0
C      1  0.4723790000000  0.4438400000000  0.4837450000000 1.0
C      1  0.4805700000000  0.5441980000000  0.5088120000000 1.0
C      1  0.4527160000000  0.4329730000000  0.4664490000000 1.0
C      1  0.4299900000000  0.4497830000000  0.4717050000000 1.0
C      1  0.5716710000000  0.4365250000000  0.4567360000000 1.0
C      1  0.4211520000000  0.5091830000000  0.5567300000000 1.0
C      1  0.5738550000000  0.5267020000000  0.5531040000000 1.0
C      1  0.5324670000000  0.6047810000000  0.5776430000000 1.0
C      1  0.5604650000000  0.4849980000000  0.4404360000000 1.0
C      1  0.4656840000000  0.3962050000000  0.5206170000000 1.0
C      1  0.4063840000000  0.5216000000000  0.5009850000000 1.0
C      1  0.5464280000000  0.4831890000000  0.4652880000000 1.0
C      1  0.5231320000000  0.5779640000000  0.4408030000000 1.0
C      1  0.5313740000000  0.5867260000000  0.5560030000000 1.0
C      1  0.5011130000000  0.5886260000000  0.5106290000000 1.0
C      1  0.5577010000000  0.4760050000000  0.5334090000000 1.0
C      1  0.5223170000000  0.5008260000000  0.4121050000000 1.0
C      1  0.5386780000000  0.5179330000000  0.5051010000000 1.0
C      1  0.5465810000000  0.5071270000000  0.4265300000000 1.0
C      1  0.4971230000000  0.4541340000000  0.4260420000000 1.0
C      1  0.5352470000000  0.4468640000000  0.5816160000000 1.0
C      1  0.4891950000000  0.4281290000000  0.5004270000000 1.0
C      1  0.5147410000000  0.5923850000000  0.5344840000000 1.0
C      1  0.4327620000000  0.4730930000000  0.4523520000000 1.0
C      1  0.4200440000000  0.5428080000000  0.5145940000000 1.0
C      1  0.4960860000000  0.5117470000000  0.4149980000000 1.0
C      1  0.4695760000000  0.5001170000000  0.4231810000000 1.0
C      1  0.4813540000000  0.4881140000000  0.5434980000000 1.0
C      1  0.4610470000000  0.5880570000000  0.4679470000000 1.0
C      1  0.4233830000000  0.5323000000000  0.5417500000000 1.0
C      1  0.4302850000000  0.5557610000000  0.4660250000000 1.0
C      1  0.4706910000000  0.5472270000000  0.4370800000000 1.0
C      1  0.4778610000000  0.4907750000000  0.5720410000000 1.0
C      1  0.5129740000000  0.5116540000000  0.5142880000000 1.0
C      1  0.5315030000000  0.4237480000000  0.4332060000000 1.0
C      1  0.4694090000000  0.4508330000000  0.4256150000000 1.0
C      1  0.5455340000000  0.4702240000000  0.5904410000000 1.0
C      1  0.4278900000000  0.4538290000000  0.5012320000000 1.0
C      1  0.4204180000000  0.4992820000000  0.4926450000000 1.0
C      1  0.5540090000000  0.4957090000000  0.5886410000000 1.0
C      1  0.5586860000000  0.4181170000000  0.4728420000000 1.0
C      1  0.5266030000000  0.4634290000000  0.4650660000000 1.0
C      1  0.5314100000000  0.6024360000000  0.6044340000000 1.0
C      1  0.4330010000000  0.4396630000000  0.5280140000000 1.0
C      1  0.4310930000000  0.4978250000000  0.4669640000000 1.0
C      1  0.4538670000000  0.4877760000000  0.5847820000000 1.0
C      1  0.5455840000000  0.5344470000000  0.4380290000000 1.0
C      1  0.5085900000000  0.4922500000000  0.5340880000000 1.0
C      1  0.4901570000000  0.4003900000000  0.5056720000000 1.0
C      1  0.5438790000000  0.5613710000000  0.5579660000000 1.0
C      1  0.4457010000000  0.4136800000000  0.5282000000000 1.0
C      1  0.4548840000000  0.5808180000000  0.4957370000000 1.0
C      1  0.4537670000000  0.5663140000000  0.4504120000000 1.0
C      1  0.5371950000000  0.4022020000000  0.4196110000000 1.0
C      1  0.5640230000000  0.5518830000000  0.4855060000000 1.0
C      1  0.4781210000000  0.5719980000000  0.5092710000000 1.0
C      1  0.5442230000000  0.5453280000000  0.5826740000000 1.0
C      1  0.4542760000000  0.4749380000000  0.4295940000000 1.0
END
