TITL C-627113-6568-66 2666.99000431378 125000 -633.265037427762 0 0 105 (C1) n - 1
REM
REM in /home/nfs/bkarasulu/CARBON/AIRSS/Generating-Clusters/LCBOP/Only-C1/SD-CG/FIRE-CG
REM
REM
REM
REM
REM
REM ./C.cell (11c1c37f851c82e70ff6c80c92926a4b)
REM AIRSS Version 0.9.1 bugfix July 2018 build 013d7b7c2542+ Fri, 06 Jul 2018 19:26:36 +0100
REM compiler GCC version 9.2.1 20190827 (Red Hat 9.2.1-1)
REM options -cpp -mtune=generic -march=x86-64 -g -O0 -fpre-include=/usr/include/finclude/math-vector-fortran.h
REM seed 1754123064 -797318296 111042383 371738879 -1471349142 -771957283 1311164958 -1519392719 -1364306755 1481249751 -1289048602 842616599 187414357 941219352 -842069950 1701030660 1867593189 -321411174 55652056 -1492337668 495437812 420666604 333208962 1969892484 -1758292211 -1989569723 -1721242911 -1442216748 760742809 -1483682604 -95551785 -808218413 738387214
REM
CELL 1.54180   50.00000   50.00000   50.00000   90.00000   90.00000   90.00000
LATT -1
SFAC C  
C      1  0.4657060000000  0.5579630000000  0.5435310000000 1.0
C      1  0.4084280000000  0.5325000000000  0.5136350000000 1.0
C      1  0.4190750000000  0.5440460000000  0.5370950000000 1.0
C      1  0.4406930000000  0.4257360000000  0.5323530000000 1.0
C      1  0.4478830000000  0.4433460000000  0.4899930000000 1.0
C      1  0.5136430000000  0.5930460000000  0.4327120000000 1.0
C      1  0.4976530000000  0.4640320000000  0.5977350000000 1.0
C      1  0.4612640000000  0.4460810000000  0.5745450000000 1.0
C      1  0.5108140000000  0.5061440000000  0.4922090000000 1.0
C      1  0.4849800000000  0.3928770000000  0.4812410000000 1.0
C      1  0.5760710000000  0.5372820000000  0.5725110000000 1.0
C      1  0.3950750000000  0.4565360000000  0.4809060000000 1.0
C      1  0.5087690000000  0.5218040000000  0.5724860000000 1.0
C      1  0.4570440000000  0.4972140000000  0.4999480000000 1.0
C      1  0.6348160000000  0.5479930000000  0.6243100000000 1.0
C      1  0.5523500000000  0.5591830000000  0.4416510000000 1.0
C      1  0.4840510000000  0.5683770000000  0.4898560000000 1.0
C      1  0.6126000000000  0.4916220000000  0.4421890000000 1.0
C      1  0.5311680000000  0.5395480000000  0.4433220000000 1.0
C      1  0.5342670000000  0.5876710000000  0.4753070000000 1.0
C      1  0.4852050000000  0.5351760000000  0.5842480000000 1.0
C      1  0.4818110000000  0.5493770000000  0.4655560000000 1.0
C      1  0.5119150000000  0.4754890000000  0.5776620000000 1.0
C      1  0.4984030000000  0.4905900000000  0.4717250000000 1.0
C      1  0.5705560000000  0.5148120000000  0.4501620000000 1.0
C      1  0.4690940000000  0.4652660000000  0.5946240000000 1.0
C      1  0.4244270000000  0.5369100000000  0.4899360000000 1.0
C      1  0.4714040000000  0.4880980000000  0.5206160000000 1.0
C      1  0.5442190000000  0.4193090000000  0.5147700000000 1.0
C      1  0.5156300000000  0.4709580000000  0.4299660000000 1.0
C      1  0.4824950000000  0.3971480000000  0.4548720000000 1.0
C      1  0.4214050000000  0.5122500000000  0.4389990000000 1.0
C      1  0.6363930000000  0.4918190000000  0.4315570000000 1.0
C      1  0.5691390000000  0.5494000000000  0.4855200000000 1.0
C      1  0.5396300000000  0.5114880000000  0.4528040000000 1.0
C      1  0.5191270000000  0.5890720000000  0.5192070000000 1.0
C      1  0.4613170000000  0.5892630000000  0.4435980000000 1.0
C      1  0.6041790000000  0.4868800000000  0.5352840000000 1.0
C      1  0.5957440000000  0.5414260000000  0.5897500000000 1.0
C      1  0.4711380000000  0.5649230000000  0.5158890000000 1.0
C      1  0.4908410000000  0.4008370000000  0.5077710000000 1.0
C      1  0.4062300000000  0.4565630000000  0.5070950000000 1.0
C      1  0.4936070000000  0.4594400000000  0.4136690000000 1.0
C      1  0.4841560000000  0.4331700000000  0.5610540000000 1.0
C      1  0.5608150000000  0.4665530000000  0.5259420000000 1.0
C      1  0.4760970000000  0.4970270000000  0.5467980000000 1.0
C      1  0.5122160000000  0.4563940000000  0.5184610000000 1.0
C      1  0.4775740000000  0.4176450000000  0.4362140000000 1.0
C      1  0.5647590000000  0.5154910000000  0.5298110000000 1.0
C      1  0.4667830000000  0.4707450000000  0.4117860000000 1.0
C      1  0.4864060000000  0.5943610000000  0.4343320000000 1.0
C      1  0.5554640000000  0.5309450000000  0.5541740000000 1.0
C      1  0.4836640000000  0.5586370000000  0.5663830000000 1.0
C      1  0.5773670000000  0.4893720000000  0.5305540000000 1.0
C      1  0.4445750000000  0.5392190000000  0.5475370000000 1.0
C      1  0.5116120000000  0.4515710000000  0.4894790000000 1.0
C      1  0.4798950000000  0.4059890000000  0.5541870000000 1.0
C      1  0.5784690000000  0.4691250000000  0.4685210000000 1.0
C      1  0.5549690000000  0.5269140000000  0.5031110000000 1.0
C      1  0.5311570000000  0.4493470000000  0.4427090000000 1.0
C      1  0.4409710000000  0.5776950000000  0.4575490000000 1.0
C      1  0.4595440000000  0.4916990000000  0.6009510000000 1.0
C      1  0.5076000000000  0.5270600000000  0.5111600000000 1.0
C      1  0.5084940000000  0.5498370000000  0.4551690000000 1.0
C      1  0.4891630000000  0.4638560000000  0.4761940000000 1.0
C      1  0.5372040000000  0.5843930000000  0.4470330000000 1.0
C      1  0.4389320000000  0.4374550000000  0.5587010000000 1.0
C      1  0.4694300000000  0.4046010000000  0.5277710000000 1.0
C      1  0.4002330000000  0.4804110000000  0.5211200000000 1.0
C      1  0.5242710000000  0.4261940000000  0.4272500000000 1.0
C      1  0.5014260000000  0.4966720000000  0.5619250000000 1.0
C      1  0.3967200000000  0.5068890000000  0.5175670000000 1.0
C      1  0.4028600000000  0.4946460000000  0.4467750000000 1.0
C      1  0.5403360000000  0.5700300000000  0.5161060000000 1.0
C      1  0.5609660000000  0.4508870000000  0.4812590000000 1.0
C      1  0.5618510000000  0.4427090000000  0.5088910000000 1.0
C      1  0.4654250000000  0.4497580000000  0.4698580000000 1.0
C      1  0.5284380000000  0.5407680000000  0.5620600000000 1.0
C      1  0.5127180000000  0.4961380000000  0.4449420000000 1.0
C      1  0.5731690000000  0.5441510000000  0.4570450000000 1.0
C      1  0.5195100000000  0.4065810000000  0.5135580000000 1.0
C      1  0.5134030000000  0.5903940000000  0.5464030000000 1.0
C      1  0.4933240000000  0.5158040000000  0.4330590000000 1.0
C      1  0.3941750000000  0.4730130000000  0.4597860000000 1.0
C      1  0.5310220000000  0.5430930000000  0.5148700000000 1.0
C      1  0.4480660000000  0.5163210000000  0.4314350000000 1.0
C      1  0.5388070000000  0.5092190000000  0.4837730000000 1.0
C      1  0.4679840000000  0.5178210000000  0.5992110000000 1.0
C      1  0.5115290000000  0.5662120000000  0.5609260000000 1.0
C      1  0.4430570000000  0.5158150000000  0.4870840000000 1.0
C      1  0.4538660000000  0.5134480000000  0.5546520000000 1.0
C      1  0.4959960000000  0.4469390000000  0.5392630000000 1.0
C      1  0.5554510000000  0.5748050000000  0.4919610000000 1.0
C      1  0.5333090000000  0.4720230000000  0.5283980000000 1.0
C      1  0.5345280000000  0.4484800000000  0.4709110000000 1.0
C      1  0.4298330000000  0.4404490000000  0.5108250000000 1.0
C      1  0.4969070000000  0.4291590000000  0.4181780000000 1.0
C      1  0.4697920000000  0.5296150000000  0.4455330000000 1.0
C      1  0.5078770000000  0.5876020000000  0.4915890000000 1.0
C      1  0.4277790000000  0.5603330000000  0.4738550000000 1.0
C      1  0.4482180000000  0.4531450000000  0.4243350000000 1.0
C      1  0.5871220000000  0.4918470000000  0.4536660000000 1.0
C      1  0.4578110000000  0.4976000000000  0.4114550000000 1.0
C      1  0.6154590000000  0.5448320000000  0.6071360000000 1.0
C      1  0.4591880000000  0.4375970000000  0.4449460000000 1.0
END
