TITL C-627109-622-1311 -4.28267536490114e-07 125000 -319.060431903567 0 0 53 (C1) n - 1
REM
REM in /home/nfs/bkarasulu/CARBON/AIRSS/Generating-Clusters/LCBOP/Only-C1/SD-CG/FIRE-CG
REM
REM
REM
REM
REM
REM ./C.cell (11c1c37f851c82e70ff6c80c92926a4b)
REM AIRSS Version 0.9.1 bugfix July 2018 build 013d7b7c2542+ Fri, 06 Jul 2018 19:26:36 +0100
REM compiler GCC version 9.2.1 20190827 (Red Hat 9.2.1-1)
REM options -cpp -mtune=generic -march=x86-64 -g -O0 -fpre-include=/usr/include/finclude/math-vector-fortran.h
REM seed 215422881 -1625118194 -861377923 -2034154664 1084718619 -624175496 -1708249679 -1407632059 -1592538732 -385985464 -1439796945 547348041 -563905326 -90170281 -71433864 -1098459227 528630732 -756577916 1958370898 -29750547 707917318 -1097116401 -1661695356 -313754784 682889230 2057325980 141727749 -427761627 894927288 -853606322 1110782256 898129070 1499853802
REM
CELL 1.54180   50.00000   50.00000   50.00000   90.00000   90.00000   90.00000
LATT -1
SFAC C  
C      1  0.4999370000000  0.4003670000000  0.4998200000000 1.0
C      1  0.4986880000000  0.5144510000000  0.4528190000000 1.0
C      1  0.5077290000000  0.5208550000000  0.5142340000000 1.0
C      1  0.4683760000000  0.5495810000000  0.4768860000000 1.0
C      1  0.5625420000000  0.4592870000000  0.5299230000000 1.0
C      1  0.5337730000000  0.5285940000000  0.5253450000000 1.0
C      1  0.5192810000000  0.4233050000000  0.4620400000000 1.0
C      1  0.5117300000000  0.4978980000000  0.4965640000000 1.0
C      1  0.4823390000000  0.4031780000000  0.5197800000000 1.0
C      1  0.4529800000000  0.4635610000000  0.5484860000000 1.0
C      1  0.5474870000000  0.4349240000000  0.5304740000000 1.0
C      1  0.4753490000000  0.4995230000000  0.4447600000000 1.0
C      1  0.5075320000000  0.4357600000000  0.4415470000000 1.0
C      1  0.4746410000000  0.5952780000000  0.4917890000000 1.0
C      1  0.4796800000000  0.5275870000000  0.5175930000000 1.0
C      1  0.4935520000000  0.4542620000000  0.4282540000000 1.0
C      1  0.5421120000000  0.5658580000000  0.4971450000000 1.0
C      1  0.4265810000000  0.4319260000000  0.4969920000000 1.0
C      1  0.5277230000000  0.4315660000000  0.5505650000000 1.0
C      1  0.4405130000000  0.4497270000000  0.4803770000000 1.0
C      1  0.4777760000000  0.4216260000000  0.5407310000000 1.0
C      1  0.4672880000000  0.5507210000000  0.5057510000000 1.0
C      1  0.4635320000000  0.5038840000000  0.5172610000000 1.0
C      1  0.5413550000000  0.5558560000000  0.5248250000000 1.0
C      1  0.5246430000000  0.4769260000000  0.5097930000000 1.0
C      1  0.5082480000000  0.5417160000000  0.4519120000000 1.0
C      1  0.4560650000000  0.4888840000000  0.5399700000000 1.0
C      1  0.4955990000000  0.6030680000000  0.5397620000000 1.0
C      1  0.5517900000000  0.5466050000000  0.4784370000000 1.0
C      1  0.4989500000000  0.5854090000000  0.4795050000000 1.0
C      1  0.4532060000000  0.4363320000000  0.5406650000000 1.0
C      1  0.5557530000000  0.5108450000000  0.5154640000000 1.0
C      1  0.4323870000000  0.4275150000000  0.5231880000000 1.0
C      1  0.5159400000000  0.4982790000000  0.4686640000000 1.0
C      1  0.5363450000000  0.5776360000000  0.5422750000000 1.0
C      1  0.5651280000000  0.5239550000000  0.4910270000000 1.0
C      1  0.5217900000000  0.5870900000000  0.4971850000000 1.0
C      1  0.5012380000000  0.4290840000000  0.5546590000000 1.0
C      1  0.4650260000000  0.5784170000000  0.5136530000000 1.0
C      1  0.5455300000000  0.5817030000000  0.5673970000000 1.0
C      1  0.5427090000000  0.4213000000000  0.5059590000000 1.0
C      1  0.5365370000000  0.5449250000000  0.4545770000000 1.0
C      1  0.4811150000000  0.4780260000000  0.4270110000000 1.0
C      1  0.4634620000000  0.4611340000000  0.4942160000000 1.0
C      1  0.4918870000000  0.5609970000000  0.4647170000000 1.0
C      1  0.5219980000000  0.4135830000000  0.4882440000000 1.0
C      1  0.4629370000000  0.4899940000000  0.4924430000000 1.0
C      1  0.4546380000000  0.4937330000000  0.4640340000000 1.0
C      1  0.5366290000000  0.4847130000000  0.4568990000000 1.0
C      1  0.5192270000000  0.5951520000000  0.5263550000000 1.0
C      1  0.5510330000000  0.4826670000000  0.5193440000000 1.0
C      1  0.4359560000000  0.4706020000000  0.4603480000000 1.0
C      1  0.4717370000000  0.5901320000000  0.5383330000000 1.0
END
