TITL C-627113-6568-968 -1.90828824668028e-07 125000 -1047.42256195168 0 0 171 (C1) n - 1
REM
REM in /home/nfs/bkarasulu/CARBON/AIRSS/Generating-Clusters/LCBOP/Only-C1/SD-CG/FIRE-CG
REM
REM
REM
REM
REM
REM ./C.cell (11c1c37f851c82e70ff6c80c92926a4b)
REM AIRSS Version 0.9.1 bugfix July 2018 build 013d7b7c2542+ Fri, 06 Jul 2018 19:26:36 +0100
REM compiler GCC version 9.2.1 20190827 (Red Hat 9.2.1-1)
REM options -cpp -mtune=generic -march=x86-64 -g -O0 -fpre-include=/usr/include/finclude/math-vector-fortran.h
REM seed 1311623022 -110237907 -1942923016 -529638368 -1813565598 1336259944 -1853831218 2008487627 1616600856 966133314 -784270022 -1323215518 1457461624 118786692 -1359354358 -1898697515 -393492430 -654006983 964562632 1441054114 -913968671 1595130622 -1311290019 -442049742 85679364 -25514804 1493848863 -1502628615 827400572 -1550414581 720465505 2069782733 1196406575
REM
CELL 1.54180   50.00000   50.00000   50.00000   90.00000   90.00000   90.00000
LATT -1
SFAC C  
C      1  0.5385460000000  0.5165160000000  0.5113240000000 1.0
C      1  0.4042150000000  0.5581900000000  0.4654350000000 1.0
C      1  0.4494260000000  0.5559810000000  0.5041390000000 1.0
C      1  0.5116050000000  0.5507660000000  0.5680450000000 1.0
C      1  0.5967360000000  0.5506310000000  0.4526680000000 1.0
C      1  0.4422010000000  0.4819150000000  0.4977180000000 1.0
C      1  0.6152260000000  0.5237320000000  0.5148080000000 1.0
C      1  0.4171230000000  0.5819560000000  0.4756300000000 1.0
C      1  0.4360150000000  0.4851500000000  0.4099820000000 1.0
C      1  0.4618780000000  0.4616480000000  0.4965900000000 1.0
C      1  0.5687330000000  0.4662670000000  0.5800640000000 1.0
C      1  0.4873860000000  0.5174070000000  0.3543010000000 1.0
C      1  0.6007260000000  0.5023310000000  0.4040210000000 1.0
C      1  0.5568250000000  0.5209790000000  0.4545890000000 1.0
C      1  0.3888650000000  0.4232010000000  0.4647290000000 1.0
C      1  0.4951460000000  0.5057070000000  0.5521210000000 1.0
C      1  0.5262920000000  0.4887020000000  0.4308320000000 1.0
C      1  0.4518760000000  0.3868370000000  0.5261490000000 1.0
C      1  0.4423430000000  0.5661030000000  0.4177540000000 1.0
C      1  0.4294430000000  0.4844210000000  0.4721480000000 1.0
C      1  0.4853150000000  0.4997270000000  0.3743240000000 1.0
C      1  0.4404550000000  0.4421870000000  0.5325200000000 1.0
C      1  0.6019750000000  0.4630450000000  0.5488520000000 1.0
C      1  0.4903920000000  0.4607140000000  0.4926810000000 1.0
C      1  0.5245720000000  0.4795810000000  0.5764710000000 1.0
C      1  0.4391350000000  0.5035110000000  0.4529740000000 1.0
C      1  0.4899020000000  0.4982870000000  0.4005560000000 1.0
C      1  0.5253700000000  0.3899710000000  0.5453620000000 1.0
C      1  0.5510190000000  0.4803560000000  0.5608800000000 1.0
C      1  0.6154900000000  0.4609150000000  0.4376710000000 1.0
C      1  0.3929940000000  0.4518430000000  0.5039390000000 1.0
C      1  0.4037610000000  0.5496550000000  0.4381700000000 1.0
C      1  0.5672620000000  0.4423510000000  0.4911570000000 1.0
C      1  0.6133270000000  0.4767040000000  0.3641450000000 1.0
C      1  0.5385000000000  0.4805310000000  0.4774550000000 1.0
C      1  0.5816150000000  0.4926390000000  0.5104140000000 1.0
C      1  0.3894020000000  0.4531780000000  0.5311100000000 1.0
C      1  0.6098540000000  0.4900050000000  0.5509800000000 1.0
C      1  0.5093930000000  0.5935300000000  0.5442260000000 1.0
C      1  0.5786750000000  0.4566390000000  0.6021920000000 1.0
C      1  0.5272420000000  0.4644010000000  0.4162310000000 1.0
C      1  0.5623200000000  0.4232610000000  0.5371470000000 1.0
C      1  0.4337820000000  0.6099230000000  0.5663510000000 1.0
C      1  0.4932230000000  0.3878900000000  0.4858220000000 1.0
C      1  0.5637860000000  0.5124590000000  0.5254870000000 1.0
C      1  0.3908660000000  0.5216250000000  0.4966280000000 1.0
C      1  0.4098580000000  0.5362440000000  0.4829230000000 1.0
C      1  0.5130130000000  0.4754760000000  0.6023970000000 1.0
C      1  0.6074890000000  0.4400040000000  0.4542580000000 1.0
C      1  0.4774150000000  0.5632090000000  0.4634430000000 1.0
C      1  0.4543510000000  0.5969950000000  0.5538220000000 1.0
C      1  0.5372840000000  0.4155490000000  0.5505440000000 1.0
C      1  0.5169760000000  0.4341710000000  0.5583410000000 1.0
C      1  0.4222760000000  0.4586280000000  0.4622020000000 1.0
C      1  0.5401500000000  0.5510590000000  0.5669420000000 1.0
C      1  0.5382060000000  0.5729870000000  0.4673260000000 1.0
C      1  0.5026380000000  0.6057790000000  0.4959940000000 1.0
C      1  0.4466020000000  0.4673920000000  0.5435450000000 1.0
C      1  0.4015390000000  0.4449250000000  0.4770920000000 1.0
C      1  0.4801220000000  0.5106790000000  0.5296100000000 1.0
C      1  0.4702460000000  0.4455600000000  0.4539130000000 1.0
C      1  0.5114400000000  0.4445970000000  0.4067800000000 1.0
C      1  0.5546240000000  0.5702780000000  0.5509500000000 1.0
C      1  0.4960600000000  0.5270950000000  0.5711220000000 1.0
C      1  0.5074270000000  0.4548700000000  0.5408390000000 1.0
C      1  0.5986790000000  0.5064290000000  0.4318680000000 1.0
C      1  0.4989690000000  0.4292800000000  0.5796620000000 1.0
C      1  0.5857800000000  0.4400180000000  0.5458990000000 1.0
C      1  0.4694870000000  0.4584190000000  0.6336960000000 1.0
C      1  0.6146200000000  0.5500650000000  0.4745560000000 1.0
C      1  0.6163300000000  0.4926610000000  0.4755160000000 1.0
C      1  0.4542890000000  0.6128260000000  0.4775530000000 1.0
C      1  0.5660690000000  0.5839810000000  0.4710000000000 1.0
C      1  0.5833970000000  0.5263480000000  0.4446160000000 1.0
C      1  0.4933170000000  0.6057640000000  0.5239160000000 1.0
C      1  0.4802780000000  0.4230830000000  0.5152460000000 1.0
C      1  0.5452210000000  0.4039890000000  0.4360480000000 1.0
C      1  0.4385080000000  0.5355970000000  0.4848670000000 1.0
C      1  0.4775480000000  0.5615660000000  0.4926180000000 1.0
C      1  0.4952950000000  0.4499890000000  0.4670770000000 1.0
C      1  0.4718400000000  0.5299250000000  0.5858930000000 1.0
C      1  0.5707790000000  0.4657650000000  0.5111400000000 1.0
C      1  0.5160340000000  0.4008750000000  0.6222760000000 1.0
C      1  0.4267070000000  0.5403960000000  0.4221000000000 1.0
C      1  0.4777240000000  0.5356100000000  0.4542270000000 1.0
C      1  0.6060780000000  0.5014540000000  0.4997340000000 1.0
C      1  0.5157460000000  0.5329160000000  0.5059610000000 1.0
C      1  0.4452380000000  0.5411220000000  0.5292120000000 1.0
C      1  0.4996260000000  0.5298190000000  0.4364770000000 1.0
C      1  0.5978990000000  0.5425090000000  0.5543880000000 1.0
C      1  0.5892790000000  0.5674750000000  0.5133280000000 1.0
C      1  0.4924690000000  0.4685840000000  0.6191090000000 1.0
C      1  0.5242340000000  0.5753700000000  0.4399920000000 1.0
C      1  0.4338100000000  0.5996600000000  0.4586970000000 1.0
C      1  0.3792750000000  0.5372490000000  0.5710530000000 1.0
C      1  0.5419200000000  0.4963540000000  0.4537830000000 1.0
C      1  0.4420830000000  0.4572200000000  0.6238730000000 1.0
C      1  0.4555700000000  0.4368750000000  0.5101760000000 1.0
C      1  0.5041830000000  0.5051360000000  0.4237470000000 1.0
C      1  0.4546890000000  0.5231460000000  0.4650960000000 1.0
C      1  0.4704390000000  0.5710100000000  0.4164250000000 1.0
C      1  0.4035600000000  0.5242920000000  0.5733520000000 1.0
C      1  0.6188010000000  0.4593320000000  0.4096910000000 1.0
C      1  0.4615680000000  0.4644380000000  0.5677700000000 1.0
C      1  0.5906840000000  0.4362080000000  0.4745100000000 1.0
C      1  0.4226510000000  0.4251860000000  0.5469090000000 1.0
C      1  0.5789840000000  0.6145000000000  0.5062750000000 1.0
C      1  0.5329170000000  0.4883780000000  0.5049030000000 1.0
C      1  0.5836610000000  0.5755730000000  0.4502550000000 1.0
C      1  0.5215870000000  0.4387750000000  0.4623130000000 1.0
C      1  0.4888380000000  0.4277390000000  0.4134420000000 1.0
C      1  0.5018720000000  0.3825340000000  0.5339930000000 1.0
C      1  0.5056300000000  0.5590040000000  0.5010070000000 1.0
C      1  0.5775720000000  0.5885860000000  0.4971630000000 1.0
C      1  0.5433090000000  0.4522150000000  0.4744950000000 1.0
C      1  0.4804860000000  0.3928820000000  0.5146240000000 1.0
C      1  0.4940300000000  0.5622320000000  0.4025880000000 1.0
C      1  0.4962840000000  0.5740380000000  0.5613050000000 1.0
C      1  0.5059230000000  0.4801180000000  0.5547180000000 1.0
C      1  0.4740210000000  0.4489680000000  0.6591870000000 1.0
C      1  0.4296370000000  0.4671390000000  0.5999910000000 1.0
C      1  0.5441990000000  0.5428070000000  0.4672490000000 1.0
C      1  0.5461100000000  0.4708620000000  0.5255950000000 1.0
C      1  0.5600210000000  0.4185990000000  0.5083980000000 1.0
C      1  0.5221460000000  0.3862360000000  0.4881800000000 1.0
C      1  0.6093630000000  0.5491400000000  0.5023730000000 1.0
C      1  0.4673770000000  0.5743230000000  0.5656660000000 1.0
C      1  0.4435420000000  0.4503030000000  0.4443930000000 1.0
C      1  0.4932800000000  0.5154380000000  0.5059690000000 1.0
C      1  0.4993680000000  0.4454020000000  0.5157350000000 1.0
C      1  0.4319880000000  0.5805950000000  0.5010630000000 1.0
C      1  0.5071940000000  0.4146890000000  0.6020240000000 1.0
C      1  0.5226700000000  0.4164910000000  0.4448860000000 1.0
C      1  0.4520910000000  0.4816920000000  0.5880570000000 1.0
C      1  0.4027200000000  0.4457870000000  0.5565710000000 1.0
C      1  0.4325780000000  0.5907600000000  0.4313970000000 1.0
C      1  0.6111630000000  0.5191240000000  0.5433760000000 1.0
C      1  0.4717140000000  0.4382270000000  0.5769770000000 1.0
C      1  0.4328550000000  0.5100790000000  0.4252060000000 1.0
C      1  0.4309790000000  0.3981370000000  0.5404800000000 1.0
C      1  0.5809310000000  0.5623570000000  0.5408370000000 1.0
C      1  0.5125790000000  0.5530840000000  0.4238520000000 1.0
C      1  0.5091890000000  0.6224650000000  0.4319340000000 1.0
C      1  0.4539470000000  0.5508160000000  0.5773840000000 1.0
C      1  0.4444540000000  0.4578390000000  0.4162140000000 1.0
C      1  0.5191260000000  0.5818690000000  0.4895510000000 1.0
C      1  0.5379280000000  0.5921110000000  0.5436440000000 1.0
C      1  0.4470640000000  0.6047960000000  0.5055290000000 1.0
C      1  0.4799720000000  0.5822140000000  0.4420840000000 1.0
C      1  0.4525380000000  0.5141460000000  0.5315090000000 1.0
C      1  0.4266340000000  0.5414960000000  0.5759280000000 1.0
C      1  0.4635760000000  0.4390770000000  0.4047560000000 1.0
C      1  0.3779130000000  0.4026920000000  0.4529580000000 1.0
C      1  0.5046950000000  0.5967350000000  0.4390980000000 1.0
C      1  0.4837830000000  0.3941120000000  0.4586060000000 1.0
C      1  0.4970540000000  0.5606090000000  0.3750610000000 1.0
C      1  0.4644140000000  0.6059650000000  0.5282490000000 1.0
C      1  0.4933410000000  0.5435850000000  0.3547410000000 1.0
C      1  0.6120310000000  0.4872290000000  0.4484560000000 1.0
C      1  0.4609560000000  0.5065100000000  0.5964180000000 1.0
C      1  0.5450200000000  0.3974730000000  0.4968910000000 1.0
C      1  0.4531910000000  0.4198510000000  0.5863620000000 1.0
C      1  0.5541920000000  0.5277600000000  0.5727890000000 1.0
C      1  0.4083280000000  0.4670700000000  0.5786410000000 1.0
C      1  0.4023900000000  0.4954330000000  0.5728840000000 1.0
C      1  0.4829100000000  0.6172670000000  0.4779060000000 1.0
C      1  0.4956970000000  0.4089550000000  0.4360390000000 1.0
C      1  0.5601850000000  0.5077240000000  0.5543840000000 1.0
C      1  0.3701150000000  0.5115700000000  0.5087620000000 1.0
C      1  0.6110850000000  0.4793150000000  0.3911080000000 1.0
C      1  0.4400290000000  0.4896980000000  0.5256750000000 1.0
END
