TITL C-627110-360-396 0.00681262894854049 125000 -450.983332315677 0 0 74 (C1) n - 1
REM
REM in /home/nfs/bkarasulu/CARBON/AIRSS/Generating-Clusters/LCBOP/Only-C1/SD-CG/FIRE-CG
REM
REM
REM
REM
REM
REM ./C.cell (11c1c37f851c82e70ff6c80c92926a4b)
REM AIRSS Version 0.9.1 bugfix July 2018 build 013d7b7c2542+ Fri, 06 Jul 2018 19:26:36 +0100
REM compiler GCC version 9.2.1 20190827 (Red Hat 9.2.1-1)
REM options -cpp -mtune=generic -march=x86-64 -g -O0 -fpre-include=/usr/include/finclude/math-vector-fortran.h
REM seed -1581808029 -2063641459 168648188 -598873935 -1867210901 -573120768 68212580 1967312408 -182420483 268594009 216641349 1306998999 775330957 -374028705 -951978608 -1826036282 892120044 1125644176 -1583858937 -899177461 379890942 74492217 753942714 -324617230 -2132554090 601268089 1670588750 573425519 1325880985 683489953 -1143718210 693931457 1583231397
REM
CELL 1.54180   50.00000   50.00000   50.00000   90.00000   90.00000   90.00000
LATT -1
SFAC C  
C      1  0.5897910000000  0.5304980000000  0.5583630000000 1.0
C      1  0.5286600000000  0.5133710000000  0.4798730000000 1.0
C      1  0.5634100000000  0.5220580000000  0.5636540000000 1.0
C      1  0.3296920000000  0.4822240000000  0.4872140000000 1.0
C      1  0.5243540000000  0.5043760000000  0.4193190000000 1.0
C      1  0.4255800000000  0.4747680000000  0.4917210000000 1.0
C      1  0.5253940000000  0.5179030000000  0.5351720000000 1.0
C      1  0.4869350000000  0.4865020000000  0.4796080000000 1.0
C      1  0.5519830000000  0.4650860000000  0.4519230000000 1.0
C      1  0.5166320000000  0.4772850000000  0.4193980000000 1.0
C      1  0.5107070000000  0.5843400000000  0.5077790000000 1.0
C      1  0.5991240000000  0.5226950000000  0.4888680000000 1.0
C      1  0.4394880000000  0.4502200000000  0.4893650000000 1.0
C      1  0.4746760000000  0.5078040000000  0.5240590000000 1.0
C      1  0.4361970000000  0.5179440000000  0.4683060000000 1.0
C      1  0.5547720000000  0.4636690000000  0.4817230000000 1.0
C      1  0.4877150000000  0.4291890000000  0.4946270000000 1.0
C      1  0.4852110000000  0.5705410000000  0.5497120000000 1.0
C      1  0.4316890000000  0.5167390000000  0.5452730000000 1.0
C      1  0.5838510000000  0.5680250000000  0.5295230000000 1.0
C      1  0.5766930000000  0.5383300000000  0.4809620000000 1.0
C      1  0.6097950000000  0.5298160000000  0.5138470000000 1.0
C      1  0.3980890000000  0.4758060000000  0.4975460000000 1.0
C      1  0.3659440000000  0.4718240000000  0.5384150000000 1.0
C      1  0.6056380000000  0.5025400000000  0.4699780000000 1.0
C      1  0.4855130000000  0.4098550000000  0.5142760000000 1.0
C      1  0.5676710000000  0.4850390000000  0.4380080000000 1.0
C      1  0.4796620000000  0.4627630000000  0.4641010000000 1.0
C      1  0.4566280000000  0.5252440000000  0.5379480000000 1.0
C      1  0.4655300000000  0.4434320000000  0.4818730000000 1.0
C      1  0.4830970000000  0.3916730000000  0.5333830000000 1.0
C      1  0.4717910000000  0.5531530000000  0.4541380000000 1.0
C      1  0.4655810000000  0.5509450000000  0.5451030000000 1.0
C      1  0.4742570000000  0.5739870000000  0.4742870000000 1.0
C      1  0.5819770000000  0.5608970000000  0.4633220000000 1.0
C      1  0.4916130000000  0.5885390000000  0.5285540000000 1.0
C      1  0.4412230000000  0.4982990000000  0.4877170000000 1.0
C      1  0.4806450000000  0.3734990000000  0.5525130000000 1.0
C      1  0.5327960000000  0.5684900000000  0.5177610000000 1.0
C      1  0.3239170000000  0.4786820000000  0.5132520000000 1.0
C      1  0.5506750000000  0.5070290000000  0.5426950000000 1.0
C      1  0.5154590000000  0.5680490000000  0.4572840000000 1.0
C      1  0.3788590000000  0.4801830000000  0.4774040000000 1.0
C      1  0.5589540000000  0.5762260000000  0.5237850000000 1.0
C      1  0.3394530000000  0.4742900000000  0.5347760000000 1.0
C      1  0.5707880000000  0.5552940000000  0.4386290000000 1.0
C      1  0.4985140000000  0.5484270000000  0.4423450000000 1.0
C      1  0.5250360000000  0.5537320000000  0.5811590000000 1.0
C      1  0.3525410000000  0.4827220000000  0.4731150000000 1.0
C      1  0.5521990000000  0.5072280000000  0.4262670000000 1.0
C      1  0.5531810000000  0.5242430000000  0.4696270000000 1.0
C      1  0.5644450000000  0.4885690000000  0.5257970000000 1.0
C      1  0.5020140000000  0.5806470000000  0.4805110000000 1.0
C      1  0.5004090000000  0.5045310000000  0.5358130000000 1.0
C      1  0.5463150000000  0.5374200000000  0.5801800000000 1.0
C      1  0.4733270000000  0.3192700000000  0.6095970000000 1.0
C      1  0.4495350000000  0.5363740000000  0.4542190000000 1.0
C      1  0.5984040000000  0.5443830000000  0.5352980000000 1.0
C      1  0.5701220000000  0.4745130000000  0.5031490000000 1.0
C      1  0.5275130000000  0.4625350000000  0.4907450000000 1.0
C      1  0.4757400000000  0.3371480000000  0.5907770000000 1.0
C      1  0.3883740000000  0.4724310000000  0.5237880000000 1.0
C      1  0.5251110000000  0.4592570000000  0.4398690000000 1.0
C      1  0.5151490000000  0.4882850000000  0.4842260000000 1.0
C      1  0.5125440000000  0.4391120000000  0.4830280000000 1.0
C      1  0.5072650000000  0.5266530000000  0.4261580000000 1.0
C      1  0.5935420000000  0.4904110000000  0.4489330000000 1.0
C      1  0.5148090000000  0.5334920000000  0.4934530000000 1.0
C      1  0.5252630000000  0.5411050000000  0.5183590000000 1.0
C      1  0.5041320000000  0.4480980000000  0.4556790000000 1.0
C      1  0.5037900000000  0.5661820000000  0.5706000000000 1.0
C      1  0.4681170000000  0.4980020000000  0.4978470000000 1.0
C      1  0.5563060000000  0.5307830000000  0.4407820000000 1.0
C      1  0.4781930000000  0.3553260000000  0.5716430000000 1.0
END
