TITL C-627113-6568-1050 885.028451794145 125000 -1097.75435186665 0 0 176 (C1) n - 1
REM
REM in /home/nfs/bkarasulu/CARBON/AIRSS/Generating-Clusters/LCBOP/Only-C1/SD-CG/FIRE-CG
REM
REM
REM
REM
REM
REM ./C.cell (11c1c37f851c82e70ff6c80c92926a4b)
REM AIRSS Version 0.9.1 bugfix July 2018 build 013d7b7c2542+ Fri, 06 Jul 2018 19:26:36 +0100
REM compiler GCC version 9.2.1 20190827 (Red Hat 9.2.1-1)
REM options -cpp -mtune=generic -march=x86-64 -g -O0 -fpre-include=/usr/include/finclude/math-vector-fortran.h
REM seed 1012655343 -92609533 -946893358 -45448777 177694369 -748016287 -493038663 -209015291 -1599011817 -1112315868 -489634003 -1242627352 1694849298 -548692695 -284986269 -1849398649 561999632 1510673572 1141890910 -1186173714 -752282979 416032484 -518961376 -1688244721 -446812760 -579708265 -1801257734 -1230438077 1186923385 -932137632 1857506208 2063606408 -725401805
REM
CELL 1.54180   50.00000   50.00000   50.00000   90.00000   90.00000   90.00000
LATT -1
SFAC C  
C      1  0.4179860000000  0.4729270000000  0.5046260000000 1.0
C      1  0.4957440000000  0.4445190000000  0.4022530000000 1.0
C      1  0.3962990000000  0.4360610000000  0.4821450000000 1.0
C      1  0.5284750000000  0.5678920000000  0.4342720000000 1.0
C      1  0.4909630000000  0.3900470000000  0.5383290000000 1.0
C      1  0.4316530000000  0.5783470000000  0.4858280000000 1.0
C      1  0.4720520000000  0.5751690000000  0.5672380000000 1.0
C      1  0.4967760000000  0.4688490000000  0.4984560000000 1.0
C      1  0.5597670000000  0.5995480000000  0.6046090000000 1.0
C      1  0.5101040000000  0.6846390000000  0.4707470000000 1.0
C      1  0.5332230000000  0.5453690000000  0.4512440000000 1.0
C      1  0.3838460000000  0.3917880000000  0.4620270000000 1.0
C      1  0.5674140000000  0.4881080000000  0.5043870000000 1.0
C      1  0.5332330000000  0.4837780000000  0.5961830000000 1.0
C      1  0.5529530000000  0.5849620000000  0.4760870000000 1.0
C      1  0.3473690000000  0.3545280000000  0.4525820000000 1.0
C      1  0.4658890000000  0.6003330000000  0.5110090000000 1.0
C      1  0.5511510000000  0.3744240000000  0.5278850000000 1.0
C      1  0.5720490000000  0.4015790000000  0.4907290000000 1.0
C      1  0.5482080000000  0.4676780000000  0.5095470000000 1.0
C      1  0.6371660000000  0.4341430000000  0.4169780000000 1.0
C      1  0.5080640000000  0.4372300000000  0.5299690000000 1.0
C      1  0.4880740000000  0.4666540000000  0.3860260000000 1.0
C      1  0.5599020000000  0.4601000000000  0.4463230000000 1.0
C      1  0.4245360000000  0.4485610000000  0.5586190000000 1.0
C      1  0.5035070000000  0.5687320000000  0.6105760000000 1.0
C      1  0.4911460000000  0.3807970000000  0.5116460000000 1.0
C      1  0.5822890000000  0.5802060000000  0.6061980000000 1.0
C      1  0.4030250000000  0.4112500000000  0.4673750000000 1.0
C      1  0.4842330000000  0.4743640000000  0.5946140000000 1.0
C      1  0.4213120000000  0.5052320000000  0.4275560000000 1.0
C      1  0.4619280000000  0.4358350000000  0.5941730000000 1.0
C      1  0.4470890000000  0.5812250000000  0.5557080000000 1.0
C      1  0.3931360000000  0.5057710000000  0.5318850000000 1.0
C      1  0.4349230000000  0.5175340000000  0.4495620000000 1.0
C      1  0.5412590000000  0.5281860000000  0.5073730000000 1.0
C      1  0.4303760000000  0.5772990000000  0.4225760000000 1.0
C      1  0.4446230000000  0.4851150000000  0.5015090000000 1.0
C      1  0.4240330000000  0.5631870000000  0.3995140000000 1.0
C      1  0.4885720000000  0.3724250000000  0.5591100000000 1.0
C      1  0.4513540000000  0.4244900000000  0.5008820000000 1.0
C      1  0.5513730000000  0.5045970000000  0.4629480000000 1.0
C      1  0.3655880000000  0.3732130000000  0.4572230000000 1.0
C      1  0.5447210000000  0.4141090000000  0.5579040000000 1.0
C      1  0.4599960000000  0.4433350000000  0.5197750000000 1.0
C      1  0.4881040000000  0.5406550000000  0.4580690000000 1.0
C      1  0.3841730000000  0.4577540000000  0.4670370000000 1.0
C      1  0.4985820000000  0.5591880000000  0.5094950000000 1.0
C      1  0.4527880000000  0.5196800000000  0.3896380000000 1.0
C      1  0.4930440000000  0.4042300000000  0.4655060000000 1.0
C      1  0.5181880000000  0.5672710000000  0.5465650000000 1.0
C      1  0.5054940000000  0.4291880000000  0.4731260000000 1.0
C      1  0.5666980000000  0.5297160000000  0.4215860000000 1.0
C      1  0.3946290000000  0.5334840000000  0.5215160000000 1.0
C      1  0.4717080000000  0.5291900000000  0.6242150000000 1.0
C      1  0.5008870000000  0.4931890000000  0.3849740000000 1.0
C      1  0.4372260000000  0.4755210000000  0.3887880000000 1.0
C      1  0.4438700000000  0.4282390000000  0.4747980000000 1.0
C      1  0.5176690000000  0.5422170000000  0.4974480000000 1.0
C      1  0.5924960000000  0.4842470000000  0.5166360000000 1.0
C      1  0.5392910000000  0.4304110000000  0.5818590000000 1.0
C      1  0.5320760000000  0.5285820000000  0.3717950000000 1.0
C      1  0.3962040000000  0.4905560000000  0.5076720000000 1.0
C      1  0.4889350000000  0.4236550000000  0.5957770000000 1.0
C      1  0.5849210000000  0.5589680000000  0.5886620000000 1.0
C      1  0.5630770000000  0.4300840000000  0.5413010000000 1.0
C      1  0.6178640000000  0.5668950000000  0.5258480000000 1.0
C      1  0.5776940000000  0.5421050000000  0.5695070000000 1.0
C      1  0.5480000000000  0.6003930000000  0.5567720000000 1.0
C      1  0.5321480000000  0.5898630000000  0.4542660000000 1.0
C      1  0.5087050000000  0.6050460000000  0.4601310000000 1.0
C      1  0.3854110000000  0.4860890000000  0.4611440000000 1.0
C      1  0.4825180000000  0.5156390000000  0.3904690000000 1.0
C      1  0.4855650000000  0.5822820000000  0.5130780000000 1.0
C      1  0.4660560000000  0.4315120000000  0.5452190000000 1.0
C      1  0.5171070000000  0.5574500000000  0.4088450000000 1.0
C      1  0.6255460000000  0.4363630000000  0.4402080000000 1.0
C      1  0.4446030000000  0.5138850000000  0.4996020000000 1.0
C      1  0.4826370000000  0.5488000000000  0.6069110000000 1.0
C      1  0.4753740000000  0.5293110000000  0.5608540000000 1.0
C      1  0.5036430000000  0.4396630000000  0.4991530000000 1.0
C      1  0.5110620000000  0.4662430000000  0.5989410000000 1.0
C      1  0.4678810000000  0.4689960000000  0.5073880000000 1.0
C      1  0.6095320000000  0.4618090000000  0.5071430000000 1.0
C      1  0.5142810000000  0.5857780000000  0.5897510000000 1.0
C      1  0.4504010000000  0.4673300000000  0.4418520000000 1.0
C      1  0.4625910000000  0.4616680000000  0.6086130000000 1.0
C      1  0.5570370000000  0.4783730000000  0.5818560000000 1.0
C      1  0.4514850000000  0.4804090000000  0.6265640000000 1.0
C      1  0.5623390000000  0.3805050000000  0.5042430000000 1.0
C      1  0.5002230000000  0.5811330000000  0.5647480000000 1.0
C      1  0.6082790000000  0.5113590000000  0.4455040000000 1.0
C      1  0.5956840000000  0.5540810000000  0.4782470000000 1.0
C      1  0.5785850000000  0.5551730000000  0.4184210000000 1.0
C      1  0.4414250000000  0.5269810000000  0.5251670000000 1.0
C      1  0.4582830000000  0.5065400000000  0.6303950000000 1.0
C      1  0.4943980000000  0.4944710000000  0.4391720000000 1.0
C      1  0.5127920000000  0.4671990000000  0.5393890000000 1.0
C      1  0.5535260000000  0.4925200000000  0.3940230000000 1.0
C      1  0.3855280000000  0.5036580000000  0.4842110000000 1.0
C      1  0.4577140000000  0.5716850000000  0.4303120000000 1.0
C      1  0.5134280000000  0.5414470000000  0.4702460000000 1.0
C      1  0.4929450000000  0.4323900000000  0.4276650000000 1.0
C      1  0.3731360000000  0.5523090000000  0.4795470000000 1.0
C      1  0.4465480000000  0.5474090000000  0.3909670000000 1.0
C      1  0.4103590000000  0.4376390000000  0.5353360000000 1.0
C      1  0.4509050000000  0.4006390000000  0.4396140000000 1.0
C      1  0.4724820000000  0.5493200000000  0.5800610000000 1.0
C      1  0.4603870000000  0.4656170000000  0.3787240000000 1.0
C      1  0.6055750000000  0.5313200000000  0.4636820000000 1.0
C      1  0.5869840000000  0.6115130000000  0.6403340000000 1.0
C      1  0.5985100000000  0.4981260000000  0.4235530000000 1.0
C      1  0.5559410000000  0.5097490000000  0.4907590000000 1.0
C      1  0.5290760000000  0.5016690000000  0.3816520000000 1.0
C      1  0.5762830000000  0.4290680000000  0.4949410000000 1.0
C      1  0.5062680000000  0.4469170000000  0.4498080000000 1.0
C      1  0.4702210000000  0.4820100000000  0.4331640000000 1.0
C      1  0.4343500000000  0.5007890000000  0.4014580000000 1.0
C      1  0.4923050000000  0.5384770000000  0.4102010000000 1.0
C      1  0.4264050000000  0.5690540000000  0.5431290000000 1.0
C      1  0.4769920000000  0.4817020000000  0.5686580000000 1.0
C      1  0.4440610000000  0.4527700000000  0.4625160000000 1.0
C      1  0.4788950000000  0.4084650000000  0.4397040000000 1.0
C      1  0.5639570000000  0.6182860000000  0.6263360000000 1.0
C      1  0.5623310000000  0.4499170000000  0.5816170000000 1.0
C      1  0.5010370000000  0.5186790000000  0.5536410000000 1.0
C      1  0.5144800000000  0.4375520000000  0.5942550000000 1.0
C      1  0.4087180000000  0.4455370000000  0.5075220000000 1.0
C      1  0.5812280000000  0.4416880000000  0.5612990000000 1.0
C      1  0.4195470000000  0.5456520000000  0.5288350000000 1.0
C      1  0.6049810000000  0.5588900000000  0.5041260000000 1.0
C      1  0.4688870000000  0.5577160000000  0.4078740000000 1.0
C      1  0.5919480000000  0.4840650000000  0.5461780000000 1.0
C      1  0.5097310000000  0.6588990000000  0.4666320000000 1.0
C      1  0.4489180000000  0.4354230000000  0.5676640000000 1.0
C      1  0.5143560000000  0.4749750000000  0.4477670000000 1.0
C      1  0.3836860000000  0.5315760000000  0.4936760000000 1.0
C      1  0.4912110000000  0.3844380000000  0.4851390000000 1.0
C      1  0.5308790000000  0.5526520000000  0.3843450000000 1.0
C      1  0.5515770000000  0.5261030000000  0.4451330000000 1.0
C      1  0.5596650000000  0.4413580000000  0.5151800000000 1.0
C      1  0.5388790000000  0.5848880000000  0.5338670000000 1.0
C      1  0.5445240000000  0.5285520000000  0.5360270000000 1.0
C      1  0.5645900000000  0.5219240000000  0.5551580000000 1.0
C      1  0.6199620000000  0.4506340000000  0.5318650000000 1.0
C      1  0.4025440000000  0.4935210000000  0.5553450000000 1.0
C      1  0.6323690000000  0.5762440000000  0.5453910000000 1.0
C      1  0.5402360000000  0.5975570000000  0.5847590000000 1.0
C      1  0.4533930000000  0.5165460000000  0.5486550000000 1.0
C      1  0.4917380000000  0.5229220000000  0.4360810000000 1.0
C      1  0.4695300000000  0.5650730000000  0.4572410000000 1.0
C      1  0.5092860000000  0.6327130000000  0.4626440000000 1.0
C      1  0.4413670000000  0.5991670000000  0.4999370000000 1.0
C      1  0.6027580000000  0.4578370000000  0.5536800000000 1.0
C      1  0.4253030000000  0.4774260000000  0.5609600000000 1.0
C      1  0.5744330000000  0.5049110000000  0.4092670000000 1.0
C      1  0.4308430000000  0.4083740000000  0.4590950000000 1.0
C      1  0.3294680000000  0.3361170000000  0.4480830000000 1.0
C      1  0.4850630000000  0.5900790000000  0.4632660000000 1.0
C      1  0.5709870000000  0.4951040000000  0.5621680000000 1.0
C      1  0.4460070000000  0.5569910000000  0.4744290000000 1.0
C      1  0.5983190000000  0.5889250000000  0.6287710000000 1.0
C      1  0.5780100000000  0.5731840000000  0.4655360000000 1.0
C      1  0.5206960000000  0.4777230000000  0.5128770000000 1.0
C      1  0.5998840000000  0.4435910000000  0.4874860000000 1.0
C      1  0.5820290000000  0.5744230000000  0.4372010000000 1.0
C      1  0.4508840000000  0.4902890000000  0.5597070000000 1.0
C      1  0.5208070000000  0.5384220000000  0.5480230000000 1.0
C      1  0.5431880000000  0.3872360000000  0.5502010000000 1.0
C      1  0.5468960000000  0.5868480000000  0.5054270000000 1.0
C      1  0.4410770000000  0.5287400000000  0.4750030000000 1.0
C      1  0.4909580000000  0.4181380000000  0.5428380000000 1.0
C      1  0.3964050000000  0.4942630000000  0.4361230000000 1.0
C      1  0.5419650000000  0.4798340000000  0.4527440000000 1.0
C      1  0.6131400000000  0.4395070000000  0.4634040000000 1.0
C      1  0.4999110000000  0.4891230000000  0.5531820000000 1.0
END
