TITL C-627107-135-90 -4.21028446917843e-07 125000 -992.444295996372 0 0 162 (C1) n - 1
REM
REM in /home/nfs/bkarasulu/CARBON/AIRSS/Generating-Clusters/LCBOP/Only-C1/SD-CG/FIRE-CG
REM
REM
REM
REM
REM
REM ./C.cell (11c1c37f851c82e70ff6c80c92926a4b)
REM AIRSS Version 0.9.1 bugfix July 2018 build 013d7b7c2542+ Fri, 06 Jul 2018 19:26:36 +0100
REM compiler GCC version 9.2.1 20190827 (Red Hat 9.2.1-1)
REM options -cpp -mtune=generic -march=x86-64 -g -O0 -fpre-include=/usr/include/finclude/math-vector-fortran.h
REM seed -716481920 1289301355 1470103308 -1553232609 -112747202 1361566943 305721299 -2000700761 -1295084561 -1320385777 -1685453426 -1269850081 363567590 1724777208 -731073350 1214980735 -18131298 -1520749260 2063200482 954023255 1637645079 -1574064004 1892451843 91692024 -1845903401 -1767750180 -13775623 -233314030 1414825964 47647630 1372336230 1104172589 -924291271
REM
CELL 1.54180   50.00000   50.00000   50.00000   90.00000   90.00000   90.00000
LATT -1
SFAC C  
C      1  0.4040960000000  0.4384470000000  0.5432780000000 1.0
C      1  0.5218160000000  0.5043910000000  0.4462550000000 1.0
C      1  0.5569450000000  0.3915570000000  0.4442050000000 1.0
C      1  0.5584110000000  0.4414110000000  0.5295240000000 1.0
C      1  0.4929020000000  0.4353840000000  0.4326980000000 1.0
C      1  0.3977830000000  0.4548720000000  0.5212400000000 1.0
C      1  0.5178110000000  0.5821590000000  0.4209930000000 1.0
C      1  0.4897330000000  0.4567160000000  0.3813270000000 1.0
C      1  0.4795160000000  0.4703600000000  0.4043920000000 1.0
C      1  0.5046980000000  0.4383200000000  0.4579730000000 1.0
C      1  0.4021670000000  0.5071590000000  0.5269700000000 1.0
C      1  0.5147910000000  0.4441230000000  0.6012020000000 1.0
C      1  0.5036570000000  0.3668220000000  0.4660090000000 1.0
C      1  0.5128890000000  0.4258340000000  0.5389860000000 1.0
C      1  0.4436660000000  0.5303360000000  0.4072630000000 1.0
C      1  0.5125380000000  0.6180030000000  0.5195340000000 1.0
C      1  0.5524120000000  0.3970540000000  0.5435910000000 1.0
C      1  0.4792330000000  0.5759310000000  0.4847370000000 1.0
C      1  0.4861470000000  0.4976540000000  0.4090720000000 1.0
C      1  0.5115260000000  0.5592170000000  0.5166640000000 1.0
C      1  0.3920390000000  0.5337320000000  0.5242660000000 1.0
C      1  0.4262380000000  0.5671570000000  0.5066100000000 1.0
C      1  0.5772640000000  0.4579160000000  0.5411380000000 1.0
C      1  0.4579770000000  0.5013820000000  0.4819560000000 1.0
C      1  0.4533650000000  0.4376110000000  0.5075430000000 1.0
C      1  0.4627870000000  0.4772010000000  0.5688110000000 1.0
C      1  0.5474280000000  0.5064450000000  0.4873110000000 1.0
C      1  0.4666400000000  0.5158500000000  0.4005550000000 1.0
C      1  0.4460020000000  0.5876600000000  0.5140280000000 1.0
C      1  0.4564110000000  0.5304750000000  0.4833440000000 1.0
C      1  0.4702240000000  0.6465170000000  0.4819240000000 1.0
C      1  0.5602260000000  0.5339110000000  0.5930170000000 1.0
C      1  0.4268140000000  0.5088700000000  0.5925000000000 1.0
C      1  0.5307620000000  0.4831150000000  0.4925260000000 1.0
C      1  0.5260070000000  0.5562320000000  0.4296550000000 1.0
C      1  0.4584990000000  0.4201220000000  0.5299040000000 1.0
C      1  0.4299750000000  0.5055750000000  0.5194720000000 1.0
C      1  0.5674320000000  0.6212170000000  0.3643570000000 1.0
C      1  0.5374100000000  0.5214100000000  0.4641140000000 1.0
C      1  0.6619560000000  0.4899280000000  0.4942770000000 1.0
C      1  0.5408220000000  0.4004000000000  0.3718370000000 1.0
C      1  0.5343560000000  0.5618900000000  0.5032390000000 1.0
C      1  0.4341340000000  0.5498440000000  0.4838250000000 1.0
C      1  0.5610200000000  0.6067070000000  0.4158510000000 1.0
C      1  0.5310380000000  0.4476490000000  0.4615400000000 1.0
C      1  0.4634250000000  0.3582720000000  0.4925740000000 1.0
C      1  0.5992240000000  0.5756930000000  0.4771110000000 1.0
C      1  0.5232270000000  0.4704380000000  0.5488170000000 1.0
C      1  0.5263950000000  0.5214410000000  0.5423400000000 1.0
C      1  0.4500160000000  0.5557160000000  0.5970150000000 1.0
C      1  0.5357460000000  0.5505190000000  0.4567740000000 1.0
C      1  0.5023390000000  0.4028110000000  0.5240960000000 1.0
C      1  0.5732510000000  0.3679710000000  0.5834670000000 1.0
C      1  0.3896730000000  0.4817480000000  0.5273050000000 1.0
C      1  0.4229400000000  0.5554540000000  0.5520240000000 1.0
C      1  0.5555170000000  0.4373500000000  0.5012260000000 1.0
C      1  0.5606520000000  0.6224150000000  0.5098640000000 1.0
C      1  0.4931050000000  0.4947950000000  0.6003920000000 1.0
C      1  0.4471530000000  0.5581490000000  0.4087850000000 1.0
C      1  0.4764760000000  0.5851040000000  0.5608390000000 1.0
C      1  0.4033910000000  0.4981330000000  0.6062680000000 1.0
C      1  0.4746020000000  0.3976860000000  0.5241340000000 1.0
C      1  0.5026710000000  0.4526740000000  0.5435930000000 1.0
C      1  0.6369450000000  0.4949400000000  0.4996560000000 1.0
C      1  0.4068720000000  0.4482790000000  0.4943350000000 1.0
C      1  0.3879830000000  0.4763600000000  0.5991380000000 1.0
C      1  0.3524970000000  0.4384670000000  0.5909000000000 1.0
C      1  0.5632130000000  0.3819740000000  0.5639150000000 1.0
C      1  0.5645900000000  0.6143340000000  0.3893320000000 1.0
C      1  0.5756190000000  0.3712820000000  0.3891020000000 1.0
C      1  0.5093530000000  0.5091660000000  0.4212920000000 1.0
C      1  0.5400300000000  0.4567100000000  0.4864100000000 1.0
C      1  0.5356190000000  0.4619050000000  0.6016250000000 1.0
C      1  0.5931690000000  0.5841350000000  0.5037910000000 1.0
C      1  0.4340970000000  0.5343480000000  0.6057190000000 1.0
C      1  0.4798650000000  0.3557650000000  0.4715160000000 1.0
C      1  0.5369080000000  0.5714760000000  0.4770400000000 1.0
C      1  0.5186650000000  0.5346650000000  0.4126280000000 1.0
C      1  0.4632330000000  0.3741970000000  0.5140770000000 1.0
C      1  0.5367560000000  0.5469890000000  0.5821240000000 1.0
C      1  0.5847240000000  0.6106890000000  0.5082790000000 1.0
C      1  0.5440790000000  0.5940290000000  0.5897160000000 1.0
C      1  0.4508040000000  0.4241880000000  0.5575790000000 1.0
C      1  0.4514660000000  0.5234590000000  0.5294620000000 1.0
C      1  0.5204870000000  0.3868290000000  0.5084570000000 1.0
C      1  0.4714010000000  0.4579430000000  0.4997420000000 1.0
C      1  0.4451590000000  0.4485910000000  0.4370170000000 1.0
C      1  0.5061100000000  0.4339130000000  0.3844520000000 1.0
C      1  0.4667400000000  0.5968110000000  0.5360170000000 1.0
C      1  0.4606190000000  0.5971070000000  0.4895710000000 1.0
C      1  0.4869640000000  0.4452580000000  0.5944090000000 1.0
C      1  0.5351050000000  0.6036910000000  0.4271450000000 1.0
C      1  0.5850250000000  0.4859860000000  0.4387510000000 1.0
C      1  0.5334350000000  0.6003390000000  0.4770300000000 1.0
C      1  0.5688870000000  0.4651330000000  0.4352290000000 1.0
C      1  0.5976880000000  0.5081710000000  0.4461550000000 1.0
C      1  0.6115930000000  0.4991490000000  0.5061540000000 1.0
C      1  0.5469880000000  0.3947630000000  0.4701350000000 1.0
C      1  0.4911860000000  0.5854710000000  0.4126240000000 1.0
C      1  0.5119500000000  0.4289990000000  0.4119790000000 1.0
C      1  0.4191760000000  0.5565020000000  0.6485790000000 1.0
C      1  0.5944660000000  0.5929040000000  0.4552710000000 1.0
C      1  0.5078030000000  0.5084170000000  0.5254040000000 1.0
C      1  0.5477720000000  0.4472540000000  0.4385100000000 1.0
C      1  0.4047200000000  0.5239090000000  0.4370060000000 1.0
C      1  0.6150540000000  0.5291020000000  0.4530740000000 1.0
C      1  0.5050980000000  0.4915670000000  0.5026580000000 1.0
C      1  0.5346710000000  0.6148040000000  0.5021280000000 1.0
C      1  0.5222560000000  0.3824110000000  0.4796200000000 1.0
C      1  0.5579120000000  0.4088940000000  0.4936960000000 1.0
C      1  0.4174370000000  0.5372740000000  0.6295500000000 1.0
C      1  0.5167380000000  0.5043070000000  0.5888290000000 1.0
C      1  0.3988980000000  0.5153920000000  0.6287660000000 1.0
C      1  0.6401700000000  0.5299270000000  0.4421470000000 1.0
C      1  0.3991210000000  0.4584810000000  0.4456800000000 1.0
C      1  0.4445840000000  0.5389080000000  0.5519970000000 1.0
C      1  0.5845780000000  0.4846770000000  0.5440520000000 1.0
C      1  0.4698250000000  0.4269370000000  0.5795130000000 1.0
C      1  0.4704850000000  0.6686300000000  0.4681380000000 1.0
C      1  0.5487900000000  0.3906300000000  0.5161570000000 1.0
C      1  0.4088560000000  0.5567590000000  0.5273100000000 1.0
C      1  0.3701840000000  0.4571630000000  0.5950550000000 1.0
C      1  0.5284090000000  0.5740250000000  0.5794100000000 1.0
C      1  0.5870570000000  0.5661200000000  0.5245690000000 1.0
C      1  0.4709470000000  0.4521070000000  0.4252240000000 1.0
C      1  0.5417290000000  0.4236520000000  0.5446740000000 1.0
C      1  0.5212180000000  0.5256930000000  0.5702170000000 1.0
C      1  0.4713770000000  0.6228170000000  0.4958730000000 1.0
C      1  0.5870820000000  0.4989950000000  0.5192730000000 1.0
C      1  0.5644630000000  0.5052330000000  0.5896950000000 1.0
C      1  0.4221950000000  0.4864980000000  0.4132520000000 1.0
C      1  0.4405520000000  0.4935510000000  0.5733680000000 1.0
C      1  0.4777910000000  0.4725780000000  0.5926920000000 1.0
C      1  0.4686390000000  0.5358330000000  0.5095850000000 1.0
C      1  0.5393970000000  0.4276510000000  0.4196960000000 1.0
C      1  0.4597340000000  0.5752020000000  0.5813860000000 1.0
C      1  0.4216120000000  0.4627340000000  0.4284110000000 1.0
C      1  0.4659260000000  0.5771900000000  0.4099970000000 1.0
C      1  0.3993440000000  0.4661110000000  0.4730060000000 1.0
C      1  0.5822710000000  0.4963390000000  0.5696290000000 1.0
C      1  0.4323420000000  0.4949720000000  0.4928890000000 1.0
C      1  0.4794780000000  0.4840750000000  0.4920470000000 1.0
C      1  0.4218430000000  0.5147820000000  0.4166300000000 1.0
C      1  0.4231540000000  0.4295030000000  0.5599680000000 1.0
C      1  0.4864300000000  0.5571540000000  0.5054370000000 1.0
C      1  0.5687580000000  0.5508890000000  0.5369020000000 1.0
C      1  0.5042690000000  0.5810950000000  0.5660730000000 1.0
C      1  0.4766540000000  0.4648480000000  0.5470660000000 1.0
C      1  0.3993970000000  0.5138170000000  0.4612930000000 1.0
C      1  0.5521040000000  0.5288840000000  0.5308940000000 1.0
C      1  0.4409070000000  0.4335260000000  0.4612260000000 1.0
C      1  0.5528710000000  0.4027070000000  0.4186720000000 1.0
C      1  0.5311780000000  0.6141630000000  0.4528820000000 1.0
C      1  0.5408140000000  0.4893030000000  0.5953530000000 1.0
C      1  0.4088460000000  0.4926370000000  0.4770590000000 1.0
C      1  0.4843500000000  0.6170540000000  0.5215200000000 1.0
C      1  0.5569660000000  0.3908150000000  0.3930830000000 1.0
C      1  0.5206710000000  0.4176190000000  0.3668490000000 1.0
C      1  0.4320550000000  0.4349070000000  0.4886950000000 1.0
C      1  0.6070150000000  0.5495160000000  0.4706310000000 1.0
C      1  0.5635680000000  0.5124810000000  0.5101430000000 1.0
C      1  0.5828060000000  0.6016240000000  0.4329580000000 1.0
END
