TITL C-627113-6568-842 0.363257466874521 125000 -295.103477662532 0 0 51 (C1) n - 1
REM
REM in /home/nfs/bkarasulu/CARBON/AIRSS/Generating-Clusters/LCBOP/Only-C1/SD-CG/FIRE-CG
REM
REM
REM
REM
REM
REM ./C.cell (11c1c37f851c82e70ff6c80c92926a4b)
REM AIRSS Version 0.9.1 bugfix July 2018 build 013d7b7c2542+ Fri, 06 Jul 2018 19:26:36 +0100
REM compiler GCC version 9.2.1 20190827 (Red Hat 9.2.1-1)
REM options -cpp -mtune=generic -march=x86-64 -g -O0 -fpre-include=/usr/include/finclude/math-vector-fortran.h
REM seed 139976056 924398013 -49160730 -558477534 87346687 -509558034 623073153 1427232580 1686208493 535038140 758571767 -2046388673 259240147 -602662674 -585468375 -1387413618 -1553098726 -1302797378 -227493488 -20136034 -196485317 -1226736668 2080719849 1577546140 -719001528 667780221 -1975638358 -1063126729 1596874263 -574761944 -2026762329 -204559609 -1936160261
REM
CELL 1.54180   50.00000   50.00000   50.00000   90.00000   90.00000   90.00000
LATT -1
SFAC C  
C      1  0.3320210000000  0.3721340000000  0.4831070000000 1.0
C      1  0.5588120000000  0.5105140000000  0.5430500000000 1.0
C      1  0.3543090000000  0.3853580000000  0.4859380000000 1.0
C      1  0.5272180000000  0.4587170000000  0.4900580000000 1.0
C      1  0.4696280000000  0.5079740000000  0.5138420000000 1.0
C      1  0.4481630000000  0.4137340000000  0.4915350000000 1.0
C      1  0.5799560000000  0.5010800000000  0.5550160000000 1.0
C      1  0.5470120000000  0.5284250000000  0.4561160000000 1.0
C      1  0.5680400000000  0.5084200000000  0.4570330000000 1.0
C      1  0.4936650000000  0.6213850000000  0.5464350000000 1.0
C      1  0.4109340000000  0.5412020000000  0.5831490000000 1.0
C      1  0.4730570000000  0.5303250000000  0.5327320000000 1.0
C      1  0.5005040000000  0.5737580000000  0.5222140000000 1.0
C      1  0.5368820000000  0.4265590000000  0.5250340000000 1.0
C      1  0.5097570000000  0.4911850000000  0.4586320000000 1.0
C      1  0.4745990000000  0.4117330000000  0.4917570000000 1.0
C      1  0.5997100000000  0.5434160000000  0.4655850000000 1.0
C      1  0.5109270000000  0.5280620000000  0.4843800000000 1.0
C      1  0.4271770000000  0.5257720000000  0.4960900000000 1.0
C      1  0.4520590000000  0.5337800000000  0.5512770000000 1.0
C      1  0.5945120000000  0.5155870000000  0.4659110000000 1.0
C      1  0.5091890000000  0.5713000000000  0.4949780000000 1.0
C      1  0.3769700000000  0.3988030000000  0.4888160000000 1.0
C      1  0.4234440000000  0.4263920000000  0.4947200000000 1.0
C      1  0.5997180000000  0.4773210000000  0.4959390000000 1.0
C      1  0.5271410000000  0.5210480000000  0.5066300000000 1.0
C      1  0.4970090000000  0.5984050000000  0.5346090000000 1.0
C      1  0.4997830000000  0.4190310000000  0.4956200000000 1.0
C      1  0.5802980000000  0.5622860000000  0.4654760000000 1.0
C      1  0.5539240000000  0.4655040000000  0.4821700000000 1.0
C      1  0.5525800000000  0.5559940000000  0.4661040000000 1.0
C      1  0.4232550000000  0.4536340000000  0.5010240000000 1.0
C      1  0.5216860000000  0.4344440000000  0.5036870000000 1.0
C      1  0.6115140000000  0.4972020000000  0.4796730000000 1.0
C      1  0.4106400000000  0.5450850000000  0.4903560000000 1.0
C      1  0.3996160000000  0.4122400000000  0.4916920000000 1.0
C      1  0.5768680000000  0.4632550000000  0.4984990000000 1.0
C      1  0.4311320000000  0.4785660000000  0.5052760000000 1.0
C      1  0.5349460000000  0.5725210000000  0.4820660000000 1.0
C      1  0.4952390000000  0.5487110000000  0.5361390000000 1.0
C      1  0.5179680000000  0.5374400000000  0.5489720000000 1.0
C      1  0.4941650000000  0.5506550000000  0.4819860000000 1.0
C      1  0.5591700000000  0.4815990000000  0.4593360000000 1.0
C      1  0.4712090000000  0.5536580000000  0.4680160000000 1.0
C      1  0.6386910000000  0.4985330000000  0.4768840000000 1.0
C      1  0.5059780000000  0.4770300000000  0.4835580000000 1.0
C      1  0.4424730000000  0.5041110000000  0.5049110000000 1.0
C      1  0.5208280000000  0.5173640000000  0.4600320000000 1.0
C      1  0.4883470000000  0.4888950000000  0.5030730000000 1.0
C      1  0.4315350000000  0.5375430000000  0.5675990000000 1.0
C      1  0.5357400000000  0.5223080000000  0.5332680000000 1.0
END
