TITL C-627111-6168-620 62644.1848580752 125000 -1072.52226754516 0 0 174 (C1) n - 1
REM
REM in /home/nfs/bkarasulu/CARBON/AIRSS/Generating-Clusters/LCBOP/Only-C1/SD-CG/FIRE-CG
REM
REM
REM
REM
REM
REM ./C.cell (11c1c37f851c82e70ff6c80c92926a4b)
REM AIRSS Version 0.9.1 bugfix July 2018 build 013d7b7c2542+ Fri, 06 Jul 2018 19:26:36 +0100
REM compiler GCC version 9.2.1 20190827 (Red Hat 9.2.1-1)
REM options -cpp -mtune=generic -march=x86-64 -g -O0 -fpre-include=/usr/include/finclude/math-vector-fortran.h
REM seed -808463369 945508518 -1033401171 -277498480 25646724 802260947 -1075911473 2062580459 1643348630 1003936584 823373834 -1874872918 -1353594229 1849813227 393629282 1627859328 -2103319559 340951845 1696140377 1915244988 -884005310 -667801759 -52798678 952326544 -58509468 2033059942 -644137399 172948336 -1413847550 -1200661729 -1925115695 -719110247 -907278346
REM
CELL 1.54180   50.00000   50.00000   50.00000   90.00000   90.00000   90.00000
LATT -1
SFAC C  
C      1  0.4331910000000  0.4885140000000  0.4569690000000 1.0
C      1  0.4521950000000  0.4539690000000  0.5898730000000 1.0
C      1  0.5224890000000  0.4794470000000  0.4976160000000 1.0
C      1  0.5297800000000  0.5388170000000  0.4598680000000 1.0
C      1  0.5894870000000  0.5789400000000  0.4622490000000 1.0
C      1  0.4721190000000  0.3783130000000  0.5111120000000 1.0
C      1  0.3874350000000  0.4998010000000  0.4509250000000 1.0
C      1  0.6031020000000  0.5626550000000  0.4792820000000 1.0
C      1  0.5837410000000  0.4383490000000  0.5507360000000 1.0
C      1  0.3663900000000  0.4571710000000  0.5548900000000 1.0
C      1  0.5085400000000  0.4509460000000  0.3877140000000 1.0
C      1  0.5608750000000  0.4976680000000  0.4790040000000 1.0
C      1  0.4995770000000  0.5295580000000  0.5538740000000 1.0
C      1  0.4823640000000  0.4445310000000  0.3880670000000 1.0
C      1  0.5197460000000  0.4373250000000  0.6077000000000 1.0
C      1  0.4723310000000  0.4767200000000  0.4382610000000 1.0
C      1  0.4811340000000  0.5781670000000  0.4589930000000 1.0
C      1  0.5306610000000  0.5187570000000  0.3630150000000 1.0
C      1  0.4854240000000  0.4734540000000  0.5619270000000 1.0
C      1  0.4579620000000  0.4169960000000  0.5492410000000 1.0
C      1  0.5447770000000  0.5650100000000  0.4954160000000 1.0
C      1  0.4220550000000  0.3771360000000  0.4361060000000 1.0
C      1  0.3861510000000  0.4735610000000  0.5452940000000 1.0
C      1  0.4096700000000  0.5471010000000  0.5245710000000 1.0
C      1  0.5563350000000  0.5215770000000  0.4235440000000 1.0
C      1  0.5912770000000  0.4691800000000  0.4454610000000 1.0
C      1  0.5350160000000  0.5395300000000  0.4316610000000 1.0
C      1  0.5711160000000  0.4590090000000  0.5662350000000 1.0
C      1  0.5032320000000  0.5203700000000  0.5050390000000 1.0
C      1  0.4086530000000  0.5657510000000  0.5026490000000 1.0
C      1  0.4156550000000  0.4571900000000  0.4280540000000 1.0
C      1  0.5439660000000  0.4602730000000  0.5556840000000 1.0
C      1  0.6023520000000  0.5466770000000  0.5033120000000 1.0
C      1  0.3860510000000  0.5680330000000  0.4874250000000 1.0
C      1  0.3947370000000  0.5277800000000  0.4470530000000 1.0
C      1  0.4888560000000  0.5154440000000  0.4605360000000 1.0
C      1  0.4862130000000  0.4134310000000  0.5411930000000 1.0
C      1  0.5236100000000  0.4324900000000  0.4909500000000 1.0
C      1  0.6092430000000  0.5180090000000  0.5048340000000 1.0
C      1  0.5005880000000  0.5289550000000  0.6042180000000 1.0
C      1  0.4532320000000  0.5909770000000  0.5187230000000 1.0
C      1  0.5421780000000  0.4095820000000  0.4428840000000 1.0
C      1  0.4506900000000  0.4333460000000  0.5718890000000 1.0
C      1  0.5856950000000  0.5584550000000  0.5234910000000 1.0
C      1  0.5444270000000  0.5317050000000  0.5305920000000 1.0
C      1  0.6080710000000  0.4022980000000  0.5090250000000 1.0
C      1  0.4888350000000  0.4817580000000  0.6125330000000 1.0
C      1  0.5703390000000  0.4779270000000  0.4984840000000 1.0
C      1  0.4600000000000  0.4929660000000  0.5236580000000 1.0
C      1  0.5309640000000  0.4381730000000  0.5413840000000 1.0
C      1  0.5545900000000  0.4998670000000  0.4052540000000 1.0
C      1  0.5487520000000  0.5068520000000  0.3785590000000 1.0
C      1  0.5928150000000  0.4740040000000  0.5160890000000 1.0
C      1  0.4905470000000  0.5458240000000  0.3785890000000 1.0
C      1  0.4478650000000  0.5053010000000  0.5878730000000 1.0
C      1  0.4925600000000  0.5845180000000  0.4852260000000 1.0
C      1  0.5860250000000  0.5524660000000  0.5823260000000 1.0
C      1  0.6149310000000  0.5030190000000  0.4801210000000 1.0
C      1  0.5059910000000  0.4305820000000  0.5515540000000 1.0
C      1  0.5643500000000  0.3957350000000  0.5281480000000 1.0
C      1  0.5778140000000  0.5228980000000  0.4422230000000 1.0
C      1  0.4390380000000  0.4042950000000  0.5314160000000 1.0
C      1  0.4710060000000  0.6295120000000  0.4569210000000 1.0
C      1  0.5767980000000  0.4858350000000  0.5756790000000 1.0
C      1  0.4570830000000  0.4089630000000  0.4492730000000 1.0
C      1  0.4533350000000  0.5136770000000  0.4189700000000 1.0
C      1  0.4019360000000  0.4884960000000  0.5635310000000 1.0
C      1  0.5140930000000  0.4056430000000  0.4480390000000 1.0
C      1  0.4082170000000  0.4809750000000  0.4439330000000 1.0
C      1  0.5112620000000  0.6317930000000  0.5310480000000 1.0
C      1  0.5523060000000  0.5458210000000  0.4761020000000 1.0
C      1  0.5664670000000  0.5932120000000  0.4525770000000 1.0
C      1  0.5143230000000  0.5194770000000  0.4758030000000 1.0
C      1  0.4106960000000  0.4364240000000  0.4736480000000 1.0
C      1  0.4077460000000  0.5606210000000  0.5495370000000 1.0
C      1  0.4942540000000  0.4915180000000  0.4453670000000 1.0
C      1  0.5374670000000  0.4416690000000  0.5135700000000 1.0
C      1  0.4518940000000  0.5754510000000  0.4556420000000 1.0
C      1  0.5140850000000  0.4036510000000  0.4979280000000 1.0
C      1  0.4962260000000  0.4749770000000  0.5037030000000 1.0
C      1  0.5451240000000  0.4699630000000  0.5118480000000 1.0
C      1  0.5674770000000  0.5696910000000  0.5910380000000 1.0
C      1  0.4936510000000  0.5087940000000  0.6207370000000 1.0
C      1  0.4580540000000  0.6161380000000  0.4784760000000 1.0
C      1  0.4282950000000  0.4496340000000  0.4925680000000 1.0
C      1  0.5171160000000  0.4764030000000  0.4535900000000 1.0
C      1  0.5273660000000  0.6328650000000  0.5096420000000 1.0
C      1  0.5530040000000  0.4094160000000  0.5763800000000 1.0
C      1  0.4643730000000  0.4814970000000  0.5482440000000 1.0
C      1  0.5360970000000  0.4192610000000  0.5953720000000 1.0
C      1  0.4217160000000  0.5369670000000  0.4456340000000 1.0
C      1  0.5906150000000  0.3571490000000  0.5131900000000 1.0
C      1  0.5505630000000  0.5844470000000  0.4303200000000 1.0
C      1  0.6125070000000  0.4284300000000  0.5130750000000 1.0
C      1  0.3725550000000  0.4823770000000  0.4974510000000 1.0
C      1  0.5983290000000  0.4480020000000  0.5274170000000 1.0
C      1  0.4364170000000  0.3902190000000  0.4552310000000 1.0
C      1  0.6012340000000  0.4998020000000  0.5272220000000 1.0
C      1  0.6076090000000  0.4846810000000  0.4610230000000 1.0
C      1  0.5112020000000  0.5656640000000  0.5248010000000 1.0
C      1  0.4281190000000  0.5253740000000  0.5231030000000 1.0
C      1  0.5142190000000  0.4653350000000  0.6116630000000 1.0
C      1  0.4384300000000  0.5136030000000  0.4447180000000 1.0
C      1  0.4328520000000  0.3851640000000  0.4834720000000 1.0
C      1  0.5845830000000  0.5067940000000  0.5528750000000 1.0
C      1  0.5434880000000  0.5811660000000  0.5873500000000 1.0
C      1  0.4330530000000  0.4972250000000  0.5157730000000 1.0
C      1  0.4964260000000  0.4503900000000  0.5684250000000 1.0
C      1  0.5403100000000  0.5187930000000  0.5822980000000 1.0
C      1  0.5306200000000  0.5657630000000  0.4213130000000 1.0
C      1  0.4449200000000  0.3869590000000  0.5092250000000 1.0
C      1  0.5081730000000  0.5330470000000  0.3632610000000 1.0
C      1  0.4575640000000  0.4477870000000  0.4824190000000 1.0
C      1  0.4600200000000  0.5431530000000  0.4167500000000 1.0
C      1  0.5564520000000  0.5086730000000  0.5400810000000 1.0
C      1  0.4867560000000  0.6188770000000  0.4371530000000 1.0
C      1  0.4629320000000  0.5598510000000  0.5869280000000 1.0
C      1  0.5323560000000  0.4576480000000  0.3980760000000 1.0
C      1  0.4691460000000  0.5301740000000  0.4748050000000 1.0
C      1  0.5027920000000  0.5726340000000  0.4173420000000 1.0
C      1  0.4719650000000  0.5806310000000  0.5671960000000 1.0
C      1  0.4403990000000  0.4597500000000  0.4109710000000 1.0
C      1  0.5702870000000  0.5233220000000  0.4698850000000 1.0
C      1  0.3708710000000  0.4923090000000  0.4725330000000 1.0
C      1  0.4559500000000  0.5361430000000  0.5263780000000 1.0
C      1  0.4247230000000  0.5805720000000  0.5565170000000 1.0
C      1  0.4641860000000  0.5409930000000  0.4991710000000 1.0
C      1  0.4925440000000  0.3967210000000  0.5188690000000 1.0
C      1  0.4511360000000  0.5867690000000  0.5472680000000 1.0
C      1  0.5400970000000  0.3929360000000  0.5124150000000 1.0
C      1  0.5426100000000  0.6263950000000  0.4885860000000 1.0
C      1  0.5598650000000  0.4300420000000  0.4381920000000 1.0
C      1  0.4720680000000  0.4142320000000  0.4726520000000 1.0
C      1  0.5879890000000  0.3840920000000  0.5165960000000 1.0
C      1  0.4567930000000  0.4849370000000  0.4147750000000 1.0
C      1  0.4839730000000  0.4991720000000  0.5104140000000 1.0
C      1  0.5388010000000  0.4805970000000  0.6100310000000 1.0
C      1  0.5688420000000  0.4569910000000  0.4318750000000 1.0
C      1  0.4384410000000  0.5941140000000  0.4730910000000 1.0
C      1  0.4090580000000  0.4357360000000  0.4462330000000 1.0
C      1  0.4835570000000  0.5547210000000  0.4043540000000 1.0
C      1  0.4739170000000  0.6022090000000  0.5002400000000 1.0
C      1  0.4981830000000  0.6199150000000  0.5513700000000 1.0
C      1  0.4185270000000  0.4732590000000  0.5083880000000 1.0
C      1  0.5137040000000  0.5277090000000  0.5791520000000 1.0
C      1  0.5133470000000  0.4487900000000  0.4605270000000 1.0
C      1  0.4575300000000  0.5670560000000  0.6129060000000 1.0
C      1  0.4618050000000  0.4392110000000  0.4072050000000 1.0
C      1  0.4413570000000  0.5570790000000  0.4366130000000 1.0
C      1  0.5310540000000  0.4936740000000  0.4735900000000 1.0
C      1  0.4306460000000  0.5837880000000  0.4995080000000 1.0
C      1  0.5687450000000  0.4124890000000  0.5521610000000 1.0
C      1  0.4720080000000  0.4250040000000  0.4299840000000 1.0
C      1  0.4553030000000  0.4692380000000  0.4600700000000 1.0
C      1  0.5559090000000  0.6138210000000  0.4690350000000 1.0
C      1  0.5546620000000  0.4964370000000  0.5925890000000 1.0
C      1  0.4582670000000  0.5319280000000  0.5775430000000 1.0
C      1  0.4209450000000  0.4993880000000  0.5790000000000 1.0
C      1  0.5158620000000  0.5738450000000  0.4975660000000 1.0
C      1  0.4622680000000  0.4800780000000  0.5989090000000 1.0
C      1  0.4925770000000  0.5910860000000  0.4361670000000 1.0
C      1  0.4708580000000  0.5315120000000  0.5513030000000 1.0
C      1  0.5000850000000  0.4304730000000  0.4404510000000 1.0
C      1  0.4977880000000  0.5950140000000  0.5655510000000 1.0
C      1  0.5339890000000  0.5754440000000  0.5410250000000 1.0
C      1  0.5437540000000  0.4833030000000  0.5384660000000 1.0
C      1  0.4784360000000  0.4541500000000  0.5012050000000 1.0
C      1  0.5139130000000  0.5350320000000  0.5283290000000 1.0
C      1  0.4984240000000  0.3995330000000  0.4724880000000 1.0
C      1  0.5933070000000  0.5314730000000  0.5673640000000 1.0
C      1  0.5561860000000  0.5600070000000  0.5253090000000 1.0
C      1  0.5248580000000  0.5839540000000  0.5666290000000 1.0
C      1  0.5529550000000  0.4717320000000  0.4120750000000 1.0
C      1  0.3911630000000  0.4745090000000  0.5171270000000 1.0
END
