TITL C-627106-156-959 8.87138169363171e-08 125000 -644.879434208565 0 0 105 (C1) n - 1
REM
REM in /home/nfs/bkarasulu/CARBON/AIRSS/Generating-Clusters/LCBOP/Only-C1/SD-CG/FIRE-CG
REM
REM
REM
REM
REM
REM ./C.cell (11c1c37f851c82e70ff6c80c92926a4b)
REM AIRSS Version 0.9.1 bugfix July 2018 build 013d7b7c2542+ Fri, 06 Jul 2018 19:26:36 +0100
REM compiler GCC version 9.2.1 20190827 (Red Hat 9.2.1-1)
REM options -cpp -mtune=generic -march=x86-64 -g -O0 -fpre-include=/usr/include/finclude/math-vector-fortran.h
REM seed -896296283 -568011014 -1440484584 1930443855 -179578594 1833128578 1786609831 1128548870 1424295239 1224546289 966387713 -1081867033 -1968354262 -717648615 -574121640 2117677285 -1485492827 261937701 -1602508991 1867350560 269813628 787534139 1942288315 117005320 1914412968 -1217332 -1510170140 -1472221883 -1800611117 1203475845 507962522 859182746 -499872395
REM
CELL 1.54180   50.00000   50.00000   50.00000   90.00000   90.00000   90.00000
LATT -1
SFAC C  
C      1  0.4909930000000  0.5410140000000  0.4112040000000 1.0
C      1  0.5317700000000  0.5925810000000  0.4875930000000 1.0
C      1  0.5517440000000  0.5369480000000  0.5093320000000 1.0
C      1  0.5160760000000  0.4036950000000  0.5002600000000 1.0
C      1  0.5290040000000  0.4926500000000  0.5762510000000 1.0
C      1  0.4851460000000  0.5022380000000  0.5676770000000 1.0
C      1  0.5155430000000  0.4180650000000  0.5248780000000 1.0
C      1  0.4913830000000  0.4373130000000  0.5917430000000 1.0
C      1  0.4548320000000  0.5548980000000  0.5400740000000 1.0
C      1  0.4976730000000  0.4175070000000  0.5468530000000 1.0
C      1  0.5335620000000  0.4398120000000  0.5272190000000 1.0
C      1  0.5418970000000  0.5262050000000  0.4639520000000 1.0
C      1  0.4246600000000  0.5384720000000  0.4715560000000 1.0
C      1  0.5298720000000  0.4675820000000  0.5251160000000 1.0
C      1  0.5587770000000  0.5235380000000  0.3868050000000 1.0
C      1  0.5318510000000  0.5370960000000  0.4880000000000 1.0
C      1  0.4776160000000  0.4633060000000  0.4374980000000 1.0
C      1  0.5439670000000  0.5867370000000  0.5600460000000 1.0
C      1  0.4897620000000  0.5621790000000  0.5078740000000 1.0
C      1  0.5552620000000  0.4245280000000  0.4738980000000 1.0
C      1  0.4725760000000  0.5659530000000  0.5614550000000 1.0
C      1  0.4559130000000  0.4144380000000  0.5697710000000 1.0
C      1  0.5226850000000  0.5797800000000  0.4410580000000 1.0
C      1  0.5416370000000  0.5181490000000  0.5828150000000 1.0
C      1  0.4522970000000  0.4143170000000  0.4623530000000 1.0
C      1  0.5517630000000  0.5416320000000  0.4425100000000 1.0
C      1  0.5784660000000  0.4600140000000  0.5548000000000 1.0
C      1  0.5023290000000  0.5811350000000  0.5252350000000 1.0
C      1  0.5696590000000  0.5194700000000  0.5850330000000 1.0
C      1  0.4687530000000  0.4186110000000  0.5447470000000 1.0
C      1  0.4541810000000  0.4189640000000  0.6189300000000 1.0
C      1  0.4913520000000  0.4637410000000  0.4620110000000 1.0
C      1  0.5611420000000  0.4440590000000  0.5680780000000 1.0
C      1  0.5571150000000  0.4510660000000  0.4713040000000 1.0
C      1  0.4665340000000  0.4234120000000  0.5944890000000 1.0
C      1  0.4473990000000  0.5486400000000  0.4313940000000 1.0
C      1  0.5597400000000  0.5862030000000  0.4838160000000 1.0
C      1  0.4984780000000  0.5748830000000  0.5535980000000 1.0
C      1  0.4401040000000  0.5582310000000  0.4573360000000 1.0
C      1  0.5762810000000  0.5365110000000  0.4295740000000 1.0
C      1  0.4785080000000  0.5220660000000  0.4550670000000 1.0
C      1  0.4420380000000  0.4804570000000  0.5372050000000 1.0
C      1  0.4288420000000  0.5393900000000  0.4125970000000 1.0
C      1  0.4373280000000  0.4290930000000  0.5040610000000 1.0
C      1  0.4223810000000  0.4848890000000  0.4718160000000 1.0
C      1  0.4638880000000  0.5029720000000  0.5034880000000 1.0
C      1  0.4283070000000  0.4414660000000  0.3996350000000 1.0
C      1  0.5248860000000  0.5953030000000  0.5155110000000 1.0
C      1  0.4705760000000  0.5163250000000  0.4799170000000 1.0
C      1  0.5308180000000  0.5232300000000  0.3904070000000 1.0
C      1  0.4211680000000  0.5154990000000  0.4034030000000 1.0
C      1  0.4463930000000  0.5071660000000  0.5269450000000 1.0
C      1  0.5115710000000  0.4965120000000  0.3549410000000 1.0
C      1  0.4313870000000  0.4114200000000  0.6656890000000 1.0
C      1  0.4337370000000  0.4643600000000  0.4136220000000 1.0
C      1  0.4554120000000  0.4345690000000  0.5251000000000 1.0
C      1  0.4945270000000  0.4642170000000  0.5994140000000 1.0
C      1  0.5377750000000  0.4319740000000  0.5744610000000 1.0
C      1  0.5060020000000  0.5392650000000  0.5029350000000 1.0
C      1  0.4489690000000  0.4630960000000  0.4376800000000 1.0
C      1  0.5784060000000  0.5451790000000  0.5071220000000 1.0
C      1  0.5399370000000  0.4057360000000  0.4852100000000 1.0
C      1  0.5284250000000  0.5437340000000  0.5804760000000 1.0
C      1  0.5016550000000  0.4884850000000  0.5875040000000 1.0
C      1  0.4240440000000  0.4890790000000  0.4046230000000 1.0
C      1  0.4728580000000  0.5363030000000  0.4315140000000 1.0
C      1  0.4699950000000  0.5462930000000  0.5825390000000 1.0
C      1  0.4608000000000  0.4619950000000  0.5259850000000 1.0
C      1  0.5324980000000  0.5568650000000  0.4281390000000 1.0
C      1  0.5440000000000  0.4749300000000  0.4779110000000 1.0
C      1  0.5236040000000  0.4740030000000  0.4978160000000 1.0
C      1  0.4540780000000  0.5821390000000  0.4666010000000 1.0
C      1  0.5950060000000  0.5091730000000  0.5428460000000 1.0
C      1  0.5185920000000  0.5426940000000  0.4075290000000 1.0
C      1  0.4382620000000  0.6031120000000  0.4751070000000 1.0
C      1  0.4349750000000  0.4606720000000  0.4630100000000 1.0
C      1  0.4382490000000  0.4348230000000  0.4761750000000 1.0
C      1  0.5152980000000  0.5009150000000  0.3817070000000 1.0
C      1  0.5961330000000  0.5277620000000  0.5210650000000 1.0
C      1  0.4968330000000  0.4700380000000  0.4888070000000 1.0
C      1  0.5468010000000  0.4986650000000  0.4638020000000 1.0
C      1  0.4621820000000  0.5605070000000  0.5135070000000 1.0
C      1  0.4754450000000  0.4762700000000  0.5058600000000 1.0
C      1  0.4730770000000  0.3988970000000  0.4695170000000 1.0
C      1  0.5908310000000  0.5201270000000  0.5686210000000 1.0
C      1  0.5384860000000  0.5296970000000  0.5328160000000 1.0
C      1  0.5896790000000  0.4811640000000  0.5421790000000 1.0
C      1  0.5118050000000  0.5883300000000  0.4659550000000 1.0
C      1  0.4492620000000  0.5272780000000  0.5462550000000 1.0
C      1  0.5007640000000  0.5027510000000  0.5426940000000 1.0
C      1  0.5230420000000  0.5689140000000  0.5680240000000 1.0
C      1  0.5797280000000  0.5699330000000  0.4930230000000 1.0
C      1  0.5036020000000  0.4836560000000  0.4006190000000 1.0
C      1  0.5097400000000  0.4267700000000  0.5721600000000 1.0
C      1  0.4924110000000  0.4611870000000  0.4132070000000 1.0
C      1  0.5440910000000  0.6000100000000  0.5361450000000 1.0
C      1  0.4931770000000  0.3949900000000  0.4866480000000 1.0
C      1  0.5789930000000  0.5285210000000  0.4039200000000 1.0
C      1  0.4426800000000  0.4151420000000  0.6424890000000 1.0
C      1  0.4640450000000  0.5204900000000  0.5709470000000 1.0
C      1  0.4828060000000  0.5865530000000  0.4671260000000 1.0
C      1  0.4189150000000  0.5118400000000  0.4733070000000 1.0
C      1  0.5104230000000  0.5244000000000  0.5279440000000 1.0
C      1  0.5238750000000  0.4847680000000  0.5473790000000 1.0
C      1  0.4961840000000  0.4363710000000  0.4021390000000 1.0
END
