TITL C-627111-6168-124 9470.77779660567 125000 -1207.02926137634 0 0 198 (C1) n - 1
REM
REM in /home/nfs/bkarasulu/CARBON/AIRSS/Generating-Clusters/LCBOP/Only-C1/SD-CG/FIRE-CG
REM
REM
REM
REM
REM
REM ./C.cell (11c1c37f851c82e70ff6c80c92926a4b)
REM AIRSS Version 0.9.1 bugfix July 2018 build 013d7b7c2542+ Fri, 06 Jul 2018 19:26:36 +0100
REM compiler GCC version 9.2.1 20190827 (Red Hat 9.2.1-1)
REM options -cpp -mtune=generic -march=x86-64 -g -O0 -fpre-include=/usr/include/finclude/math-vector-fortran.h
REM seed 542107045 1843001308 864290220 1215687384 -1660625929 -275863753 -600918316 411054673 -752586497 -1544141026 398293931 1825577772 1025760077 802892504 -1426406391 -706083727 22627833 1100070424 -1640877877 579997692 720398144 -321764415 818175572 131724523 -1835474686 1057131391 -1069433985 1845593515 -1772555439 1701810093 -463313895 1324894154 -543807647
REM
CELL 1.54180   50.00000   50.00000   50.00000   90.00000   90.00000   90.00000
LATT -1
SFAC C  
C      1  0.4355110000000  0.4327500000000  0.4624360000000 1.0
C      1  0.5640640000000  0.4317450000000  0.5439090000000 1.0
C      1  0.4299980000000  0.5374620000000  0.5250420000000 1.0
C      1  0.4843880000000  0.4119220000000  0.5741390000000 1.0
C      1  0.4149960000000  0.3921100000000  0.4793510000000 1.0
C      1  0.4960020000000  0.5943170000000  0.4776280000000 1.0
C      1  0.5700930000000  0.4806660000000  0.4495490000000 1.0
C      1  0.5978720000000  0.4712520000000  0.4437150000000 1.0
C      1  0.5625740000000  0.6028260000000  0.4848750000000 1.0
C      1  0.3695020000000  0.4789240000000  0.4295460000000 1.0
C      1  0.3971070000000  0.5804810000000  0.5840820000000 1.0
C      1  0.3991660000000  0.5164250000000  0.4432860000000 1.0
C      1  0.4755830000000  0.3887100000000  0.4408000000000 1.0
C      1  0.5508210000000  0.4571130000000  0.5502900000000 1.0
C      1  0.4860260000000  0.5913550000000  0.6013550000000 1.0
C      1  0.5624380000000  0.4591740000000  0.5969220000000 1.0
C      1  0.4960230000000  0.4657320000000  0.5143990000000 1.0
C      1  0.3838490000000  0.4082110000000  0.5175620000000 1.0
C      1  0.5261410000000  0.4594460000000  0.4463670000000 1.0
C      1  0.5565040000000  0.5092230000000  0.3742650000000 1.0
C      1  0.6382920000000  0.4644610000000  0.5402360000000 1.0
C      1  0.4719550000000  0.4087870000000  0.5473710000000 1.0
C      1  0.4581020000000  0.5311780000000  0.3904520000000 1.0
C      1  0.3997090000000  0.5256650000000  0.4711250000000 1.0
C      1  0.3265440000000  0.4584500000000  0.4072250000000 1.0
C      1  0.5265350000000  0.4586730000000  0.3898780000000 1.0
C      1  0.4016310000000  0.5874880000000  0.5565540000000 1.0
C      1  0.4533130000000  0.5733570000000  0.4970780000000 1.0
C      1  0.5230510000000  0.4574330000000  0.5534190000000 1.0
C      1  0.5277900000000  0.5618210000000  0.5980980000000 1.0
C      1  0.4931920000000  0.4934730000000  0.5663690000000 1.0
C      1  0.4814830000000  0.5323130000000  0.4337200000000 1.0
C      1  0.4848060000000  0.5966660000000  0.4283570000000 1.0
C      1  0.4410820000000  0.5759080000000  0.4344670000000 1.0
C      1  0.4280440000000  0.6200580000000  0.5331760000000 1.0
C      1  0.5250740000000  0.5200540000000  0.4411190000000 1.0
C      1  0.5545400000000  0.6679570000000  0.5314860000000 1.0
C      1  0.5301010000000  0.4838930000000  0.6189720000000 1.0
C      1  0.5762430000000  0.5356160000000  0.5621520000000 1.0
C      1  0.4310920000000  0.4606200000000  0.4138670000000 1.0
C      1  0.6652580000000  0.4803750000000  0.5791130000000 1.0
C      1  0.4974330000000  0.5557290000000  0.5391380000000 1.0
C      1  0.4803470000000  0.4325950000000  0.5939200000000 1.0
C      1  0.5646230000000  0.4343170000000  0.4655640000000 1.0
C      1  0.4783750000000  0.4589640000000  0.4438700000000 1.0
C      1  0.4232490000000  0.6076090000000  0.5080860000000 1.0
C      1  0.5926350000000  0.4303790000000  0.4721320000000 1.0
C      1  0.5285890000000  0.5071180000000  0.3758470000000 1.0
C      1  0.6239560000000  0.4968050000000  0.5963270000000 1.0
C      1  0.4360660000000  0.5158640000000  0.4052000000000 1.0
C      1  0.5357640000000  0.6057860000000  0.4362170000000 1.0
C      1  0.4379440000000  0.5105610000000  0.5227770000000 1.0
C      1  0.5478910000000  0.4709700000000  0.4334190000000 1.0
C      1  0.4127740000000  0.5519490000000  0.4705320000000 1.0
C      1  0.5829660000000  0.5628350000000  0.5538970000000 1.0
C      1  0.6083520000000  0.4490810000000  0.4579090000000 1.0
C      1  0.5297880000000  0.5626650000000  0.5691200000000 1.0
C      1  0.5775160000000  0.4557060000000  0.4009400000000 1.0
C      1  0.5097420000000  0.5431900000000  0.4303830000000 1.0
C      1  0.5897780000000  0.4155390000000  0.4980440000000 1.0
C      1  0.5817740000000  0.4817670000000  0.5027630000000 1.0
C      1  0.5076120000000  0.4015530000000  0.4776080000000 1.0
C      1  0.5494050000000  0.3949190000000  0.4469070000000 1.0
C      1  0.5092060000000  0.5282680000000  0.3813540000000 1.0
C      1  0.5206500000000  0.3969330000000  0.4518160000000 1.0
C      1  0.5947400000000  0.5207220000000  0.4458640000000 1.0
C      1  0.3804360000000  0.4768340000000  0.5532990000000 1.0
C      1  0.3782140000000  0.5852620000000  0.4655670000000 1.0
C      1  0.5712710000000  0.5231300000000  0.5370020000000 1.0
C      1  0.3985570000000  0.5735080000000  0.5321080000000 1.0
C      1  0.4827680000000  0.5440820000000  0.6115880000000 1.0
C      1  0.5468790000000  0.5413270000000  0.6061950000000 1.0
C      1  0.6646820000000  0.5032800000000  0.6219010000000 1.0
C      1  0.3322200000000  0.5468590000000  0.5281550000000 1.0
C      1  0.5326770000000  0.4924170000000  0.4788250000000 1.0
C      1  0.5027380000000  0.4749400000000  0.6167220000000 1.0
C      1  0.4643850000000  0.6037220000000  0.5914000000000 1.0
C      1  0.5001570000000  0.4552330000000  0.4865600000000 1.0
C      1  0.5809490000000  0.5008250000000  0.3817040000000 1.0
C      1  0.5498940000000  0.4639060000000  0.4060190000000 1.0
C      1  0.4035870000000  0.5453650000000  0.5327570000000 1.0
C      1  0.4632230000000  0.3908240000000  0.4671810000000 1.0
C      1  0.4624730000000  0.5597590000000  0.3959300000000 1.0
C      1  0.4634250000000  0.5798980000000  0.4167450000000 1.0
C      1  0.4812130000000  0.5175370000000  0.3785330000000 1.0
C      1  0.5929460000000  0.4820610000000  0.3995530000000 1.0
C      1  0.4706280000000  0.5179480000000  0.4749680000000 1.0
C      1  0.4501810000000  0.5564830000000  0.5192700000000 1.0
C      1  0.4977190000000  0.4553710000000  0.5958900000000 1.0
C      1  0.4326940000000  0.4864090000000  0.4030330000000 1.0
C      1  0.5093740000000  0.5421310000000  0.5611880000000 1.0
C      1  0.5395000000000  0.5763260000000  0.5439000000000 1.0
C      1  0.4812720000000  0.6029600000000  0.4563950000000 1.0
C      1  0.5087610000000  0.3973610000000  0.5779430000000 1.0
C      1  0.5522030000000  0.6036270000000  0.4579000000000 1.0
C      1  0.5507180000000  0.4502700000000  0.4840490000000 1.0
C      1  0.5886360000000  0.5614070000000  0.4793250000000 1.0
C      1  0.3478530000000  0.4686250000000  0.4182730000000 1.0
C      1  0.5164540000000  0.3999120000000  0.5321280000000 1.0
C      1  0.4626370000000  0.5000350000000  0.5310690000000 1.0
C      1  0.4598420000000  0.4915540000000  0.4736200000000 1.0
C      1  0.4297040000000  0.4660190000000  0.5115120000000 1.0
C      1  0.5188790000000  0.5130670000000  0.4673590000000 1.0
C      1  0.3982200000000  0.5745820000000  0.4812180000000 1.0
C      1  0.5124310000000  0.6026550000000  0.4220060000000 1.0
C      1  0.4410600000000  0.4255170000000  0.6303170000000 1.0
C      1  0.4546120000000  0.4288670000000  0.5356510000000 1.0
C      1  0.5143170000000  0.5725730000000  0.4770050000000 1.0
C      1  0.5263110000000  0.5606500000000  0.4999600000000 1.0
C      1  0.5640040000000  0.4085940000000  0.4250900000000 1.0
C      1  0.5744260000000  0.5795910000000  0.4982590000000 1.0
C      1  0.4553550000000  0.5322410000000  0.6140710000000 1.0
C      1  0.4330900000000  0.4893210000000  0.4655420000000 1.0
C      1  0.5181830000000  0.4247040000000  0.5182630000000 1.0
C      1  0.3844120000000  0.5030330000000  0.5511170000000 1.0
C      1  0.4204800000000  0.4925220000000  0.5092360000000 1.0
C      1  0.5611170000000  0.6266090000000  0.4997190000000 1.0
C      1  0.4373160000000  0.4038500000000  0.4670050000000 1.0
C      1  0.5144240000000  0.4811520000000  0.3769770000000 1.0
C      1  0.4028100000000  0.5869270000000  0.5070010000000 1.0
C      1  0.3557610000000  0.5376840000000  0.5345370000000 1.0
C      1  0.3770640000000  0.4512280000000  0.5470100000000 1.0
C      1  0.5263910000000  0.4648230000000  0.4752370000000 1.0
C      1  0.4832590000000  0.3893670000000  0.4902660000000 1.0
C      1  0.5775210000000  0.4327140000000  0.5187720000000 1.0
C      1  0.5921850000000  0.4815300000000  0.5570100000000 1.0
C      1  0.6426840000000  0.5958400000000  0.4062940000000 1.0
C      1  0.6120130000000  0.4694640000000  0.5408690000000 1.0
C      1  0.5778410000000  0.4277280000000  0.4104630000000 1.0
C      1  0.5177450000000  0.5706280000000  0.5251930000000 1.0
C      1  0.5062470000000  0.4110000000000  0.4063530000000 1.0
C      1  0.5647310000000  0.3836230000000  0.4685040000000 1.0
C      1  0.5092620000000  0.4261590000000  0.4912650000000 1.0
C      1  0.5028670000000  0.4470350000000  0.4379570000000 1.0
C      1  0.4730450000000  0.4804740000000  0.4270930000000 1.0
C      1  0.4350210000000  0.5498850000000  0.4480610000000 1.0
C      1  0.4972810000000  0.5203950000000  0.4840330000000 1.0
C      1  0.4598200000000  0.4291900000000  0.6126070000000 1.0
C      1  0.4664370000000  0.4915460000000  0.5572760000000 1.0
C      1  0.4860920000000  0.4915640000000  0.5181220000000 1.0
C      1  0.6050150000000  0.4923400000000  0.4249010000000 1.0
C      1  0.5641190000000  0.4812090000000  0.5499040000000 1.0
C      1  0.5101430000000  0.4482930000000  0.5312130000000 1.0
C      1  0.4845090000000  0.4965100000000  0.6155430000000 1.0
C      1  0.5062480000000  0.4688470000000  0.5720650000000 1.0
C      1  0.6026540000000  0.4923610000000  0.5808750000000 1.0
C      1  0.4554300000000  0.5018130000000  0.6110570000000 1.0
C      1  0.5029350000000  0.5119590000000  0.5106060000000 1.0
C      1  0.4623180000000  0.5369490000000  0.4550350000000 1.0
C      1  0.4969610000000  0.5204430000000  0.6037650000000 1.0
C      1  0.4462860000000  0.4729660000000  0.5661380000000 1.0
C      1  0.4478720000000  0.4469830000000  0.4875570000000 1.0
C      1  0.4217120000000  0.5285250000000  0.4280110000000 1.0
C      1  0.4015970000000  0.5063960000000  0.4923410000000 1.0
C      1  0.5706910000000  0.5287530000000  0.5078590000000 1.0
C      1  0.4458010000000  0.5990800000000  0.4936060000000 1.0
C      1  0.5763410000000  0.5064080000000  0.4624000000000 1.0
C      1  0.3817570000000  0.5285170000000  0.5398680000000 1.0
C      1  0.5791430000000  0.3898080000000  0.4908230000000 1.0
C      1  0.5790300000000  0.5072690000000  0.4907890000000 1.0
C      1  0.5579560000000  0.6476640000000  0.5154820000000 1.0
C      1  0.4250500000000  0.4503590000000  0.4410480000000 1.0
C      1  0.4404260000000  0.4538750000000  0.5431260000000 1.0
C      1  0.3777690000000  0.4278100000000  0.5344600000000 1.0
C      1  0.4374190000000  0.6044470000000  0.5840180000000 1.0
C      1  0.3926190000000  0.4889740000000  0.4409060000000 1.0
C      1  0.5146600000000  0.4326880000000  0.3923540000000 1.0
C      1  0.4996830000000  0.5673220000000  0.6075430000000 1.0
C      1  0.5497600000000  0.5033970000000  0.5387130000000 1.0
C      1  0.4877270000000  0.3923990000000  0.5256130000000 1.0
C      1  0.5535360000000  0.4151230000000  0.5654400000000 1.0
C      1  0.5608640000000  0.5209680000000  0.5911220000000 1.0
C      1  0.6598110000000  0.4688120000000  0.5555760000000 1.0
C      1  0.5150240000000  0.5471370000000  0.4016170000000 1.0
C      1  0.5686710000000  0.4570880000000  0.5048860000000 1.0
C      1  0.5291800000000  0.5155520000000  0.5204960000000 1.0
C      1  0.6158570000000  0.5641780000000  0.4385470000000 1.0
C      1  0.4561740000000  0.4266180000000  0.5071270000000 1.0
C      1  0.4704010000000  0.5587630000000  0.5378690000000 1.0
C      1  0.3962980000000  0.3950100000000  0.4981120000000 1.0
C      1  0.4174120000000  0.5904250000000  0.6000220000000 1.0
C      1  0.5535300000000  0.4872700000000  0.6022550000000 1.0
C      1  0.5671320000000  0.5761160000000  0.5330250000000 1.0
C      1  0.5172400000000  0.5629140000000  0.4508270000000 1.0
C      1  0.5994960000000  0.5482050000000  0.4549250000000 1.0
C      1  0.5427360000000  0.5371140000000  0.5042440000000 1.0
C      1  0.4792800000000  0.5058950000000  0.4238230000000 1.0
C      1  0.5294060000000  0.3996190000000  0.5585480000000 1.0
C      1  0.6295890000000  0.5800470000000  0.4223780000000 1.0
C      1  0.4725560000000  0.4629240000000  0.4737030000000 1.0
C      1  0.5583720000000  0.4324910000000  0.5896070000000 1.0
C      1  0.6517310000000  0.4938080000000  0.5998660000000 1.0
C      1  0.4241820000000  0.6070210000000  0.5578040000000 1.0
C      1  0.5011240000000  0.3966560000000  0.4304680000000 1.0
C      1  0.4864060000000  0.4890040000000  0.3736620000000 1.0
C      1  0.5026560000000  0.5185560000000  0.5758020000000 1.0
C      1  0.4410750000000  0.4830380000000  0.5935770000000 1.0
C      1  0.4133740000000  0.4738300000000  0.4527440000000 1.0
END
