TITL C-627113-6568-1328 105.39791523722 125000 -994.117958107249 0 0 160 (C1) n - 1
REM
REM in /home/nfs/bkarasulu/CARBON/AIRSS/Generating-Clusters/LCBOP/Only-C1/SD-CG/FIRE-CG
REM
REM
REM
REM
REM
REM ./C.cell (11c1c37f851c82e70ff6c80c92926a4b)
REM AIRSS Version 0.9.1 bugfix July 2018 build 013d7b7c2542+ Fri, 06 Jul 2018 19:26:36 +0100
REM compiler GCC version 9.2.1 20190827 (Red Hat 9.2.1-1)
REM options -cpp -mtune=generic -march=x86-64 -g -O0 -fpre-include=/usr/include/finclude/math-vector-fortran.h
REM seed 985653193 -1848325152 1129605236 -355077059 -251676887 -286396810 -1439317571 267250506 -667569118 283937078 -1296118128 -1280675675 -2046167239 1217719566 860556340 613037715 1669279766 1883643540 -2139197106 -652077218 922503177 -177392495 -2010394797 1542170740 -1682471193 981785548 -1476031129 1115664264 1811270364 1817891726 1335922289 1872421793 1452439528
REM
CELL 1.54180   50.00000   50.00000   50.00000   90.00000   90.00000   90.00000
LATT -1
SFAC C  
C      1  0.5519210000000  0.5980370000000  0.5328910000000 1.0
C      1  0.5277020000000  0.5865660000000  0.4263560000000 1.0
C      1  0.4317210000000  0.5681260000000  0.4705020000000 1.0
C      1  0.4775240000000  0.5771240000000  0.5845800000000 1.0
C      1  0.4671250000000  0.4434450000000  0.5054540000000 1.0
C      1  0.5367520000000  0.5049820000000  0.3785090000000 1.0
C      1  0.4969680000000  0.5727570000000  0.5613150000000 1.0
C      1  0.5171960000000  0.6149320000000  0.3813630000000 1.0
C      1  0.5392620000000  0.3801430000000  0.3966840000000 1.0
C      1  0.5115410000000  0.4618710000000  0.5659710000000 1.0
C      1  0.4561410000000  0.5844190000000  0.4658970000000 1.0
C      1  0.5520890000000  0.5341460000000  0.5019200000000 1.0
C      1  0.5201360000000  0.3964290000000  0.5147170000000 1.0
C      1  0.4473450000000  0.6013250000000  0.5171380000000 1.0
C      1  0.4982210000000  0.4374710000000  0.5730880000000 1.0
C      1  0.4850940000000  0.4897840000000  0.5372980000000 1.0
C      1  0.4912510000000  0.4862270000000  0.5104290000000 1.0
C      1  0.5462360000000  0.4921940000000  0.5208800000000 1.0
C      1  0.5100790000000  0.4660690000000  0.5029770000000 1.0
C      1  0.4920590000000  0.4549440000000  0.6308010000000 1.0
C      1  0.5025250000000  0.3552390000000  0.4890440000000 1.0
C      1  0.4692480000000  0.5338950000000  0.6453630000000 1.0
C      1  0.4695830000000  0.4523660000000  0.3948210000000 1.0
C      1  0.4651520000000  0.5007100000000  0.3938990000000 1.0
C      1  0.5074920000000  0.5778450000000  0.4437850000000 1.0
C      1  0.5473500000000  0.3549880000000  0.3947640000000 1.0
C      1  0.5468060000000  0.5068940000000  0.4561780000000 1.0
C      1  0.3983750000000  0.4510870000000  0.4648730000000 1.0
C      1  0.4252290000000  0.4760370000000  0.5104460000000 1.0
C      1  0.5377250000000  0.4739040000000  0.5008200000000 1.0
C      1  0.4507070000000  0.5679670000000  0.5784270000000 1.0
C      1  0.4389110000000  0.5660500000000  0.4233120000000 1.0
C      1  0.5709920000000  0.4229860000000  0.4282770000000 1.0
C      1  0.4735250000000  0.6046980000000  0.5068030000000 1.0
C      1  0.5423960000000  0.4251210000000  0.4813010000000 1.0
C      1  0.4224590000000  0.5498680000000  0.4910540000000 1.0
C      1  0.5552690000000  0.5231970000000  0.3844900000000 1.0
C      1  0.4705860000000  0.4398490000000  0.5778760000000 1.0
C      1  0.4948150000000  0.4998790000000  0.4018440000000 1.0
C      1  0.3846260000000  0.4903610000000  0.4952340000000 1.0
C      1  0.4442880000000  0.3951900000000  0.5297600000000 1.0
C      1  0.4729500000000  0.4933420000000  0.4901510000000 1.0
C      1  0.4485880000000  0.4363600000000  0.4530790000000 1.0
C      1  0.5195150000000  0.5112660000000  0.4484940000000 1.0
C      1  0.5154370000000  0.4889570000000  0.3868670000000 1.0
C      1  0.4762400000000  0.4438880000000  0.4527550000000 1.0
C      1  0.4849440000000  0.5639890000000  0.4343890000000 1.0
C      1  0.4492890000000  0.5209370000000  0.5375960000000 1.0
C      1  0.5054390000000  0.4157440000000  0.3910560000000 1.0
C      1  0.5387610000000  0.5194610000000  0.5225960000000 1.0
C      1  0.5007570000000  0.5989820000000  0.5479000000000 1.0
C      1  0.4609280000000  0.5801760000000  0.4374850000000 1.0
C      1  0.5510120000000  0.4329110000000  0.5305900000000 1.0
C      1  0.5619930000000  0.5875240000000  0.5578820000000 1.0
C      1  0.5312810000000  0.4065990000000  0.3997130000000 1.0
C      1  0.5482500000000  0.4265420000000  0.4117660000000 1.0
C      1  0.5961610000000  0.4543560000000  0.6083310000000 1.0
C      1  0.5499370000000  0.5816700000000  0.5095690000000 1.0
C      1  0.4713850000000  0.3993760000000  0.5365900000000 1.0
C      1  0.5083760000000  0.5329190000000  0.4626710000000 1.0
C      1  0.5231170000000  0.4349510000000  0.4614290000000 1.0
C      1  0.4800740000000  0.5928860000000  0.4816320000000 1.0
C      1  0.4182050000000  0.4813200000000  0.5592660000000 1.0
C      1  0.4996600000000  0.4916540000000  0.6053500000000 1.0
C      1  0.4119890000000  0.4374520000000  0.5378290000000 1.0
C      1  0.4736580000000  0.5371350000000  0.4277780000000 1.0
C      1  0.5863590000000  0.5805200000000  0.4697650000000 1.0
C      1  0.6082500000000  0.5668170000000  0.4764990000000 1.0
C      1  0.5732420000000  0.4922540000000  0.5852490000000 1.0
C      1  0.4523910000000  0.3558120000000  0.4971830000000 1.0
C      1  0.5942060000000  0.4798430000000  0.5997630000000 1.0
C      1  0.3813280000000  0.4676390000000  0.4782530000000 1.0
C      1  0.5668010000000  0.5421490000000  0.3992350000000 1.0
C      1  0.4916960000000  0.5066420000000  0.5823890000000 1.0
C      1  0.5143220000000  0.4167650000000  0.5833850000000 1.0
C      1  0.3840080000000  0.5109160000000  0.5421230000000 1.0
C      1  0.4221510000000  0.5567850000000  0.4449450000000 1.0
C      1  0.5815780000000  0.5495060000000  0.5366300000000 1.0
C      1  0.4420950000000  0.5189440000000  0.4009630000000 1.0
C      1  0.5363920000000  0.4525400000000  0.4125970000000 1.0
C      1  0.5303810000000  0.4636450000000  0.4396110000000 1.0
C      1  0.5085260000000  0.5866270000000  0.4719990000000 1.0
C      1  0.5534200000000  0.5786480000000  0.4346210000000 1.0
C      1  0.5777550000000  0.5002740000000  0.5571130000000 1.0
C      1  0.5646430000000  0.5564320000000  0.5133630000000 1.0
C      1  0.4077860000000  0.5086590000000  0.5579230000000 1.0
C      1  0.5198770000000  0.3728660000000  0.4992450000000 1.0
C      1  0.4310450000000  0.5830890000000  0.5314080000000 1.0
C      1  0.5849680000000  0.5712580000000  0.5544150000000 1.0
C      1  0.5620740000000  0.4153950000000  0.6039870000000 1.0
C      1  0.5666500000000  0.4396650000000  0.4759120000000 1.0
C      1  0.5149020000000  0.5897340000000  0.6153050000000 1.0
C      1  0.4975960000000  0.4000520000000  0.5313190000000 1.0
C      1  0.5574120000000  0.4667710000000  0.4800200000000 1.0
C      1  0.5240230000000  0.5585160000000  0.5631540000000 1.0
C      1  0.5377140000000  0.5850340000000  0.6018140000000 1.0
C      1  0.3730850000000  0.5011430000000  0.5189950000000 1.0
C      1  0.5268150000000  0.4816210000000  0.6122070000000 1.0
C      1  0.6255710000000  0.5281590000000  0.5064770000000 1.0
C      1  0.5070010000000  0.4856760000000  0.4361860000000 1.0
C      1  0.4604290000000  0.4647110000000  0.5881740000000 1.0
C      1  0.5182020000000  0.4610370000000  0.3919370000000 1.0
C      1  0.4568990000000  0.4755230000000  0.4059610000000 1.0
C      1  0.4241670000000  0.4136610000000  0.5363680000000 1.0
C      1  0.4138090000000  0.4655940000000  0.5355780000000 1.0
C      1  0.5378050000000  0.5858920000000  0.4828560000000 1.0
C      1  0.6223760000000  0.5474240000000  0.4882050000000 1.0
C      1  0.5471620000000  0.4800260000000  0.5914040000000 1.0
C      1  0.5113180000000  0.6278470000000  0.3589760000000 1.0
C      1  0.5375800000000  0.4099770000000  0.5947580000000 1.0
C      1  0.5832110000000  0.4309220000000  0.6091560000000 1.0
C      1  0.4345830000000  0.5815900000000  0.5594780000000 1.0
C      1  0.4589750000000  0.4950050000000  0.5449810000000 1.0
C      1  0.4850780000000  0.5351610000000  0.4777940000000 1.0
C      1  0.4165120000000  0.5275380000000  0.4477570000000 1.0
C      1  0.4190540000000  0.5621490000000  0.5162330000000 1.0
C      1  0.4757480000000  0.5460990000000  0.5009640000000 1.0
C      1  0.5592730000000  0.5833610000000  0.4621150000000 1.0
C      1  0.5800660000000  0.4305130000000  0.4527220000000 1.0
C      1  0.5295000000000  0.5354430000000  0.5456350000000 1.0
C      1  0.4454680000000  0.4586340000000  0.5016790000000 1.0
C      1  0.4890440000000  0.5867940000000  0.6083430000000 1.0
C      1  0.6148010000000  0.5167550000000  0.5283160000000 1.0
C      1  0.5568590000000  0.5238540000000  0.4762380000000 1.0
C      1  0.4175450000000  0.5226540000000  0.4786820000000 1.0
C      1  0.4931900000000  0.6113860000000  0.5254970000000 1.0
C      1  0.4671330000000  0.5400930000000  0.5265580000000 1.0
C      1  0.4959330000000  0.4425330000000  0.3892930000000 1.0
C      1  0.4209590000000  0.5134330000000  0.4220800000000 1.0
C      1  0.4394630000000  0.3731670000000  0.5129020000000 1.0
C      1  0.5553540000000  0.3302400000000  0.3930030000000 1.0
C      1  0.4461090000000  0.4802580000000  0.5675560000000 1.0
C      1  0.5228720000000  0.6017540000000  0.4036240000000 1.0
C      1  0.5432270000000  0.5760330000000  0.5758000000000 1.0
C      1  0.5055350000000  0.6405190000000  0.3369390000000 1.0
C      1  0.4697040000000  0.5248820000000  0.5915120000000 1.0
C      1  0.4129580000000  0.4980580000000  0.4940830000000 1.0
C      1  0.4517270000000  0.5447980000000  0.4085480000000 1.0
C      1  0.5392560000000  0.4617000000000  0.5704840000000 1.0
C      1  0.5675270000000  0.5613670000000  0.4176950000000 1.0
C      1  0.5913040000000  0.5226390000000  0.5432650000000 1.0
C      1  0.5387370000000  0.4174280000000  0.5092250000000 1.0
C      1  0.5515240000000  0.4791340000000  0.4552010000000 1.0
C      1  0.4597950000000  0.4839800000000  0.4337190000000 1.0
C      1  0.4819530000000  0.5538250000000  0.5449760000000 1.0
C      1  0.4649400000000  0.5117750000000  0.4428360000000 1.0
C      1  0.4823890000000  0.4697940000000  0.4432190000000 1.0
C      1  0.5559490000000  0.4552260000000  0.5480650000000 1.0
C      1  0.4936670000000  0.4431470000000  0.4961650000000 1.0
C      1  0.4694790000000  0.5127710000000  0.4707610000000 1.0
C      1  0.5646860000000  0.4814510000000  0.5391850000000 1.0
C      1  0.5002010000000  0.4880770000000  0.5605810000000 1.0
C      1  0.4221000000000  0.4408210000000  0.4567770000000 1.0
C      1  0.5195660000000  0.4604700000000  0.6312290000000 1.0
C      1  0.4765760000000  0.3488840000000  0.4881530000000 1.0
C      1  0.4705030000000  0.5295390000000  0.6196950000000 1.0
C      1  0.4778730000000  0.4718490000000  0.6116230000000 1.0
C      1  0.4300010000000  0.5274270000000  0.5587840000000 1.0
C      1  0.4472510000000  0.5392290000000  0.5792120000000 1.0
C      1  0.4966640000000  0.4342320000000  0.4694800000000 1.0
END
