TITL C-627110-360-1484 88.6884841009631 125000 -897.280797925097 0 0 146 (C1) n - 1
REM
REM in /home/nfs/bkarasulu/CARBON/AIRSS/Generating-Clusters/LCBOP/Only-C1/SD-CG/FIRE-CG
REM
REM
REM
REM
REM
REM ./C.cell (11c1c37f851c82e70ff6c80c92926a4b)
REM AIRSS Version 0.9.1 bugfix July 2018 build 013d7b7c2542+ Fri, 06 Jul 2018 19:26:36 +0100
REM compiler GCC version 9.2.1 20190827 (Red Hat 9.2.1-1)
REM options -cpp -mtune=generic -march=x86-64 -g -O0 -fpre-include=/usr/include/finclude/math-vector-fortran.h
REM seed 2028588695 -60233128 81376455 -1715843928 -888923498 -406417149 1813934429 -1460733571 1893277464 -1249805653 505086660 -1982288624 -592083452 -1611204100 649637622 2113080450 -141045559 -1366822705 -570544856 901608535 399798910 1401917054 -1287929929 1308683602 -1707684189 -1156962916 -92447447 1934383033 -79277967 -531603496 1521206452 996816607 -297291148
REM
CELL 1.54180   50.00000   50.00000   50.00000   90.00000   90.00000   90.00000
LATT -1
SFAC C  
C      1  0.4018470000000  0.4960670000000  0.4560790000000 1.0
C      1  0.5659110000000  0.4600730000000  0.5654510000000 1.0
C      1  0.5666930000000  0.3772510000000  0.5688700000000 1.0
C      1  0.4104370000000  0.4585460000000  0.4987820000000 1.0
C      1  0.5059520000000  0.5299070000000  0.5428210000000 1.0
C      1  0.4273120000000  0.5715950000000  0.4976100000000 1.0
C      1  0.5123240000000  0.4792010000000  0.5665690000000 1.0
C      1  0.5037690000000  0.6050870000000  0.4951960000000 1.0
C      1  0.4251950000000  0.4064130000000  0.5469230000000 1.0
C      1  0.4961230000000  0.6060130000000  0.5491270000000 1.0
C      1  0.5269140000000  0.5430690000000  0.4467080000000 1.0
C      1  0.5609010000000  0.4708880000000  0.4284300000000 1.0
C      1  0.4503130000000  0.4373200000000  0.5245950000000 1.0
C      1  0.6090790000000  0.4767590000000  0.5150110000000 1.0
C      1  0.4975000000000  0.5442510000000  0.4472250000000 1.0
C      1  0.4423820000000  0.4834270000000  0.5434330000000 1.0
C      1  0.4357750000000  0.4448760000000  0.5006870000000 1.0
C      1  0.4460880000000  0.4488110000000  0.3894330000000 1.0
C      1  0.4414770000000  0.3887080000000  0.5333140000000 1.0
C      1  0.5637140000000  0.5692960000000  0.4247380000000 1.0
C      1  0.5534920000000  0.5500870000000  0.5149800000000 1.0
C      1  0.6029900000000  0.5642150000000  0.5922240000000 1.0
C      1  0.5027380000000  0.5447450000000  0.5171360000000 1.0
C      1  0.4427830000000  0.5301440000000  0.4862380000000 1.0
C      1  0.5748870000000  0.5301850000000  0.5205470000000 1.0
C      1  0.5700060000000  0.4509760000000  0.4491410000000 1.0
C      1  0.5578310000000  0.4312380000000  0.6297400000000 1.0
C      1  0.4860410000000  0.3891630000000  0.5497920000000 1.0
C      1  0.4743680000000  0.5419560000000  0.3803490000000 1.0
C      1  0.5135450000000  0.6063030000000  0.5235630000000 1.0
C      1  0.4919720000000  0.4491320000000  0.4569850000000 1.0
C      1  0.5520100000000  0.4599160000000  0.5905100000000 1.0
C      1  0.4840260000000  0.3705170000000  0.4413220000000 1.0
C      1  0.4397110000000  0.5331390000000  0.5474570000000 1.0
C      1  0.4522220000000  0.5383790000000  0.4260120000000 1.0
C      1  0.5541880000000  0.5791850000000  0.5131040000000 1.0
C      1  0.5852030000000  0.5825050000000  0.4771250000000 1.0
C      1  0.4976530000000  0.5688540000000  0.5762160000000 1.0
C      1  0.5055220000000  0.4942810000000  0.4493680000000 1.0
C      1  0.5826510000000  0.5118640000000  0.4754280000000 1.0
C      1  0.4447140000000  0.4241360000000  0.4001440000000 1.0
C      1  0.6014950000000  0.4631840000000  0.4923060000000 1.0
C      1  0.5302480000000  0.4684710000000  0.4782550000000 1.0
C      1  0.5327480000000  0.5426540000000  0.5837950000000 1.0
C      1  0.5317280000000  0.5006730000000  0.6086370000000 1.0
C      1  0.4111910000000  0.5679450000000  0.5206600000000 1.0
C      1  0.5394000000000  0.5935760000000  0.5323640000000 1.0
C      1  0.3740770000000  0.4773980000000  0.5195900000000 1.0
C      1  0.4692280000000  0.5943290000000  0.5547000000000 1.0
C      1  0.4954170000000  0.4048380000000  0.6082160000000 1.0
C      1  0.3986580000000  0.5227100000000  0.4663800000000 1.0
C      1  0.5543210000000  0.4666010000000  0.4918660000000 1.0
C      1  0.4993200000000  0.4355610000000  0.5437720000000 1.0
C      1  0.4983590000000  0.5971010000000  0.4363250000000 1.0
C      1  0.5343260000000  0.5289380000000  0.4208910000000 1.0
C      1  0.4663740000000  0.4388910000000  0.4617770000000 1.0
C      1  0.5400050000000  0.5897960000000  0.4656860000000 1.0
C      1  0.4808410000000  0.3935430000000  0.4556550000000 1.0
C      1  0.4688450000000  0.4728580000000  0.5464870000000 1.0
C      1  0.4914960000000  0.5263180000000  0.6055430000000 1.0
C      1  0.5742080000000  0.5077410000000  0.5020260000000 1.0
C      1  0.5498340000000  0.4346840000000  0.6038700000000 1.0
C      1  0.4579250000000  0.5832840000000  0.5322620000000 1.0
C      1  0.4682000000000  0.5274860000000  0.5912650000000 1.0
C      1  0.4740390000000  0.5679430000000  0.5123920000000 1.0
C      1  0.4784000000000  0.5920190000000  0.4940660000000 1.0
C      1  0.4447730000000  0.5794250000000  0.4528230000000 1.0
C      1  0.4473320000000  0.4398920000000  0.5771710000000 1.0
C      1  0.5251870000000  0.4950410000000  0.4683170000000 1.0
C      1  0.5597430000000  0.5898200000000  0.4868410000000 1.0
C      1  0.4757420000000  0.4479950000000  0.5326370000000 1.0
C      1  0.4696910000000  0.5708750000000  0.5722690000000 1.0
C      1  0.5139860000000  0.5320590000000  0.4012640000000 1.0
C      1  0.4525270000000  0.4541820000000  0.4809750000000 1.0
C      1  0.5389240000000  0.4131070000000  0.5883040000000 1.0
C      1  0.4798030000000  0.5019360000000  0.4446180000000 1.0
C      1  0.5912990000000  0.4996560000000  0.4518090000000 1.0
C      1  0.5567630000000  0.4874880000000  0.5101450000000 1.0
C      1  0.5688110000000  0.5356580000000  0.4691570000000 1.0
C      1  0.5148780000000  0.6027770000000  0.4670280000000 1.0
C      1  0.4516800000000  0.5535410000000  0.5000950000000 1.0
C      1  0.5885270000000  0.4748010000000  0.5587240000000 1.0
C      1  0.5198320000000  0.4166080000000  0.4754950000000 1.0
C      1  0.4485700000000  0.4731800000000  0.4028870000000 1.0
C      1  0.4694160000000  0.3863920000000  0.5272800000000 1.0
C      1  0.4578240000000  0.4872550000000  0.4519570000000 1.0
C      1  0.5780820000000  0.5641530000000  0.5845630000000 1.0
C      1  0.4529130000000  0.4831220000000  0.4799130000000 1.0
C      1  0.5622750000000  0.5212350000000  0.4180620000000 1.0
C      1  0.4144540000000  0.5022280000000  0.4298410000000 1.0
C      1  0.4567200000000  0.5439310000000  0.5703140000000 1.0
C      1  0.5774920000000  0.4586480000000  0.4769240000000 1.0
C      1  0.5395020000000  0.5862100000000  0.5610430000000 1.0
C      1  0.5426040000000  0.5701170000000  0.4444530000000 1.0
C      1  0.4173950000000  0.5501960000000  0.5403740000000 1.0
C      1  0.5613700000000  0.4237600000000  0.4478070000000 1.0
C      1  0.5377150000000  0.4701720000000  0.4112530000000 1.0
C      1  0.4988760000000  0.4117330000000  0.5600810000000 1.0
C      1  0.4475820000000  0.4709910000000  0.4313130000000 1.0
C      1  0.4827230000000  0.4739930000000  0.5717820000000 1.0
C      1  0.5358160000000  0.4948870000000  0.5268000000000 1.0
C      1  0.5176220000000  0.4829120000000  0.3978080000000 1.0
C      1  0.5021920000000  0.5063120000000  0.3918640000000 1.0
C      1  0.5368800000000  0.5291440000000  0.4723490000000 1.0
C      1  0.4686380000000  0.5838710000000  0.4685530000000 1.0
C      1  0.4620290000000  0.4139180000000  0.4485510000000 1.0
C      1  0.4834700000000  0.3901800000000  0.5029160000000 1.0
C      1  0.5436910000000  0.4089520000000  0.4621210000000 1.0
C      1  0.5755560000000  0.5466300000000  0.4145520000000 1.0
C      1  0.4769260000000  0.5280410000000  0.4371670000000 1.0
C      1  0.4209070000000  0.5391500000000  0.4685340000000 1.0
C      1  0.3993530000000  0.4653380000000  0.5257450000000 1.0
C      1  0.5162610000000  0.5024200000000  0.5455440000000 1.0
C      1  0.5736770000000  0.4969520000000  0.4294970000000 1.0
C      1  0.5940190000000  0.5196230000000  0.5396380000000 1.0
C      1  0.5126870000000  0.5926150000000  0.5699000000000 1.0
C      1  0.5557810000000  0.4184180000000  0.5443510000000 1.0
C      1  0.4325520000000  0.4354190000000  0.5499970000000 1.0
C      1  0.4353760000000  0.5172680000000  0.4147940000000 1.0
C      1  0.3710730000000  0.4819710000000  0.4923670000000 1.0
C      1  0.4670530000000  0.4558940000000  0.5879330000000 1.0
C      1  0.4965360000000  0.3989240000000  0.4792730000000 1.0
C      1  0.5489770000000  0.4458040000000  0.5469070000000 1.0
C      1  0.4877020000000  0.5640180000000  0.4624040000000 1.0
C      1  0.5147750000000  0.4451190000000  0.4724640000000 1.0
C      1  0.5101980000000  0.5457630000000  0.5657770000000 1.0
C      1  0.6010410000000  0.4909860000000  0.5391460000000 1.0
C      1  0.5278980000000  0.5410210000000  0.5007580000000 1.0
C      1  0.5308850000000  0.4790920000000  0.5909380000000 1.0
C      1  0.5545470000000  0.4015270000000  0.5671490000000 1.0
C      1  0.4505560000000  0.5006180000000  0.3952930000000 1.0
C      1  0.5211250000000  0.4533350000000  0.5489310000000 1.0
C      1  0.4483800000000  0.4126160000000  0.4240600000000 1.0
C      1  0.4827220000000  0.5767430000000  0.4173080000000 1.0
C      1  0.4543800000000  0.5678340000000  0.4272000000000 1.0
C      1  0.4741330000000  0.5125930000000  0.3838590000000 1.0
C      1  0.5205780000000  0.5259260000000  0.6044740000000 1.0
C      1  0.4424840000000  0.5083930000000  0.5295060000000 1.0
C      1  0.4229760000000  0.5683690000000  0.4687340000000 1.0
C      1  0.5864180000000  0.5576000000000  0.4670510000000 1.0
C      1  0.5106570000000  0.4100620000000  0.5861080000000 1.0
C      1  0.4195110000000  0.4641330000000  0.5459160000000 1.0
C      1  0.4466200000000  0.5052010000000  0.4993730000000 1.0
C      1  0.4942100000000  0.5553660000000  0.3979320000000 1.0
C      1  0.5514050000000  0.5641590000000  0.5766960000000 1.0
C      1  0.3957740000000  0.4756820000000  0.4770730000000 1.0
END
