TITL C-627108-131-1322 -8.63446677830033e-07 125000 -409.979118774581 0 0 68 (C1) n - 1
REM
REM in /home/nfs/bkarasulu/CARBON/AIRSS/Generating-Clusters/LCBOP/Only-C1/SD-CG/FIRE-CG
REM
REM
REM
REM
REM
REM ./C.cell (11c1c37f851c82e70ff6c80c92926a4b)
REM AIRSS Version 0.9.1 bugfix July 2018 build 013d7b7c2542+ Fri, 06 Jul 2018 19:26:36 +0100
REM compiler GCC version 9.2.1 20190827 (Red Hat 9.2.1-1)
REM options -cpp -mtune=generic -march=x86-64 -g -O0 -fpre-include=/usr/include/finclude/math-vector-fortran.h
REM seed -2013531252 632561626 521833547 80834839 -259408236 -1567485993 230583555 1379178869 -1871225947 1936026889 -1009120209 -1624872449 145467824 -1634487114 -2140110636 114032387 2088329744 -82441137 1907570929 -1952757190 -474386929 1288698699 40484181 -1155376148 -1836765465 1780654002 1762120100 2039876875 1503361685 -1613762873 -2084573270 714427398 -1420030775
REM
CELL 1.54180   50.00000   50.00000   50.00000   90.00000   90.00000   90.00000
LATT -1
SFAC C  
C      1  0.4935580000000  0.4305220000000  0.5375570000000 1.0
C      1  0.5771870000000  0.5427250000000  0.4726470000000 1.0
C      1  0.4441760000000  0.5212030000000  0.5627120000000 1.0
C      1  0.5035740000000  0.5644860000000  0.4159540000000 1.0
C      1  0.4495090000000  0.4248270000000  0.4858790000000 1.0
C      1  0.4919400000000  0.5181650000000  0.3934350000000 1.0
C      1  0.5370140000000  0.5417800000000  0.5377190000000 1.0
C      1  0.4839750000000  0.4902620000000  0.4618770000000 1.0
C      1  0.5622180000000  0.4618330000000  0.5326860000000 1.0
C      1  0.4695270000000  0.4827560000000  0.5189120000000 1.0
C      1  0.4722910000000  0.5572100000000  0.5430340000000 1.0
C      1  0.4170530000000  0.4829290000000  0.5526630000000 1.0
C      1  0.4893540000000  0.4490620000000  0.5584550000000 1.0
C      1  0.4777460000000  0.4234280000000  0.4895020000000 1.0
C      1  0.4386890000000  0.4939210000000  0.5668610000000 1.0
C      1  0.5112010000000  0.5816690000000  0.4347770000000 1.0
C      1  0.5862590000000  0.4594180000000  0.5216420000000 1.0
C      1  0.5189270000000  0.5917440000000  0.4581730000000 1.0
C      1  0.4575250000000  0.4781740000000  0.5815730000000 1.0
C      1  0.4980330000000  0.4791290000000  0.4821820000000 1.0
C      1  0.4887680000000  0.4391680000000  0.5108740000000 1.0
C      1  0.4492810000000  0.4983950000000  0.5067510000000 1.0
C      1  0.5187350000000  0.5583100000000  0.5241850000000 1.0
C      1  0.4968870000000  0.5428680000000  0.4019770000000 1.0
C      1  0.5023030000000  0.4051800000000  0.5428400000000 1.0
C      1  0.6195450000000  0.4893250000000  0.4964890000000 1.0
C      1  0.4911990000000  0.5502930000000  0.5226410000000 1.0
C      1  0.5297290000000  0.5305140000000  0.5843990000000 1.0
C      1  0.5000130000000  0.4516040000000  0.4249630000000 1.0
C      1  0.5388320000000  0.5226960000000  0.5580500000000 1.0
C      1  0.5044210000000  0.4932810000000  0.5733570000000 1.0
C      1  0.5279540000000  0.4954370000000  0.5558080000000 1.0
C      1  0.4393500000000  0.6305000000000  0.5376790000000 1.0
C      1  0.6076410000000  0.4692690000000  0.5092880000000 1.0
C      1  0.5416130000000  0.4748460000000  0.5431890000000 1.0
C      1  0.4624970000000  0.4817160000000  0.4478910000000 1.0
C      1  0.4819880000000  0.5355970000000  0.5865450000000 1.0
C      1  0.4389000000000  0.4457800000000  0.4697640000000 1.0
C      1  0.5300570000000  0.5029790000000  0.4481730000000 1.0
C      1  0.5039210000000  0.5184250000000  0.5891680000000 1.0
C      1  0.4840850000000  0.4735130000000  0.5715780000000 1.0
C      1  0.5264650000000  0.5799020000000  0.5080170000000 1.0
C      1  0.5250490000000  0.5916230000000  0.4841000000000 1.0
C      1  0.4920190000000  0.4670640000000  0.4029430000000 1.0
C      1  0.5269610000000  0.4554120000000  0.4347730000000 1.0
C      1  0.4890650000000  0.4672820000000  0.5060280000000 1.0
C      1  0.6173830000000  0.5133390000000  0.4852310000000 1.0
C      1  0.5366610000000  0.4336700000000  0.4500830000000 1.0
C      1  0.4245930000000  0.4842720000000  0.5031810000000 1.0
C      1  0.4919970000000  0.4221750000000  0.4646590000000 1.0
C      1  0.4835570000000  0.5366440000000  0.4985370000000 1.0
C      1  0.5398360000000  0.4808140000000  0.4336310000000 1.0
C      1  0.4810110000000  0.4385560000000  0.4429230000000 1.0
C      1  0.4584340000000  0.5234720000000  0.4978590000000 1.0
C      1  0.4496930000000  0.6066690000000  0.5398470000000 1.0
C      1  0.5033370000000  0.5327670000000  0.4784130000000 1.0
C      1  0.4898580000000  0.4916340000000  0.3927890000000 1.0
C      1  0.5509320000000  0.5399690000000  0.4697330000000 1.0
C      1  0.6015690000000  0.5331810000000  0.4772380000000 1.0
C      1  0.4603020000000  0.5824840000000  0.5419180000000 1.0
C      1  0.4502680000000  0.4676050000000  0.6058210000000 1.0
C      1  0.5197420000000  0.4170190000000  0.4631790000000 1.0
C      1  0.4651020000000  0.5396860000000  0.5643690000000 1.0
C      1  0.4227810000000  0.4653780000000  0.4822530000000 1.0
C      1  0.5621200000000  0.4838410000000  0.4179600000000 1.0
C      1  0.5273510000000  0.5254680000000  0.4651320000000 1.0
C      1  0.4568230000000  0.4538850000000  0.4486520000000 1.0
C      1  0.4096200000000  0.4812500000000  0.5268830000000 1.0
END
