TITL C-627113-6568-1263 0.000176864700293148 125000 -456.99254553262 0 0 75 (C1) n - 1
REM
REM in /home/nfs/bkarasulu/CARBON/AIRSS/Generating-Clusters/LCBOP/Only-C1/SD-CG/FIRE-CG
REM
REM
REM
REM
REM
REM ./C.cell (11c1c37f851c82e70ff6c80c92926a4b)
REM AIRSS Version 0.9.1 bugfix July 2018 build 013d7b7c2542+ Fri, 06 Jul 2018 19:26:36 +0100
REM compiler GCC version 9.2.1 20190827 (Red Hat 9.2.1-1)
REM options -cpp -mtune=generic -march=x86-64 -g -O0 -fpre-include=/usr/include/finclude/math-vector-fortran.h
REM seed 39120299 1244203013 -548053596 963428003 1241925085 2035309719 1104943728 -1983666303 -157288723 1811043471 -2297419 323099118 -1689633102 -518245034 788165006 1786056424 1836901943 1857303748 1268676025 -1823634206 737598957 -808998702 1666844051 -1386645371 2121788564 2081617028 -1100422086 1446167967 1898871009 -157193512 -1732484266 -551056595 -510040622
REM
CELL 1.54180   50.00000   50.00000   50.00000   90.00000   90.00000   90.00000
LATT -1
SFAC C  
C      1  0.5490880000000  0.4757950000000  0.4492920000000 1.0
C      1  0.3971190000000  0.3722970000000  0.4443720000000 1.0
C      1  0.4398390000000  0.3996310000000  0.4582240000000 1.0
C      1  0.4711270000000  0.5001440000000  0.5563660000000 1.0
C      1  0.4665380000000  0.4695260000000  0.5015890000000 1.0
C      1  0.5422440000000  0.5169130000000  0.5560920000000 1.0
C      1  0.4619930000000  0.4323150000000  0.5365130000000 1.0
C      1  0.4423400000000  0.5179620000000  0.4977650000000 1.0
C      1  0.5688600000000  0.4903080000000  0.4389780000000 1.0
C      1  0.5267770000000  0.5514110000000  0.4676390000000 1.0
C      1  0.5726020000000  0.5274380000000  0.4090430000000 1.0
C      1  0.4775540000000  0.4169660000000  0.5548000000000 1.0
C      1  0.5007730000000  0.4607690000000  0.5375610000000 1.0
C      1  0.5798230000000  0.5155900000000  0.4334490000000 1.0
C      1  0.5107940000000  0.4984130000000  0.5872590000000 1.0
C      1  0.4120940000000  0.4184500000000  0.5217850000000 1.0
C      1  0.5154800000000  0.5707950000000  0.5203650000000 1.0
C      1  0.5335460000000  0.4984060000000  0.5093680000000 1.0
C      1  0.4595120000000  0.5539470000000  0.4723340000000 1.0
C      1  0.4605960000000  0.4137450000000  0.4666750000000 1.0
C      1  0.4770550000000  0.5747710000000  0.4171080000000 1.0
C      1  0.4865360000000  0.5193540000000  0.5397580000000 1.0
C      1  0.5427210000000  0.5622360000000  0.5173340000000 1.0
C      1  0.5016840000000  0.4700460000000  0.4654930000000 1.0
C      1  0.4426820000000  0.4994000000000  0.5547110000000 1.0
C      1  0.5040340000000  0.4179210000000  0.4896980000000 1.0
C      1  0.4304820000000  0.5229730000000  0.4491470000000 1.0
C      1  0.5996110000000  0.5137420000000  0.5219030000000 1.0
C      1  0.4393600000000  0.5460750000000  0.5455450000000 1.0
C      1  0.5635380000000  0.4601870000000  0.5615280000000 1.0
C      1  0.4528670000000  0.5700970000000  0.4067030000000 1.0
C      1  0.5843830000000  0.4725280000000  0.5501760000000 1.0
C      1  0.5384310000000  0.4731870000000  0.4967850000000 1.0
C      1  0.4753690000000  0.4555780000000  0.5257750000000 1.0
C      1  0.5200830000000  0.5216220000000  0.5729230000000 1.0
C      1  0.4943450000000  0.5275410000000  0.5126730000000 1.0
C      1  0.5297080000000  0.4724910000000  0.4690720000000 1.0
C      1  0.4183710000000  0.3858150000000  0.4510990000000 1.0
C      1  0.5909520000000  0.5303470000000  0.4545220000000 1.0
C      1  0.4378420000000  0.5382150000000  0.5181670000000 1.0
C      1  0.5128840000000  0.5132760000000  0.4958260000000 1.0
C      1  0.5158290000000  0.4463500000000  0.5571360000000 1.0
C      1  0.4881100000000  0.5629190000000  0.5594580000000 1.0
C      1  0.5069770000000  0.5363940000000  0.4228500000000 1.0
C      1  0.4327310000000  0.5525860000000  0.4087010000000 1.0
C      1  0.5592490000000  0.5389470000000  0.5171560000000 1.0
C      1  0.5288700000000  0.4771640000000  0.5911110000000 1.0
C      1  0.5852950000000  0.5332210000000  0.5069840000000 1.0
C      1  0.4951490000000  0.5561710000000  0.5056170000000 1.0
C      1  0.5271040000000  0.4248380000000  0.5017030000000 1.0
C      1  0.5041830000000  0.5673500000000  0.4593570000000 1.0
C      1  0.4247510000000  0.5328880000000  0.4249690000000 1.0
C      1  0.5193190000000  0.5234730000000  0.4696530000000 1.0
C      1  0.4596210000000  0.5635010000000  0.5557040000000 1.0
C      1  0.5918220000000  0.5376770000000  0.4801380000000 1.0
C      1  0.5976550000000  0.4915250000000  0.5367920000000 1.0
C      1  0.4361180000000  0.4250090000000  0.5294620000000 1.0
C      1  0.4843060000000  0.5645310000000  0.4801970000000 1.0
C      1  0.5371770000000  0.4587280000000  0.5712000000000 1.0
C      1  0.4446730000000  0.5297840000000  0.4721960000000 1.0
C      1  0.4795840000000  0.4580920000000  0.4784690000000 1.0
C      1  0.5501350000000  0.5333920000000  0.3957820000000 1.0
C      1  0.4840390000000  0.4918740000000  0.5803410000000 1.0
C      1  0.5238580000000  0.5350940000000  0.4005420000000 1.0
C      1  0.5050970000000  0.5806600000000  0.5450020000000 1.0
C      1  0.4309710000000  0.5242930000000  0.5620400000000 1.0
C      1  0.5024300000000  0.4224260000000  0.5643490000000 1.0
C      1  0.5092850000000  0.5166310000000  0.4435980000000 1.0
C      1  0.5413740000000  0.4471420000000  0.5071910000000 1.0
C      1  0.4329010000000  0.4860360000000  0.5317610000000 1.0
C      1  0.4969120000000  0.5620050000000  0.4320130000000 1.0
C      1  0.5469040000000  0.5152560000000  0.5284320000000 1.0
C      1  0.4460760000000  0.4901670000000  0.5063450000000 1.0
C      1  0.4807970000000  0.4291380000000  0.4779430000000 1.0
C      1  0.4990620000000  0.5365180000000  0.5603910000000 1.0
END
