TITL C-627113-6568-989 0.00925255299648836 125000 -904.31407009355 0 0 148 (C1) n - 1
REM
REM in /home/nfs/bkarasulu/CARBON/AIRSS/Generating-Clusters/LCBOP/Only-C1/SD-CG/FIRE-CG
REM
REM
REM
REM
REM
REM ./C.cell (11c1c37f851c82e70ff6c80c92926a4b)
REM AIRSS Version 0.9.1 bugfix July 2018 build 013d7b7c2542+ Fri, 06 Jul 2018 19:26:36 +0100
REM compiler GCC version 9.2.1 20190827 (Red Hat 9.2.1-1)
REM options -cpp -mtune=generic -march=x86-64 -g -O0 -fpre-include=/usr/include/finclude/math-vector-fortran.h
REM seed -1290434591 -1922174710 -185595924 -687720644 1858425060 -849670020 976476186 1152730859 132224594 2027882813 -786619888 1111177707 -807192811 -1666537307 1521264560 -942679551 -1024158749 148047805 -1506724306 324723319 -2027941780 -1841189085 1160024242 1607451662 -1502759750 634174688 1088844953 1238281593 1302682414 -131122250 -1139880834 -286369925 2133805367
REM
CELL 1.54180   50.00000   50.00000   50.00000   90.00000   90.00000   90.00000
LATT -1
SFAC C  
C      1  0.5589470000000  0.5564000000000  0.4382960000000 1.0
C      1  0.5814420000000  0.5105490000000  0.4236040000000 1.0
C      1  0.5593070000000  0.4402230000000  0.6293410000000 1.0
C      1  0.5573140000000  0.5124940000000  0.5496670000000 1.0
C      1  0.5578730000000  0.4327170000000  0.6547210000000 1.0
C      1  0.3518320000000  0.4682970000000  0.4882590000000 1.0
C      1  0.6016820000000  0.5118880000000  0.4853740000000 1.0
C      1  0.4739620000000  0.5275680000000  0.6039350000000 1.0
C      1  0.3243770000000  0.4702040000000  0.4870190000000 1.0
C      1  0.5098580000000  0.5875350000000  0.4618780000000 1.0
C      1  0.5222230000000  0.6581930000000  0.3547420000000 1.0
C      1  0.4857840000000  0.4374760000000  0.4674100000000 1.0
C      1  0.5367650000000  0.5703520000000  0.5698040000000 1.0
C      1  0.4662270000000  0.5297750000000  0.5764810000000 1.0
C      1  0.4930320000000  0.4677850000000  0.5366260000000 1.0
C      1  0.4166620000000  0.4602630000000  0.5259020000000 1.0
C      1  0.5373830000000  0.5027810000000  0.5668690000000 1.0
C      1  0.4482600000000  0.4462110000000  0.4951580000000 1.0
C      1  0.4712750000000  0.5988410000000  0.4977180000000 1.0
C      1  0.5253740000000  0.6340780000000  0.3641310000000 1.0
C      1  0.5202020000000  0.5815910000000  0.5872750000000 1.0
C      1  0.4650060000000  0.4708340000000  0.5430670000000 1.0
C      1  0.5303600000000  0.5753070000000  0.4779300000000 1.0
C      1  0.4199020000000  0.4346000000000  0.5416420000000 1.0
C      1  0.4298520000000  0.4249650000000  0.4993320000000 1.0
C      1  0.5212840000000  0.4663660000000  0.5468800000000 1.0
C      1  0.3968940000000  0.4645220000000  0.5053120000000 1.0
C      1  0.4314740000000  0.4892360000000  0.4432320000000 1.0
C      1  0.5396880000000  0.6577110000000  0.5724390000000 1.0
C      1  0.5315870000000  0.5851240000000  0.3834440000000 1.0
C      1  0.5091270000000  0.5085210000000  0.5713160000000 1.0
C      1  0.4382440000000  0.4446460000000  0.4486800000000 1.0
C      1  0.5362970000000  0.5101500000000  0.3855200000000 1.0
C      1  0.4388660000000  0.4383470000000  0.5630490000000 1.0
C      1  0.5601260000000  0.4478710000000  0.6039980000000 1.0
C      1  0.5657880000000  0.6242480000000  0.5441020000000 1.0
C      1  0.5616000000000  0.4536450000000  0.4629990000000 1.0
C      1  0.4898370000000  0.4773560000000  0.4859110000000 1.0
C      1  0.5717750000000  0.4265590000000  0.5402490000000 1.0
C      1  0.4534800000000  0.3755220000000  0.4735410000000 1.0
C      1  0.4447200000000  0.4692600000000  0.5677610000000 1.0
C      1  0.6033610000000  0.5132910000000  0.5348310000000 1.0
C      1  0.5218650000000  0.4745520000000  0.4192810000000 1.0
C      1  0.5492000000000  0.4283290000000  0.4706580000000 1.0
C      1  0.5619220000000  0.4595100000000  0.4339360000000 1.0
C      1  0.3707400000000  0.4680480000000  0.4665030000000 1.0
C      1  0.5235400000000  0.4475100000000  0.5063120000000 1.0
C      1  0.4082050000000  0.5365100000000  0.5162950000000 1.0
C      1  0.4861970000000  0.4105000000000  0.5136050000000 1.0
C      1  0.4921450000000  0.4176840000000  0.4878550000000 1.0
C      1  0.4650950000000  0.4947910000000  0.4063520000000 1.0
C      1  0.6095080000000  0.4847350000000  0.5346410000000 1.0
C      1  0.4667590000000  0.3842600000000  0.4516700000000 1.0
C      1  0.4712700000000  0.5483490000000  0.4152510000000 1.0
C      1  0.5585780000000  0.4563990000000  0.5775560000000 1.0
C      1  0.5413250000000  0.4266830000000  0.4978280000000 1.0
C      1  0.5348070000000  0.5564180000000  0.4231590000000 1.0
C      1  0.4983860000000  0.4893330000000  0.5920840000000 1.0
C      1  0.4281690000000  0.3843820000000  0.5190800000000 1.0
C      1  0.5556660000000  0.5361060000000  0.5095410000000 1.0
C      1  0.5339890000000  0.5362170000000  0.3802370000000 1.0
C      1  0.5589800000000  0.4762510000000  0.4812820000000 1.0
C      1  0.4344130000000  0.5405480000000  0.5070270000000 1.0
C      1  0.5211500000000  0.6512090000000  0.5905510000000 1.0
C      1  0.4406780000000  0.3735510000000  0.4973130000000 1.0
C      1  0.6222720000000  0.5507990000000  0.5083100000000 1.0
C      1  0.4813970000000  0.5321120000000  0.5293410000000 1.0
C      1  0.5565450000000  0.6467810000000  0.5548790000000 1.0
C      1  0.5266520000000  0.5040150000000  0.4589810000000 1.0
C      1  0.4936050000000  0.4222710000000  0.4225930000000 1.0
C      1  0.4316810000000  0.4604720000000  0.4020470000000 1.0
C      1  0.3685710000000  0.4661040000000  0.5115850000000 1.0
C      1  0.5142000000000  0.5438070000000  0.4374050000000 1.0
C      1  0.5095570000000  0.6029040000000  0.5991780000000 1.0
C      1  0.4985530000000  0.4637300000000  0.4622770000000 1.0
C      1  0.5094440000000  0.6295330000000  0.6009030000000 1.0
C      1  0.4453730000000  0.4691970000000  0.5176770000000 1.0
C      1  0.4620160000000  0.5941070000000  0.4712520000000 1.0
C      1  0.5546790000000  0.5006000000000  0.4670980000000 1.0
C      1  0.5765460000000  0.5187280000000  0.4729870000000 1.0
C      1  0.4389990000000  0.5230490000000  0.5721710000000 1.0
C      1  0.4827060000000  0.5871610000000  0.4519010000000 1.0
C      1  0.5233900000000  0.5665950000000  0.5054760000000 1.0
C      1  0.4371320000000  0.4872820000000  0.4152190000000 1.0
C      1  0.5777930000000  0.4478940000000  0.5580020000000 1.0
C      1  0.5363260000000  0.4492990000000  0.4208240000000 1.0
C      1  0.4418380000000  0.5517580000000  0.4818580000000 1.0
C      1  0.5537310000000  0.5099400000000  0.5208600000000 1.0
C      1  0.6192430000000  0.4748590000000  0.5095790000000 1.0
C      1  0.5351910000000  0.4136730000000  0.4505760000000 1.0
C      1  0.5829670000000  0.5252460000000  0.5520260000000 1.0
C      1  0.5987850000000  0.4658050000000  0.5522990000000 1.0
C      1  0.4223330000000  0.4118530000000  0.5234560000000 1.0
C      1  0.4979540000000  0.4620460000000  0.5082670000000 1.0
C      1  0.4661760000000  0.4257230000000  0.5626080000000 1.0
C      1  0.4807240000000  0.3988800000000  0.4336800000000 1.0
C      1  0.4577340000000  0.4421630000000  0.4687450000000 1.0
C      1  0.5570960000000  0.5697170000000  0.5477240000000 1.0
C      1  0.6139320000000  0.4863360000000  0.4854680000000 1.0
C      1  0.5444040000000  0.5582510000000  0.5228490000000 1.0
C      1  0.4753470000000  0.5713980000000  0.4290190000000 1.0
C      1  0.4548170000000  0.5225770000000  0.5180030000000 1.0
C      1  0.5221240000000  0.4258820000000  0.4282830000000 1.0
C      1  0.6011400000000  0.5656830000000  0.5723400000000 1.0
C      1  0.4851610000000  0.4377070000000  0.5807570000000 1.0
C      1  0.4524390000000  0.4990740000000  0.4591910000000 1.0
C      1  0.5661000000000  0.5977740000000  0.5417970000000 1.0
C      1  0.4522250000000  0.4963650000000  0.5064220000000 1.0
C      1  0.4460860000000  0.4420340000000  0.4213280000000 1.0
C      1  0.5589000000000  0.4175430000000  0.5182950000000 1.0
C      1  0.4466440000000  0.4696960000000  0.5983480000000 1.0
C      1  0.5387890000000  0.4644140000000  0.5236200000000 1.0
C      1  0.4764560000000  0.4130310000000  0.5388590000000 1.0
C      1  0.5782450000000  0.5370840000000  0.4291370000000 1.0
C      1  0.5542490000000  0.5619040000000  0.4666720000000 1.0
C      1  0.4667580000000  0.4931560000000  0.4825190000000 1.0
C      1  0.4382800000000  0.5779970000000  0.4717610000000 1.0
C      1  0.5664260000000  0.4866410000000  0.4198000000000 1.0
C      1  0.5285750000000  0.6095600000000  0.3736800000000 1.0
C      1  0.3960950000000  0.5182520000000  0.5318970000000 1.0
C      1  0.4879380000000  0.5248490000000  0.5574660000000 1.0
C      1  0.4757230000000  0.4435230000000  0.4133170000000 1.0
C      1  0.4966660000000  0.4606490000000  0.5896390000000 1.0
C      1  0.4925450000000  0.5382530000000  0.4806860000000 1.0
C      1  0.4657610000000  0.5402390000000  0.4718320000000 1.0
C      1  0.4805510000000  0.5011030000000  0.6114290000000 1.0
C      1  0.5406970000000  0.4916160000000  0.4056300000000 1.0
C      1  0.5115210000000  0.5283090000000  0.4609880000000 1.0
C      1  0.3986950000000  0.4658820000000  0.4749260000000 1.0
C      1  0.5564090000000  0.4253420000000  0.6796830000000 1.0
C      1  0.5131120000000  0.4815680000000  0.4454740000000 1.0
C      1  0.4959370000000  0.5530720000000  0.5093920000000 1.0
C      1  0.4204770000000  0.5424200000000  0.5788000000000 1.0
C      1  0.5816520000000  0.5533110000000  0.5576480000000 1.0
C      1  0.4189260000000  0.4657670000000  0.4550270000000 1.0
C      1  0.4289290000000  0.4971180000000  0.5635530000000 1.0
C      1  0.4719450000000  0.5222610000000  0.4079540000000 1.0
C      1  0.6092230000000  0.5267860000000  0.5095380000000 1.0
C      1  0.4043250000000  0.4997810000000  0.5497660000000 1.0
C      1  0.5381690000000  0.4736880000000  0.5686220000000 1.0
C      1  0.4750220000000  0.4680700000000  0.3942810000000 1.0
C      1  0.2984050000000  0.4720250000000  0.4858580000000 1.0
C      1  0.5654250000000  0.5420800000000  0.4838260000000 1.0
C      1  0.4792380000000  0.5787360000000  0.5139540000000 1.0
C      1  0.4501300000000  0.4608890000000  0.3789760000000 1.0
C      1  0.5335230000000  0.5600130000000  0.3951620000000 1.0
C      1  0.5538990000000  0.4832560000000  0.5095480000000 1.0
C      1  0.4591220000000  0.4837580000000  0.6177310000000 1.0
END
