TITL C-627110-360-1015 -5.08584232879102e-07 125000 -578.187251212627 0 0 95 (C1) n - 1
REM
REM in /home/nfs/bkarasulu/CARBON/AIRSS/Generating-Clusters/LCBOP/Only-C1/SD-CG/FIRE-CG
REM
REM
REM
REM
REM
REM ./C.cell (11c1c37f851c82e70ff6c80c92926a4b)
REM AIRSS Version 0.9.1 bugfix July 2018 build 013d7b7c2542+ Fri, 06 Jul 2018 19:26:36 +0100
REM compiler GCC version 9.2.1 20190827 (Red Hat 9.2.1-1)
REM options -cpp -mtune=generic -march=x86-64 -g -O0 -fpre-include=/usr/include/finclude/math-vector-fortran.h
REM seed -647794099 -851060901 1894229202 1380937897 -693555130 1890167187 -974914379 -2032001966 -65511845 606102231 -1457236261 -233705049 2087548729 -922166434 -927933359 1507958287 -24717520 1897377130 1066237008 1856177782 -2029904538 106173583 -662608261 1000603294 167337086 -1649048429 -1687866463 192545172 -1134957805 -720798651 1074757757 -1151513477 2094022672
REM
CELL 1.54180   50.00000   50.00000   50.00000   90.00000   90.00000   90.00000
LATT -1
SFAC C  
C      1  0.5105380000000  0.4287790000000  0.5234290000000 1.0
C      1  0.5948730000000  0.4823730000000  0.4471240000000 1.0
C      1  0.5264890000000  0.4839630000000  0.4214930000000 1.0
C      1  0.4997720000000  0.4448800000000  0.4258230000000 1.0
C      1  0.5276370000000  0.5122130000000  0.4316390000000 1.0
C      1  0.5425830000000  0.4753390000000  0.4954000000000 1.0
C      1  0.4146880000000  0.4942260000000  0.4770530000000 1.0
C      1  0.6447750000000  0.4730410000000  0.5022440000000 1.0
C      1  0.4821480000000  0.4905950000000  0.4197350000000 1.0
C      1  0.4322300000000  0.4918420000000  0.5207450000000 1.0
C      1  0.5032820000000  0.5159030000000  0.5266590000000 1.0
C      1  0.5117610000000  0.4159060000000  0.4973670000000 1.0
C      1  0.5365340000000  0.4288250000000  0.5987830000000 1.0
C      1  0.5004770000000  0.5109050000000  0.5551270000000 1.0
C      1  0.4836620000000  0.5903840000000  0.4580760000000 1.0
C      1  0.4491250000000  0.4650050000000  0.4630760000000 1.0
C      1  0.5160770000000  0.4842420000000  0.4888820000000 1.0
C      1  0.6211950000000  0.4823650000000  0.4922620000000 1.0
C      1  0.4117000000000  0.4068810000000  0.5206860000000 1.0
C      1  0.5379260000000  0.5318010000000  0.5973390000000 1.0
C      1  0.4758580000000  0.4696550000000  0.5173170000000 1.0
C      1  0.5757860000000  0.5360740000000  0.4991430000000 1.0
C      1  0.4960130000000  0.4238500000000  0.4740960000000 1.0
C      1  0.5530630000000  0.4962100000000  0.5122290000000 1.0
C      1  0.5478400000000  0.5457640000000  0.5767850000000 1.0
C      1  0.4319300000000  0.4869790000000  0.4543240000000 1.0
C      1  0.4992410000000  0.5901340000000  0.5097040000000 1.0
C      1  0.5355450000000  0.5697240000000  0.5314530000000 1.0
C      1  0.4570460000000  0.5266700000000  0.4615250000000 1.0
C      1  0.4589290000000  0.5390380000000  0.5083650000000 1.0
C      1  0.5562100000000  0.5141360000000  0.4376950000000 1.0
C      1  0.4746020000000  0.4560820000000  0.5424450000000 1.0
C      1  0.5175020000000  0.5110050000000  0.4796270000000 1.0
C      1  0.4429210000000  0.5084420000000  0.5840120000000 1.0
C      1  0.5175980000000  0.5750100000000  0.4322970000000 1.0
C      1  0.4187810000000  0.4771670000000  0.5002420000000 1.0
C      1  0.6023910000000  0.4957660000000  0.5082110000000 1.0
C      1  0.4833590000000  0.4663360000000  0.5677450000000 1.0
C      1  0.5205700000000  0.5876950000000  0.4881180000000 1.0
C      1  0.5573670000000  0.4368090000000  0.5259210000000 1.0
C      1  0.4437530000000  0.4415710000000  0.4786980000000 1.0
C      1  0.5274430000000  0.4606990000000  0.5600020000000 1.0
C      1  0.4201090000000  0.4445260000000  0.5496320000000 1.0
C      1  0.5069200000000  0.4833570000000  0.5604940000000 1.0
C      1  0.5115150000000  0.4367710000000  0.4513760000000 1.0
C      1  0.4161890000000  0.5222010000000  0.4841420000000 1.0
C      1  0.4639450000000  0.5620160000000  0.5242600000000 1.0
C      1  0.5390200000000  0.4081650000000  0.4922980000000 1.0
C      1  0.5074300000000  0.5748780000000  0.5348530000000 1.0
C      1  0.4260440000000  0.4914580000000  0.5690280000000 1.0
C      1  0.4842660000000  0.5340600000000  0.5638760000000 1.0
C      1  0.4422790000000  0.5337070000000  0.4851960000000 1.0
C      1  0.4934350000000  0.4732510000000  0.6152110000000 1.0
C      1  0.4189780000000  0.4331820000000  0.5234510000000 1.0
C      1  0.5065350000000  0.4962150000000  0.6204460000000 1.0
C      1  0.4753220000000  0.4737600000000  0.4685760000000 1.0
C      1  0.4250560000000  0.4485380000000  0.4999620000000 1.0
C      1  0.5490310000000  0.5588530000000  0.5534400000000 1.0
C      1  0.4937090000000  0.4556360000000  0.5930560000000 1.0
C      1  0.4668100000000  0.6004900000000  0.4380500000000 1.0
C      1  0.4228780000000  0.4632020000000  0.5691010000000 1.0
C      1  0.4706610000000  0.5864190000000  0.5102730000000 1.0
C      1  0.5330180000000  0.5328410000000  0.4785240000000 1.0
C      1  0.4668770000000  0.4239370000000  0.4773200000000 1.0
C      1  0.5386600000000  0.4491900000000  0.4551720000000 1.0
C      1  0.4195320000000  0.5018110000000  0.5434880000000 1.0
C      1  0.5314560000000  0.5121980000000  0.5225260000000 1.0
C      1  0.5570680000000  0.4297570000000  0.4978770000000 1.0
C      1  0.5063060000000  0.5305090000000  0.4400150000000 1.0
C      1  0.4849710000000  0.5579990000000  0.5457790000000 1.0
C      1  0.4833290000000  0.5373070000000  0.4591190000000 1.0
C      1  0.6139790000000  0.4792080000000  0.4653380000000 1.0
C      1  0.5130160000000  0.5896830000000  0.4585150000000 1.0
C      1  0.4758740000000  0.5169980000000  0.5154330000000 1.0
C      1  0.4908340000000  0.4714940000000  0.4923540000000 1.0
C      1  0.5473140000000  0.4686070000000  0.4354980000000 1.0
C      1  0.4623150000000  0.5269250000000  0.5804440000000 1.0
C      1  0.4603870000000  0.4934140000000  0.5185440000000 1.0
C      1  0.5524580000000  0.5493700000000  0.4904060000000 1.0
C      1  0.5230650000000  0.5158960000000  0.6128980000000 1.0
C      1  0.4575330000000  0.5645640000000  0.4043560000000 1.0
C      1  0.5319090000000  0.4427730000000  0.5378570000000 1.0
C      1  0.4751580000000  0.5426420000000  0.4090500000000 1.0
C      1  0.4785120000000  0.5642780000000  0.4672270000000 1.0
C      1  0.5020800000000  0.5517260000000  0.4202780000000 1.0
C      1  0.4555360000000  0.5886070000000  0.4165570000000 1.0
C      1  0.5508570000000  0.4522060000000  0.4813070000000 1.0
C      1  0.5022930000000  0.4710470000000  0.4130500000000 1.0
C      1  0.5688100000000  0.4880760000000  0.4398400000000 1.0
C      1  0.4642900000000  0.5139760000000  0.4162490000000 1.0
C      1  0.5208180000000  0.4464750000000  0.5854140000000 1.0
C      1  0.4456090000000  0.5102530000000  0.4404660000000 1.0
C      1  0.5780440000000  0.5092600000000  0.5082830000000 1.0
C      1  0.4849390000000  0.4895100000000  0.4484700000000 1.0
C      1  0.5418020000000  0.5724920000000  0.5027260000000 1.0
END
