TITL C-627112-676-835 10815.687431671 125000 -936.465868786183 0 0 153 (C1) n - 1
REM
REM in /home/nfs/bkarasulu/CARBON/AIRSS/Generating-Clusters/LCBOP/Only-C1/SD-CG/FIRE-CG
REM
REM
REM
REM
REM
REM ./C.cell (11c1c37f851c82e70ff6c80c92926a4b)
REM AIRSS Version 0.9.1 bugfix July 2018 build 013d7b7c2542+ Fri, 06 Jul 2018 19:26:36 +0100
REM compiler GCC version 9.2.1 20190827 (Red Hat 9.2.1-1)
REM options -cpp -mtune=generic -march=x86-64 -g -O0 -fpre-include=/usr/include/finclude/math-vector-fortran.h
REM seed 1781374582 -1612645666 2094353550 -1003868611 -112858093 1815312029 -755687083 649226858 1477990506 -1535012749 352634617 456843917 549003061 176357313 762329591 -922549669 -646912826 839565695 1533912098 801568914 -221480098 2060961014 1911617213 -1407447573 1432762852 -527280201 1578515942 -799593911 23216037 537744188 813229220 1000784074 909022530
REM
CELL 1.54180   50.00000   50.00000   50.00000   90.00000   90.00000   90.00000
LATT -1
SFAC C  
C      1  0.4830860000000  0.5198200000000  0.5467590000000 1.0
C      1  0.4412840000000  0.5338270000000  0.4040320000000 1.0
C      1  0.5031000000000  0.4274190000000  0.5818620000000 1.0
C      1  0.5763010000000  0.5622670000000  0.5389620000000 1.0
C      1  0.5497260000000  0.4853070000000  0.4402000000000 1.0
C      1  0.4038900000000  0.5161020000000  0.5260590000000 1.0
C      1  0.4527350000000  0.4241300000000  0.5716070000000 1.0
C      1  0.6023040000000  0.4345640000000  0.4202360000000 1.0
C      1  0.4122920000000  0.4483640000000  0.5497790000000 1.0
C      1  0.4730360000000  0.4525570000000  0.5315480000000 1.0
C      1  0.5708760000000  0.5516660000000  0.5134200000000 1.0
C      1  0.4992560000000  0.5616490000000  0.4974010000000 1.0
C      1  0.5213530000000  0.6050300000000  0.4916350000000 1.0
C      1  0.5641440000000  0.4870340000000  0.4895350000000 1.0
C      1  0.4086490000000  0.5115730000000  0.4961340000000 1.0
C      1  0.4941830000000  0.4829100000000  0.4374260000000 1.0
C      1  0.4624720000000  0.4212310000000  0.4408010000000 1.0
C      1  0.6510010000000  0.4259520000000  0.4882910000000 1.0
C      1  0.4052300000000  0.4605810000000  0.5016020000000 1.0
C      1  0.4191100000000  0.4964330000000  0.4319440000000 1.0
C      1  0.4247130000000  0.5326350000000  0.5689320000000 1.0
C      1  0.5077610000000  0.5099430000000  0.5034260000000 1.0
C      1  0.5517430000000  0.5333270000000  0.4352370000000 1.0
C      1  0.4687470000000  0.5939010000000  0.5283200000000 1.0
C      1  0.5486260000000  0.4436890000000  0.5018990000000 1.0
C      1  0.6263560000000  0.4675790000000  0.4809810000000 1.0
C      1  0.5538070000000  0.4707590000000  0.5094590000000 1.0
C      1  0.5561580000000  0.4170090000000  0.4335370000000 1.0
C      1  0.6071610000000  0.4328660000000  0.5079390000000 1.0
C      1  0.5636730000000  0.4299470000000  0.4821970000000 1.0
C      1  0.5377300000000  0.5326840000000  0.5896800000000 1.0
C      1  0.5383060000000  0.4596060000000  0.4464120000000 1.0
C      1  0.5055250000000  0.4686240000000  0.6051900000000 1.0
C      1  0.4788600000000  0.5088670000000  0.6050980000000 1.0
C      1  0.4561180000000  0.5048890000000  0.4947100000000 1.0
C      1  0.4407070000000  0.5528520000000  0.4976270000000 1.0
C      1  0.5096840000000  0.5818870000000  0.4796770000000 1.0
C      1  0.5066860000000  0.4035730000000  0.4116680000000 1.0
C      1  0.4073740000000  0.4955760000000  0.5462210000000 1.0
C      1  0.4620600000000  0.4555230000000  0.5054480000000 1.0
C      1  0.5810090000000  0.4258380000000  0.5485410000000 1.0
C      1  0.5026690000000  0.5327470000000  0.3928690000000 1.0
C      1  0.5706850000000  0.5547100000000  0.4377350000000 1.0
C      1  0.6095350000000  0.4896340000000  0.5239820000000 1.0
C      1  0.4492110000000  0.4879710000000  0.3945930000000 1.0
C      1  0.3950020000000  0.5265340000000  0.4742130000000 1.0
C      1  0.5323980000000  0.4060060000000  0.4231770000000 1.0
C      1  0.5035020000000  0.3901050000000  0.4897530000000 1.0
C      1  0.4765280000000  0.4607920000000  0.6003450000000 1.0
C      1  0.4634410000000  0.6114590000000  0.5048600000000 1.0
C      1  0.6211110000000  0.4881820000000  0.4995940000000 1.0
C      1  0.4440090000000  0.6033060000000  0.4861170000000 1.0
C      1  0.4895590000000  0.4721790000000  0.5450540000000 1.0
C      1  0.4698220000000  0.5992290000000  0.5754060000000 1.0
C      1  0.4816380000000  0.3930070000000  0.4747780000000 1.0
C      1  0.5188610000000  0.5513670000000  0.3792080000000 1.0
C      1  0.4413550000000  0.5302770000000  0.4522930000000 1.0
C      1  0.5099310000000  0.4614050000000  0.4468210000000 1.0
C      1  0.4867360000000  0.5560970000000  0.4446730000000 1.0
C      1  0.5586490000000  0.4981640000000  0.4649270000000 1.0
C      1  0.4621180000000  0.4855970000000  0.5970690000000 1.0
C      1  0.4324760000000  0.3995800000000  0.5335180000000 1.0
C      1  0.4159540000000  0.4144780000000  0.5181250000000 1.0
C      1  0.4980260000000  0.4840310000000  0.4963040000000 1.0
C      1  0.4091570000000  0.4826190000000  0.4835710000000 1.0
C      1  0.4929050000000  0.5727390000000  0.5227710000000 1.0
C      1  0.5297960000000  0.5140280000000  0.6096130000000 1.0
C      1  0.4339100000000  0.5069550000000  0.4092330000000 1.0
C      1  0.4659890000000  0.4152180000000  0.4683460000000 1.0
C      1  0.5493800000000  0.5246610000000  0.4628750000000 1.0
C      1  0.5216520000000  0.5886280000000  0.4330820000000 1.0
C      1  0.4582330000000  0.4337990000000  0.4880960000000 1.0
C      1  0.4212020000000  0.4516500000000  0.4464560000000 1.0
C      1  0.5821820000000  0.5610010000000  0.4886390000000 1.0
C      1  0.5213220000000  0.5418950000000  0.5677170000000 1.0
C      1  0.5041270000000  0.3895780000000  0.3882050000000 1.0
C      1  0.5602410000000  0.5642100000000  0.5620100000000 1.0
C      1  0.4750580000000  0.4348910000000  0.5864760000000 1.0
C      1  0.6159200000000  0.4544970000000  0.4316740000000 1.0
C      1  0.4839850000000  0.6311950000000  0.5033210000000 1.0
C      1  0.4415350000000  0.5758650000000  0.4766280000000 1.0
C      1  0.5213880000000  0.4461700000000  0.5955530000000 1.0
C      1  0.4513380000000  0.4908600000000  0.5712310000000 1.0
C      1  0.4681780000000  0.5342210000000  0.5967980000000 1.0
C      1  0.5810000000000  0.4183050000000  0.4204600000000 1.0
C      1  0.5109140000000  0.5248280000000  0.5483420000000 1.0
C      1  0.5962430000000  0.4710050000000  0.5402550000000 1.0
C      1  0.4749460000000  0.5637510000000  0.4198230000000 1.0
C      1  0.5100130000000  0.6220270000000  0.5119430000000 1.0
C      1  0.5487230000000  0.4433940000000  0.5886260000000 1.0
C      1  0.4827190000000  0.6102190000000  0.5515730000000 1.0
C      1  0.4409010000000  0.5543060000000  0.5280990000000 1.0
C      1  0.5263640000000  0.5182850000000  0.5253230000000 1.0
C      1  0.4738630000000  0.4941010000000  0.5530990000000 1.0
C      1  0.5213850000000  0.4402440000000  0.5398240000000 1.0
C      1  0.5738220000000  0.4076290000000  0.5264750000000 1.0
C      1  0.5118060000000  0.4193270000000  0.5563130000000 1.0
C      1  0.4256720000000  0.6222820000000  0.4766990000000 1.0
C      1  0.6020680000000  0.4428810000000  0.5348140000000 1.0
C      1  0.4761150000000  0.5417850000000  0.4003260000000 1.0
C      1  0.4334080000000  0.5742200000000  0.4471130000000 1.0
C      1  0.6288370000000  0.4413590000000  0.4922670000000 1.0
C      1  0.5815850000000  0.5632860000000  0.4614960000000 1.0
C      1  0.5067620000000  0.4566330000000  0.4961220000000 1.0
C      1  0.5116800000000  0.4053420000000  0.5114550000000 1.0
C      1  0.4506900000000  0.5778320000000  0.5703990000000 1.0
C      1  0.5839280000000  0.4169400000000  0.4993380000000 1.0
C      1  0.4469200000000  0.5659130000000  0.4226570000000 1.0
C      1  0.5306900000000  0.5896990000000  0.4079880000000 1.0
C      1  0.4836640000000  0.5053310000000  0.4511160000000 1.0
C      1  0.4712060000000  0.5310800000000  0.4522470000000 1.0
C      1  0.5157070000000  0.5096000000000  0.4049180000000 1.0
C      1  0.5469600000000  0.4772070000000  0.5371210000000 1.0
C      1  0.5300810000000  0.5748390000000  0.3857170000000 1.0
C      1  0.4776310000000  0.3886000000000  0.5457580000000 1.0
C      1  0.5100560000000  0.6113190000000  0.5397590000000 1.0
C      1  0.4972480000000  0.4881020000000  0.4095120000000 1.0
C      1  0.4387380000000  0.4349250000000  0.4351670000000 1.0
C      1  0.5364390000000  0.5368050000000  0.4837420000000 1.0
C      1  0.5160570000000  0.5824870000000  0.5396260000000 1.0
C      1  0.4637750000000  0.5394710000000  0.5452730000000 1.0
C      1  0.5854890000000  0.5449870000000  0.6007860000000 1.0
C      1  0.5452220000000  0.5113600000000  0.6321920000000 1.0
C      1  0.5315620000000  0.5669730000000  0.5568670000000 1.0
C      1  0.5026040000000  0.3989980000000  0.5386040000000 1.0
C      1  0.4258290000000  0.5028850000000  0.5672880000000 1.0
C      1  0.4120180000000  0.5368200000000  0.4539560000000 1.0
C      1  0.5066450000000  0.5752460000000  0.4526970000000 1.0
C      1  0.4449960000000  0.5809630000000  0.5407260000000 1.0
C      1  0.5668560000000  0.4442300000000  0.5669810000000 1.0
C      1  0.5534490000000  0.4357140000000  0.4550610000000 1.0
C      1  0.4089470000000  0.6398420000000  0.4671570000000 1.0
C      1  0.5192470000000  0.4684830000000  0.5448300000000 1.0
C      1  0.4290850000000  0.4398940000000  0.5691830000000 1.0
C      1  0.5062590000000  0.4979770000000  0.6077070000000 1.0
C      1  0.4366510000000  0.5241330000000  0.4940490000000 1.0
C      1  0.4067070000000  0.5634070000000  0.4454540000000 1.0
C      1  0.4695050000000  0.4812310000000  0.4955050000000 1.0
C      1  0.5630580000000  0.5470980000000  0.5855540000000 1.0
C      1  0.3837970000000  0.5754040000000  0.4377620000000 1.0
C      1  0.4087250000000  0.4416320000000  0.5223640000000 1.0
C      1  0.5407970000000  0.5088210000000  0.4210160000000 1.0
C      1  0.4518270000000  0.5468430000000  0.5745490000000 1.0
C      1  0.5077710000000  0.5352790000000  0.4890180000000 1.0
C      1  0.4834870000000  0.4149120000000  0.4231930000000 1.0
C      1  0.4160550000000  0.5397650000000  0.5399860000000 1.0
C      1  0.5698970000000  0.4707180000000  0.5536160000000 1.0
C      1  0.4536730000000  0.4019430000000  0.5523910000000 1.0
C      1  0.5478460000000  0.5347210000000  0.5109320000000 1.0
C      1  0.4152570000000  0.4782670000000  0.4543850000000 1.0
C      1  0.5217980000000  0.4343920000000  0.5099310000000 1.0
C      1  0.6234500000000  0.4685530000000  0.4531310000000 1.0
C      1  0.4753280000000  0.4816250000000  0.3932080000000 1.0
END
