TITL C-627109-622-1668 0.00347244928248254 125000 -211.02201837332 0 0 36 (C1) n - 1
REM
REM in /home/nfs/bkarasulu/CARBON/AIRSS/Generating-Clusters/LCBOP/Only-C1/SD-CG/FIRE-CG
REM
REM
REM
REM
REM
REM ./C.cell (11c1c37f851c82e70ff6c80c92926a4b)
REM AIRSS Version 0.9.1 bugfix July 2018 build 013d7b7c2542+ Fri, 06 Jul 2018 19:26:36 +0100
REM compiler GCC version 9.2.1 20190827 (Red Hat 9.2.1-1)
REM options -cpp -mtune=generic -march=x86-64 -g -O0 -fpre-include=/usr/include/finclude/math-vector-fortran.h
REM seed 1212575627 -108202902 -1394414717 2129283071 139457768 901871358 339356879 1031508923 -131248225 -85113264 671086336 2041084421 861019239 -1726048321 -1333433606 -271781101 1063510395 -804151149 419568508 133799060 1038784061 2118955897 -1431498375 -1565449085 1180222881 1214843851 1802685546 -376974005 784808557 -1904095335 1998818886 268007370 1950757238
REM
CELL 1.54180   50.00000   50.00000   50.00000   90.00000   90.00000   90.00000
LATT -1
SFAC C  
C      1  0.4596780000000  0.4910220000000  0.5526020000000 1.0
C      1  0.5433400000000  0.4976840000000  0.5199360000000 1.0
C      1  0.5310000000000  0.4994240000000  0.4257290000000 1.0
C      1  0.5178370000000  0.4571680000000  0.5250870000000 1.0
C      1  0.5618370000000  0.4449530000000  0.4444100000000 1.0
C      1  0.5644890000000  0.4983470000000  0.5381140000000 1.0
C      1  0.5800990000000  0.4293560000000  0.4342920000000 1.0
C      1  0.5324980000000  0.5270020000000  0.4303890000000 1.0
C      1  0.5842060000000  0.4985810000000  0.5551540000000 1.0
C      1  0.4528920000000  0.4746880000000  0.4597380000000 1.0
C      1  0.4566530000000  0.5035390000000  0.5273260000000 1.0
C      1  0.5305590000000  0.5212850000000  0.5119590000000 1.0
C      1  0.5253090000000  0.5389460000000  0.4909430000000 1.0
C      1  0.4761700000000  0.5468760000000  0.5394920000000 1.0
C      1  0.5522520000000  0.5368980000000  0.4481900000000 1.0
C      1  0.4775600000000  0.4695090000000  0.5539810000000 1.0
C      1  0.4317550000000  0.5088410000000  0.5956440000000 1.0
C      1  0.4571280000000  0.5204880000000  0.4746100000000 1.0
C      1  0.4987690000000  0.5439010000000  0.4810070000000 1.0
C      1  0.4453180000000  0.4995880000000  0.5748610000000 1.0
C      1  0.4181950000000  0.5182450000000  0.6163870000000 1.0
C      1  0.5472250000000  0.5443640000000  0.4736820000000 1.0
C      1  0.4751750000000  0.5331930000000  0.4926100000000 1.0
C      1  0.4979010000000  0.4566300000000  0.5426810000000 1.0
C      1  0.4698290000000  0.5283240000000  0.5204070000000 1.0
C      1  0.4967770000000  0.5514940000000  0.4536230000000 1.0
C      1  0.4722070000000  0.4650710000000  0.4440720000000 1.0
C      1  0.5239200000000  0.4749030000000  0.4374950000000 1.0
C      1  0.5086990000000  0.5424260000000  0.4311160000000 1.0
C      1  0.4975200000000  0.4656450000000  0.4358680000000 1.0
C      1  0.5345430000000  0.4728630000000  0.5090270000000 1.0
C      1  0.4436780000000  0.4893300000000  0.5063650000000 1.0
C      1  0.5404440000000  0.4658670000000  0.4826250000000 1.0
C      1  0.4474420000000  0.4942490000000  0.4788370000000 1.0
C      1  0.5422360000000  0.4618040000000  0.4549510000000 1.0
C      1  0.4048590000000  0.5274960000000  0.6367890000000 1.0
END
