TITL C-627111-6168-2002 -7.08983770349506e-07 125000 -1197.76001626404 0 0 194 (C1) n - 1
REM
REM in /home/nfs/bkarasulu/CARBON/AIRSS/Generating-Clusters/LCBOP/Only-C1/SD-CG/FIRE-CG
REM
REM
REM
REM
REM
REM ./C.cell (11c1c37f851c82e70ff6c80c92926a4b)
REM AIRSS Version 0.9.1 bugfix July 2018 build 013d7b7c2542+ Fri, 06 Jul 2018 19:26:36 +0100
REM compiler GCC version 9.2.1 20190827 (Red Hat 9.2.1-1)
REM options -cpp -mtune=generic -march=x86-64 -g -O0 -fpre-include=/usr/include/finclude/math-vector-fortran.h
REM seed -1385205031 919480469 1341489551 -254286726 -897351080 1784103485 1463502212 -1355846813 439625111 1836969004 -587594877 2051056896 1648787289 -2044849172 778022336 1551663547 -2002307627 -474954003 1972387607 851265473 2126186560 911982662 -994274515 951230986 -471510681 -966879387 -606106568 -722826326 1209014897 1954697871 1129359882 1379259402 -555075470
REM
CELL 1.54180   50.00000   50.00000   50.00000   90.00000   90.00000   90.00000
LATT -1
SFAC C  
C      1  0.4840670000000  0.4978480000000  0.4123870000000 1.0
C      1  0.6270400000000  0.4837140000000  0.4675390000000 1.0
C      1  0.5698820000000  0.4971920000000  0.4896040000000 1.0
C      1  0.4899450000000  0.5427990000000  0.5072380000000 1.0
C      1  0.5842140000000  0.5179520000000  0.4773070000000 1.0
C      1  0.4227400000000  0.4167890000000  0.4972920000000 1.0
C      1  0.5525900000000  0.4827930000000  0.4330760000000 1.0
C      1  0.5753350000000  0.5038920000000  0.5871160000000 1.0
C      1  0.3752400000000  0.4973300000000  0.4686130000000 1.0
C      1  0.4275370000000  0.4275990000000  0.6292550000000 1.0
C      1  0.5124770000000  0.4173430000000  0.4893400000000 1.0
C      1  0.3715530000000  0.4956260000000  0.4958870000000 1.0
C      1  0.5750740000000  0.4381870000000  0.4367590000000 1.0
C      1  0.6066320000000  0.4265010000000  0.4678900000000 1.0
C      1  0.5280270000000  0.4653150000000  0.5082810000000 1.0
C      1  0.4798430000000  0.5172570000000  0.4990890000000 1.0
C      1  0.6022330000000  0.4968330000000  0.4299410000000 1.0
C      1  0.4859900000000  0.4273560000000  0.4970870000000 1.0
C      1  0.5690030000000  0.4113970000000  0.4487080000000 1.0
C      1  0.4496100000000  0.4750700000000  0.6231750000000 1.0
C      1  0.4630910000000  0.6019340000000  0.4581440000000 1.0
C      1  0.4638740000000  0.4388270000000  0.4808710000000 1.0
C      1  0.4263010000000  0.5386170000000  0.4851120000000 1.0
C      1  0.4141850000000  0.4833520000000  0.4361620000000 1.0
C      1  0.4648930000000  0.5132420000000  0.4741920000000 1.0
C      1  0.4592100000000  0.4875900000000  0.4616070000000 1.0
C      1  0.5275630000000  0.6431310000000  0.5563580000000 1.0
C      1  0.6115860000000  0.4732050000000  0.4448970000000 1.0
C      1  0.4054730000000  0.5216870000000  0.5807530000000 1.0
C      1  0.5468810000000  0.4866190000000  0.5509410000000 1.0
C      1  0.5323210000000  0.5308810000000  0.5041940000000 1.0
C      1  0.3959260000000  0.4549590000000  0.5223400000000 1.0
C      1  0.4460240000000  0.4570930000000  0.5275130000000 1.0
C      1  0.5585430000000  0.5710770000000  0.4315800000000 1.0
C      1  0.5735860000000  0.5654590000000  0.4753250000000 1.0
C      1  0.5154460000000  0.5226510000000  0.4395310000000 1.0
C      1  0.5124360000000  0.4765450000000  0.4867060000000 1.0
C      1  0.4394440000000  0.3937590000000  0.5384310000000 1.0
C      1  0.5306180000000  0.4686690000000  0.5359080000000 1.0
C      1  0.4327490000000  0.5556780000000  0.5364710000000 1.0
C      1  0.5732190000000  0.4013270000000  0.4996970000000 1.0
C      1  0.5798760000000  0.5806030000000  0.4502420000000 1.0
C      1  0.6008440000000  0.4470320000000  0.4470230000000 1.0
C      1  0.4177360000000  0.5850390000000  0.4829120000000 1.0
C      1  0.5621350000000  0.5419380000000  0.4344460000000 1.0
C      1  0.4551780000000  0.3970440000000  0.5625720000000 1.0
C      1  0.5268240000000  0.5272730000000  0.5330050000000 1.0
C      1  0.4170730000000  0.4725040000000  0.4835050000000 1.0
C      1  0.6182790000000  0.5208570000000  0.4388540000000 1.0
C      1  0.5608990000000  0.5265340000000  0.5972100000000 1.0
C      1  0.4375380000000  0.4281780000000  0.4756550000000 1.0
C      1  0.5379770000000  0.5668580000000  0.3895210000000 1.0
C      1  0.5317070000000  0.5413650000000  0.3788660000000 1.0
C      1  0.4626650000000  0.5496040000000  0.5804020000000 1.0
C      1  0.5724270000000  0.5563620000000  0.5584650000000 1.0
C      1  0.5620960000000  0.5657630000000  0.5293290000000 1.0
C      1  0.4826300000000  0.4287620000000  0.5883300000000 1.0
C      1  0.4275400000000  0.5191230000000  0.5061530000000 1.0
C      1  0.6059390000000  0.5731160000000  0.4399130000000 1.0
C      1  0.5033060000000  0.5322800000000  0.5532980000000 1.0
C      1  0.4082890000000  0.4582370000000  0.4240840000000 1.0
C      1  0.5013290000000  0.4506610000000  0.4123490000000 1.0
C      1  0.5507350000000  0.5122260000000  0.5410190000000 1.0
C      1  0.4396080000000  0.5979450000000  0.4735890000000 1.0
C      1  0.6262980000000  0.4676220000000  0.4908850000000 1.0
C      1  0.6292870000000  0.5064610000000  0.5377990000000 1.0
C      1  0.4766150000000  0.4326160000000  0.4188250000000 1.0
C      1  0.4477190000000  0.5396850000000  0.6025930000000 1.0
C      1  0.4539740000000  0.5142080000000  0.5498660000000 1.0
C      1  0.4838300000000  0.3909410000000  0.5585330000000 1.0
C      1  0.5083600000000  0.5414620000000  0.3630160000000 1.0
C      1  0.4976480000000  0.6240080000000  0.4902180000000 1.0
C      1  0.6528850000000  0.4939810000000  0.5386800000000 1.0
C      1  0.5096780000000  0.6026130000000  0.4486900000000 1.0
C      1  0.5496430000000  0.4514810000000  0.4938000000000 1.0
C      1  0.5334920000000  0.4324690000000  0.4772240000000 1.0
C      1  0.5261130000000  0.4401700000000  0.4267840000000 1.0
C      1  0.4425520000000  0.6055730000000  0.4137810000000 1.0
C      1  0.3831240000000  0.5640660000000  0.5591230000000 1.0
C      1  0.4857550000000  0.4235700000000  0.5251860000000 1.0
C      1  0.6169560000000  0.5488710000000  0.4334700000000 1.0
C      1  0.4554100000000  0.4160300000000  0.5848250000000 1.0
C      1  0.4451710000000  0.5789900000000  0.5461590000000 1.0
C      1  0.5334850000000  0.6626610000000  0.5725650000000 1.0
C      1  0.5185540000000  0.4441830000000  0.4553400000000 1.0
C      1  0.4934320000000  0.4983040000000  0.6170860000000 1.0
C      1  0.5363190000000  0.5779610000000  0.4153810000000 1.0
C      1  0.5010470000000  0.4065430000000  0.5764850000000 1.0
C      1  0.4524470000000  0.5500350000000  0.6275750000000 1.0
C      1  0.5131410000000  0.5329340000000  0.5809700000000 1.0
C      1  0.5255910000000  0.5490990000000  0.4833550000000 1.0
C      1  0.4362240000000  0.5279070000000  0.5314590000000 1.0
C      1  0.3918110000000  0.5461450000000  0.5771150000000 1.0
C      1  0.5603820000000  0.4811370000000  0.5759700000000 1.0
C      1  0.4558230000000  0.5757030000000  0.5720210000000 1.0
C      1  0.4581540000000  0.4876640000000  0.4143770000000 1.0
C      1  0.4752560000000  0.4097770000000  0.4397960000000 1.0
C      1  0.3926760000000  0.4967380000000  0.4482780000000 1.0
C      1  0.4323340000000  0.4796420000000  0.3764500000000 1.0
C      1  0.4203260000000  0.5255550000000  0.3955770000000 1.0
C      1  0.4841060000000  0.5880920000000  0.5185360000000 1.0
C      1  0.5746920000000  0.4984020000000  0.4224960000000 1.0
C      1  0.4998410000000  0.4622690000000  0.4659880000000 1.0
C      1  0.5416800000000  0.5183640000000  0.3927060000000 1.0
C      1  0.6007900000000  0.5166560000000  0.5798690000000 1.0
C      1  0.4681950000000  0.3937840000000  0.4624120000000 1.0
C      1  0.5291220000000  0.4106030000000  0.5686020000000 1.0
C      1  0.6001410000000  0.4611320000000  0.4999600000000 1.0
C      1  0.5317860000000  0.5747320000000  0.5277640000000 1.0
C      1  0.4972960000000  0.4855790000000  0.5724620000000 1.0
C      1  0.4328000000000  0.4957490000000  0.6139210000000 1.0
C      1  0.6032440000000  0.5084810000000  0.5325040000000 1.0
C      1  0.4380460000000  0.3954660000000  0.5091310000000 1.0
C      1  0.4493150000000  0.4870880000000  0.5610730000000 1.0
C      1  0.4212300000000  0.4934860000000  0.4982600000000 1.0
C      1  0.4720620000000  0.4625970000000  0.4670630000000 1.0
C      1  0.4359320000000  0.4171750000000  0.6046570000000 1.0
C      1  0.5311180000000  0.4988440000000  0.4461670000000 1.0
C      1  0.5159010000000  0.4509400000000  0.5520290000000 1.0
C      1  0.5450030000000  0.3993180000000  0.5468490000000 1.0
C      1  0.4202460000000  0.4804540000000  0.5589490000000 1.0
C      1  0.4858300000000  0.4586550000000  0.5923100000000 1.0
C      1  0.4269630000000  0.4368570000000  0.4244380000000 1.0
C      1  0.4283080000000  0.5381430000000  0.4180250000000 1.0
C      1  0.6244430000000  0.5086430000000  0.5910380000000 1.0
C      1  0.6623130000000  0.4729040000000  0.5249600000000 1.0
C      1  0.3815360000000  0.5685450000000  0.5325850000000 1.0
C      1  0.4191650000000  0.4609750000000  0.5375910000000 1.0
C      1  0.4275640000000  0.5193960000000  0.5994430000000 1.0
C      1  0.5440330000000  0.5080590000000  0.4921990000000 1.0
C      1  0.5033940000000  0.5673770000000  0.5162590000000 1.0
C      1  0.3831640000000  0.5023800000000  0.5384960000000 1.0
C      1  0.5332720000000  0.4386890000000  0.5719220000000 1.0
C      1  0.4882330000000  0.4448050000000  0.5448460000000 1.0
C      1  0.4769910000000  0.4744170000000  0.6152800000000 1.0
C      1  0.5620620000000  0.5224790000000  0.4135410000000 1.0
C      1  0.4484160000000  0.5419260000000  0.4377110000000 1.0
C      1  0.5050020000000  0.5074170000000  0.5922330000000 1.0
C      1  0.4426630000000  0.4887230000000  0.4382840000000 1.0
C      1  0.5973380000000  0.5420670000000  0.5654440000000 1.0
C      1  0.5774980000000  0.5157660000000  0.5328400000000 1.0
C      1  0.4609670000000  0.3857040000000  0.4913430000000 1.0
C      1  0.4505550000000  0.4418270000000  0.4084220000000 1.0
C      1  0.4286240000000  0.4241810000000  0.4493140000000 1.0
C      1  0.3866090000000  0.5520290000000  0.5099960000000 1.0
C      1  0.4617480000000  0.5946100000000  0.4300100000000 1.0
C      1  0.4893380000000  0.6105580000000  0.4668030000000 1.0
C      1  0.4890590000000  0.3953280000000  0.5311940000000 1.0
C      1  0.4006250000000  0.5009630000000  0.5610630000000 1.0
C      1  0.5703450000000  0.5381430000000  0.4627240000000 1.0
C      1  0.4494080000000  0.4678260000000  0.3956950000000 1.0
C      1  0.5493150000000  0.3970840000000  0.4347250000000 1.0
C      1  0.4077020000000  0.5595830000000  0.4906300000000 1.0
C      1  0.5212150000000  0.5830050000000  0.5740580000000 1.0
C      1  0.5531010000000  0.4546160000000  0.4277070000000 1.0
C      1  0.4106270000000  0.4141750000000  0.6458680000000 1.0
C      1  0.5736150000000  0.4685270000000  0.4936230000000 1.0
C      1  0.5597500000000  0.3990590000000  0.5235980000000 1.0
C      1  0.5554480000000  0.5506450000000  0.5824290000000 1.0
C      1  0.5303990000000  0.4111790000000  0.4211710000000 1.0
C      1  0.5271920000000  0.4961250000000  0.4741410000000 1.0
C      1  0.5041640000000  0.4792030000000  0.4030530000000 1.0
C      1  0.5108310000000  0.6272070000000  0.5134880000000 1.0
C      1  0.4918360000000  0.5228120000000  0.4239670000000 1.0
C      1  0.4927700000000  0.4912730000000  0.5435760000000 1.0
C      1  0.5106260000000  0.5851100000000  0.4263140000000 1.0
C      1  0.4378540000000  0.4528970000000  0.6354810000000 1.0
C      1  0.4605190000000  0.4743200000000  0.5101680000000 1.0
C      1  0.5268070000000  0.4932400000000  0.3915400000000 1.0
C      1  0.5212490000000  0.6217920000000  0.5394720000000 1.0
C      1  0.6497120000000  0.4607710000000  0.5045720000000 1.0
C      1  0.5281910000000  0.5572370000000  0.5838760000000 1.0
C      1  0.5805600000000  0.5640600000000  0.5042710000000 1.0
C      1  0.4750570000000  0.5461260000000  0.4270400000000 1.0
C      1  0.6105390000000  0.5266000000000  0.4860040000000 1.0
C      1  0.4825050000000  0.5748200000000  0.4178910000000 1.0
C      1  0.4464550000000  0.5343230000000  0.4653450000000 1.0
C      1  0.5254820000000  0.5949580000000  0.5485450000000 1.0
C      1  0.5838090000000  0.4087410000000  0.4738680000000 1.0
C      1  0.4738510000000  0.5322600000000  0.5595040000000 1.0
C      1  0.5181010000000  0.5440570000000  0.4580510000000 1.0
C      1  0.6066840000000  0.5494260000000  0.5035010000000 1.0
C      1  0.4629880000000  0.4605780000000  0.5515590000000 1.0
C      1  0.4602000000000  0.5945180000000  0.5285390000000 1.0
C      1  0.4869630000000  0.5573570000000  0.3672620000000 1.0
C      1  0.5525460000000  0.4551850000000  0.5849900000000 1.0
C      1  0.6272220000000  0.5130640000000  0.4665860000000 1.0
C      1  0.3776420000000  0.5252620000000  0.5140600000000 1.0
C      1  0.4798190000000  0.4945420000000  0.5172310000000 1.0
C      1  0.3998010000000  0.4306400000000  0.5075780000000 1.0
C      1  0.4213350000000  0.5044210000000  0.3788210000000 1.0
C      1  0.4797350000000  0.5730410000000  0.3878360000000 1.0
C      1  0.4827560000000  0.3782970000000  0.5091950000000 1.0
C      1  0.3784770000000  0.4780600000000  0.5191480000000 1.0
END
