TITL C-627108-131-653 3.09422982889981e-07 125000 -290.633481094942 0 0 48 (C1) n - 1
REM
REM in /home/nfs/bkarasulu/CARBON/AIRSS/Generating-Clusters/LCBOP/Only-C1/SD-CG/FIRE-CG
REM
REM
REM
REM
REM
REM ./C.cell (11c1c37f851c82e70ff6c80c92926a4b)
REM AIRSS Version 0.9.1 bugfix July 2018 build 013d7b7c2542+ Fri, 06 Jul 2018 19:26:36 +0100
REM compiler GCC version 9.2.1 20190827 (Red Hat 9.2.1-1)
REM options -cpp -mtune=generic -march=x86-64 -g -O0 -fpre-include=/usr/include/finclude/math-vector-fortran.h
REM seed -1382361986 -1970258231 1868587403 1526869770 -897145820 446019840 534628594 636040890 880830107 -1552540834 -173429469 -1636568476 1169775985 -980471319 21136222 -1247630253 1671345996 -1633795720 5099484 -473074239 -2076199148 -284251524 843078854 -420385305 -1459816888 -474759804 258199876 517781792 289377547 2115044283 338302518 2102559199 -182956470
REM
CELL 1.54180   50.00000   50.00000   50.00000   90.00000   90.00000   90.00000
LATT -1
SFAC C  
C      1  0.5186560000000  0.4421670000000  0.4550450000000 1.0
C      1  0.5140640000000  0.5215670000000  0.4407580000000 1.0
C      1  0.5596890000000  0.5312320000000  0.5550710000000 1.0
C      1  0.4208490000000  0.5133210000000  0.5412170000000 1.0
C      1  0.4486330000000  0.4496920000000  0.5058600000000 1.0
C      1  0.5688030000000  0.4883840000000  0.4434120000000 1.0
C      1  0.5464690000000  0.5587530000000  0.4434710000000 1.0
C      1  0.5390310000000  0.5121480000000  0.5542900000000 1.0
C      1  0.5199010000000  0.5326660000000  0.5029110000000 1.0
C      1  0.5608000000000  0.5656820000000  0.4665870000000 1.0
C      1  0.5123510000000  0.5212530000000  0.5584900000000 1.0
C      1  0.4454200000000  0.4729230000000  0.4890430000000 1.0
C      1  0.4728050000000  0.4266950000000  0.4697450000000 1.0
C      1  0.5605000000000  0.4669230000000  0.4567940000000 1.0
C      1  0.4910420000000  0.5296500000000  0.5415350000000 1.0
C      1  0.5386560000000  0.5779410000000  0.4256180000000 1.0
C      1  0.4037640000000  0.5122510000000  0.5205120000000 1.0
C      1  0.4197810000000  0.4831230000000  0.4836340000000 1.0
C      1  0.4460340000000  0.4724670000000  0.5533100000000 1.0
C      1  0.5188890000000  0.4388070000000  0.5105510000000 1.0
C      1  0.4454630000000  0.5012230000000  0.5473720000000 1.0
C      1  0.5387710000000  0.4552890000000  0.4698820000000 1.0
C      1  0.4939730000000  0.4318590000000  0.4539170000000 1.0
C      1  0.5761570000000  0.5612610000000  0.5165420000000 1.0
C      1  0.4676640000000  0.4909640000000  0.4904160000000 1.0
C      1  0.4923910000000  0.4628690000000  0.5557830000000 1.0
C      1  0.4924360000000  0.5107140000000  0.4519110000000 1.0
C      1  0.5389410000000  0.4848920000000  0.5103650000000 1.0
C      1  0.5436870000000  0.4889610000000  0.5382110000000 1.0
C      1  0.5343090000000  0.4592310000000  0.4979860000000 1.0
C      1  0.4627840000000  0.5579910000000  0.4877910000000 1.0
C      1  0.4031160000000  0.4995790000000  0.4968320000000 1.0
C      1  0.4800730000000  0.4918640000000  0.5161600000000 1.0
C      1  0.4694290000000  0.4316450000000  0.4975130000000 1.0
C      1  0.4699120000000  0.5111240000000  0.5355580000000 1.0
C      1  0.5610360000000  0.5127350000000  0.4359320000000 1.0
C      1  0.5403180000000  0.5313900000000  0.4388270000000 1.0
C      1  0.4952570000000  0.4727810000000  0.5305990000000 1.0
C      1  0.5725560000000  0.5490340000000  0.5399190000000 1.0
C      1  0.5714510000000  0.5666240000000  0.4909170000000 1.0
C      1  0.4578890000000  0.5356230000000  0.4737190000000 1.0
C      1  0.4815280000000  0.5628760000000  0.5064750000000 1.0
C      1  0.4390140000000  0.4539670000000  0.5324130000000 1.0
C      1  0.4995690000000  0.5450080000000  0.5185170000000 1.0
C      1  0.4938340000000  0.4286270000000  0.5118890000000 1.0
C      1  0.5322660000000  0.5093410000000  0.4973790000000 1.0
C      1  0.4715860000000  0.5110540000000  0.4706500000000 1.0
C      1  0.4684510000000  0.4638280000000  0.5686710000000 1.0
END
