TITL C-627110-360-1062 2200.91720375842 125000 -975.762572216412 0 0 158 (C1) n - 1
REM
REM in /home/nfs/bkarasulu/CARBON/AIRSS/Generating-Clusters/LCBOP/Only-C1/SD-CG/FIRE-CG
REM
REM
REM
REM
REM
REM ./C.cell (11c1c37f851c82e70ff6c80c92926a4b)
REM AIRSS Version 0.9.1 bugfix July 2018 build 013d7b7c2542+ Fri, 06 Jul 2018 19:26:36 +0100
REM compiler GCC version 9.2.1 20190827 (Red Hat 9.2.1-1)
REM options -cpp -mtune=generic -march=x86-64 -g -O0 -fpre-include=/usr/include/finclude/math-vector-fortran.h
REM seed 74183779 -874463078 78706495 -92802995 -2077742448 680100342 -1402646690 1328862543 -725265249 -1789229771 752167252 -1405059309 250305943 1059953404 -6940234 1026550942 -511432879 -1331373173 -2045603767 -946371479 -463918557 -1076383873 -839432183 -1382162232 -471468663 -1344503249 257250933 -920769672 1235875343 1871706179 468018009 -1796586778 1680153402
REM
CELL 1.54180   50.00000   50.00000   50.00000   90.00000   90.00000   90.00000
LATT -1
SFAC C  
C      1  0.4554910000000  0.4780750000000  0.6209890000000 1.0
C      1  0.3654600000000  0.5404340000000  0.4128780000000 1.0
C      1  0.5586740000000  0.5576550000000  0.4365380000000 1.0
C      1  0.4257480000000  0.5127720000000  0.4645430000000 1.0
C      1  0.5044060000000  0.5653440000000  0.5182280000000 1.0
C      1  0.5958100000000  0.5440920000000  0.5011360000000 1.0
C      1  0.4540960000000  0.4526030000000  0.6091720000000 1.0
C      1  0.4350730000000  0.5159130000000  0.5480480000000 1.0
C      1  0.5380680000000  0.4291260000000  0.4356010000000 1.0
C      1  0.3875750000000  0.5012470000000  0.4365440000000 1.0
C      1  0.4843570000000  0.5128960000000  0.4288380000000 1.0
C      1  0.5456270000000  0.5417750000000  0.3892950000000 1.0
C      1  0.4254780000000  0.4027660000000  0.5194020000000 1.0
C      1  0.4925690000000  0.4493570000000  0.4265250000000 1.0
C      1  0.6035270000000  0.4944750000000  0.5283330000000 1.0
C      1  0.4802740000000  0.5667670000000  0.5330350000000 1.0
C      1  0.5065240000000  0.4486430000000  0.4898480000000 1.0
C      1  0.3979300000000  0.4495810000000  0.5112150000000 1.0
C      1  0.4417070000000  0.4045510000000  0.5422590000000 1.0
C      1  0.4848180000000  0.5573060000000  0.4751010000000 1.0
C      1  0.4655400000000  0.4494780000000  0.4170770000000 1.0
C      1  0.5516950000000  0.4917680000000  0.4458280000000 1.0
C      1  0.4839220000000  0.4465050000000  0.5710080000000 1.0
C      1  0.5507670000000  0.4016080000000  0.5264600000000 1.0
C      1  0.5470150000000  0.4511520000000  0.4179450000000 1.0
C      1  0.3693790000000  0.5174140000000  0.4258180000000 1.0
C      1  0.5435750000000  0.6071380000000  0.5328710000000 1.0
C      1  0.4509990000000  0.5086630000000  0.3890100000000 1.0
C      1  0.4357560000000  0.4914540000000  0.5327080000000 1.0
C      1  0.4365090000000  0.5810710000000  0.4686320000000 1.0
C      1  0.4230730000000  0.5655560000000  0.4865630000000 1.0
C      1  0.5088770000000  0.4201940000000  0.4898460000000 1.0
C      1  0.5873400000000  0.4339030000000  0.4425120000000 1.0
C      1  0.5245780000000  0.6048900000000  0.4468380000000 1.0
C      1  0.3970210000000  0.5197070000000  0.5867710000000 1.0
C      1  0.4795630000000  0.4437460000000  0.5989520000000 1.0
C      1  0.5857940000000  0.5214010000000  0.4564030000000 1.0
C      1  0.4295770000000  0.4420680000000  0.5995190000000 1.0
C      1  0.5486340000000  0.6459870000000  0.4570500000000 1.0
C      1  0.4415220000000  0.4651540000000  0.4186200000000 1.0
C      1  0.5489650000000  0.4636660000000  0.6121750000000 1.0
C      1  0.5328710000000  0.4326160000000  0.5586090000000 1.0
C      1  0.5780450000000  0.5325000000000  0.5196700000000 1.0
C      1  0.4216000000000  0.4936760000000  0.5086050000000 1.0
C      1  0.5034490000000  0.4953040000000  0.4381960000000 1.0
C      1  0.5753500000000  0.4780770000000  0.4847890000000 1.0
C      1  0.4777550000000  0.3717770000000  0.5302390000000 1.0
C      1  0.4615510000000  0.5468780000000  0.5255710000000 1.0
C      1  0.4595720000000  0.3768480000000  0.4859260000000 1.0
C      1  0.5211650000000  0.6159410000000  0.5445610000000 1.0
C      1  0.4462170000000  0.5302490000000  0.4074050000000 1.0
C      1  0.3805260000000  0.5596540000000  0.4019530000000 1.0
C      1  0.6074650000000  0.5091440000000  0.4421750000000 1.0
C      1  0.5054700000000  0.4686550000000  0.5349470000000 1.0
C      1  0.4607540000000  0.4496700000000  0.5536860000000 1.0
C      1  0.5074030000000  0.5556240000000  0.4925480000000 1.0
C      1  0.4579260000000  0.4740430000000  0.5382570000000 1.0
C      1  0.5699920000000  0.4979090000000  0.5830720000000 1.0
C      1  0.5907610000000  0.4623750000000  0.4391450000000 1.0
C      1  0.5191810000000  0.4614460000000  0.5111590000000 1.0
C      1  0.4673890000000  0.5167790000000  0.5929000000000 1.0
C      1  0.6230690000000  0.5210960000000  0.4226910000000 1.0
C      1  0.4238050000000  0.4683610000000  0.4421740000000 1.0
C      1  0.4416580000000  0.4290280000000  0.5559280000000 1.0
C      1  0.5309750000000  0.5452930000000  0.5807670000000 1.0
C      1  0.5634500000000  0.4711150000000  0.4304020000000 1.0
C      1  0.4851990000000  0.5764630000000  0.4546100000000 1.0
C      1  0.5669940000000  0.4709630000000  0.5919980000000 1.0
C      1  0.4305700000000  0.5603760000000  0.5943510000000 1.0
C      1  0.5627270000000  0.4308590000000  0.5632940000000 1.0
C      1  0.5264890000000  0.5315250000000  0.4574280000000 1.0
C      1  0.5091850000000  0.4512100000000  0.5585480000000 1.0
C      1  0.4304190000000  0.5522320000000  0.4012090000000 1.0
C      1  0.4322630000000  0.5429870000000  0.5321870000000 1.0
C      1  0.6180590000000  0.4996420000000  0.5028450000000 1.0
C      1  0.4830250000000  0.4849190000000  0.5301640000000 1.0
C      1  0.5727840000000  0.5195760000000  0.5648720000000 1.0
C      1  0.4599210000000  0.5259340000000  0.4317540000000 1.0
C      1  0.4962960000000  0.6096670000000  0.5523910000000 1.0
C      1  0.4066410000000  0.5638020000000  0.3980970000000 1.0
C      1  0.4876530000000  0.4082890000000  0.4459600000000 1.0
C      1  0.4499260000000  0.5261110000000  0.4580390000000 1.0
C      1  0.5441980000000  0.6188220000000  0.4613500000000 1.0
C      1  0.5431090000000  0.4490320000000  0.5184250000000 1.0
C      1  0.4128380000000  0.5381860000000  0.5989630000000 1.0
C      1  0.4177340000000  0.5158430000000  0.4916440000000 1.0
C      1  0.6211530000000  0.4822910000000  0.4791860000000 1.0
C      1  0.5281080000000  0.5064560000000  0.4444070000000 1.0
C      1  0.5311340000000  0.5568990000000  0.4451490000000 1.0
C      1  0.5267410000000  0.4513120000000  0.6201810000000 1.0
C      1  0.5523430000000  0.6720060000000  0.4537010000000 1.0
C      1  0.5554230000000  0.5438310000000  0.5656130000000 1.0
C      1  0.4159930000000  0.4496780000000  0.4625620000000 1.0
C      1  0.5590850000000  0.6045890000000  0.4804350000000 1.0
C      1  0.6366540000000  0.5332900000000  0.4040970000000 1.0
C      1  0.5648400000000  0.4643830000000  0.5287370000000 1.0
C      1  0.5082010000000  0.4250470000000  0.4338040000000 1.0
C      1  0.5676270000000  0.5832260000000  0.4969150000000 1.0
C      1  0.5608820000000  0.5525050000000  0.4087730000000 1.0
C      1  0.3847410000000  0.4844390000000  0.5481120000000 1.0
C      1  0.5806090000000  0.4261250000000  0.5018460000000 1.0
C      1  0.4208200000000  0.5655500000000  0.5472750000000 1.0
C      1  0.4785440000000  0.5896650000000  0.5491550000000 1.0
C      1  0.4649020000000  0.4442240000000  0.4697160000000 1.0
C      1  0.4127510000000  0.4946650000000  0.4468720000000 1.0
C      1  0.5614940000000  0.5653820000000  0.5470460000000 1.0
C      1  0.4747690000000  0.5111390000000  0.3737990000000 1.0
C      1  0.5624770000000  0.4211790000000  0.4521850000000 1.0
C      1  0.5203170000000  0.5316790000000  0.4847460000000 1.0
C      1  0.4869000000000  0.5062170000000  0.5122210000000 1.0
C      1  0.4801260000000  0.5429870000000  0.5945740000000 1.0
C      1  0.4484040000000  0.5138470000000  0.5727190000000 1.0
C      1  0.4198510000000  0.5422250000000  0.5035690000000 1.0
C      1  0.5884790000000  0.5164670000000  0.5403290000000 1.0
C      1  0.4665500000000  0.5361030000000  0.4788900000000 1.0
C      1  0.5822380000000  0.5618280000000  0.4833640000000 1.0
C      1  0.4823810000000  0.3769480000000  0.5029590000000 1.0
C      1  0.5021200000000  0.4420940000000  0.6155910000000 1.0
C      1  0.5756540000000  0.4154920000000  0.5305360000000 1.0
C      1  0.5118360000000  0.5091080000000  0.4990900000000 1.0
C      1  0.4395370000000  0.4840170000000  0.3971360000000 1.0
C      1  0.5240510000000  0.5304630000000  0.3780440000000 1.0
C      1  0.4203540000000  0.4348870000000  0.5738010000000 1.0
C      1  0.6104990000000  0.4815210000000  0.4513920000000 1.0
C      1  0.4588220000000  0.5613820000000  0.5998660000000 1.0
C      1  0.3909460000000  0.4581240000000  0.5384160000000 1.0
C      1  0.5593200000000  0.5845420000000  0.5254830000000 1.0
C      1  0.5664780000000  0.4124310000000  0.4793760000000 1.0
C      1  0.5558260000000  0.6976530000000  0.4505820000000 1.0
C      1  0.5412580000000  0.4516850000000  0.3912110000000 1.0
C      1  0.5923250000000  0.4699190000000  0.5359870000000 1.0
C      1  0.6188920000000  0.5280330000000  0.4971260000000 1.0
C      1  0.5330090000000  0.4235140000000  0.5307520000000 1.0
C      1  0.4961270000000  0.5057090000000  0.6294140000000 1.0
C      1  0.4642360000000  0.4169920000000  0.4612090000000 1.0
C      1  0.5124000000000  0.5795840000000  0.4448780000000 1.0
C      1  0.4719910000000  0.4999600000000  0.6155540000000 1.0
C      1  0.5690110000000  0.4997710000000  0.4671240000000 1.0
C      1  0.4121620000000  0.4375740000000  0.4883450000000 1.0
C      1  0.6005190000000  0.4577870000000  0.5600340000000 1.0
C      1  0.5141450000000  0.5244860000000  0.6214120000000 1.0
C      1  0.4606910000000  0.3843680000000  0.5467810000000 1.0
C      1  0.5847980000000  0.4533470000000  0.4921860000000 1.0
C      1  0.5001750000000  0.5197560000000  0.3721390000000 1.0
C      1  0.4223460000000  0.5756570000000  0.5720620000000 1.0
C      1  0.5514280000000  0.5302070000000  0.5152890000000 1.0
C      1  0.5090360000000  0.5411520000000  0.5985870000000 1.0
C      1  0.4688240000000  0.5269040000000  0.5059600000000 1.0
C      1  0.5029300000000  0.3947610000000  0.4956840000000 1.0
C      1  0.4261710000000  0.4124870000000  0.4929320000000 1.0
C      1  0.3964360000000  0.4403790000000  0.5601470000000 1.0
C      1  0.4967110000000  0.4696870000000  0.4462690000000 1.0
C      1  0.4586940000000  0.5875030000000  0.4537640000000 1.0
C      1  0.5788410000000  0.4498510000000  0.5763010000000 1.0
C      1  0.4468380000000  0.4004430000000  0.4764050000000 1.0
C      1  0.3873050000000  0.5030160000000  0.5677500000000 1.0
C      1  0.4884250000000  0.4598300000000  0.4715820000000 1.0
C      1  0.5775550000000  0.5493450000000  0.4572240000000 1.0
END
