TITL C-627106-156-1950 -1.20323448271234e-07 125000 -261.916866479619 0 0 44 (C1) n - 1
REM
REM in /home/nfs/bkarasulu/CARBON/AIRSS/Generating-Clusters/LCBOP/Only-C1/SD-CG/FIRE-CG
REM
REM
REM
REM
REM
REM ./C.cell (11c1c37f851c82e70ff6c80c92926a4b)
REM AIRSS Version 0.9.1 bugfix July 2018 build 013d7b7c2542+ Fri, 06 Jul 2018 19:26:36 +0100
REM compiler GCC version 9.2.1 20190827 (Red Hat 9.2.1-1)
REM options -cpp -mtune=generic -march=x86-64 -g -O0 -fpre-include=/usr/include/finclude/math-vector-fortran.h
REM seed 491300714 -989868063 -1484947563 1661499219 -1226514701 1009758654 808669542 -1483120974 -639688962 1964038082 2123084761 -763167789 1915236106 1767996247 1461573085 53184208 -518866968 -659083753 -1510689927 209549051 712904071 -59567618 -2071171337 -128322577 1224444468 -445938783 -1744984874 922272829 726977290 1872334023 -1347986493 500757087 917372965
REM
CELL 1.54180   50.00000   50.00000   50.00000   90.00000   90.00000   90.00000
LATT -1
SFAC C  
C      1  0.5470850000000  0.5081840000000  0.4883590000000 1.0
C      1  0.5345440000000  0.4261750000000  0.4834930000000 1.0
C      1  0.4467640000000  0.4458970000000  0.5040090000000 1.0
C      1  0.4724660000000  0.5355890000000  0.4650990000000 1.0
C      1  0.5229750000000  0.4883250000000  0.5408660000000 1.0
C      1  0.5469150000000  0.5567200000000  0.4811030000000 1.0
C      1  0.4909070000000  0.4726600000000  0.5043860000000 1.0
C      1  0.4457760000000  0.5083440000000  0.5319500000000 1.0
C      1  0.5292280000000  0.5171900000000  0.5479230000000 1.0
C      1  0.4392100000000  0.5092000000000  0.5029540000000 1.0
C      1  0.4225580000000  0.4881490000000  0.4944450000000 1.0
C      1  0.5071390000000  0.4859810000000  0.4850700000000 1.0
C      1  0.5460280000000  0.5510540000000  0.5100570000000 1.0
C      1  0.4237390000000  0.4616370000000  0.4999800000000 1.0
C      1  0.5203310000000  0.4091820000000  0.4984540000000 1.0
C      1  0.4930000000000  0.4600650000000  0.4484350000000 1.0
C      1  0.5479990000000  0.4806190000000  0.5277170000000 1.0
C      1  0.5184340000000  0.5563530000000  0.5166540000000 1.0
C      1  0.4593280000000  0.5261900000000  0.4889020000000 1.0
C      1  0.4698670000000  0.4570210000000  0.4918120000000 1.0
C      1  0.4911980000000  0.5633500000000  0.4016070000000 1.0
C      1  0.5347800000000  0.4490270000000  0.4693950000000 1.0
C      1  0.4934000000000  0.5563170000000  0.4266050000000 1.0
C      1  0.4503770000000  0.4846880000000  0.5468700000000 1.0
C      1  0.5519760000000  0.5278530000000  0.5286320000000 1.0
C      1  0.4711990000000  0.4538900000000  0.4633560000000 1.0
C      1  0.5931780000000  0.5706850000000  0.4571170000000 1.0
C      1  0.4750600000000  0.4735350000000  0.5497120000000 1.0
C      1  0.4722840000000  0.4045920000000  0.5174720000000 1.0
C      1  0.4979250000000  0.4012390000000  0.5106350000000 1.0
C      1  0.4772080000000  0.5331350000000  0.5108240000000 1.0
C      1  0.5182940000000  0.5114880000000  0.4897520000000 1.0
C      1  0.4826440000000  0.5296840000000  0.5596950000000 1.0
C      1  0.5594510000000  0.5030960000000  0.5136700000000 1.0
C      1  0.4662930000000  0.5279170000000  0.5368310000000 1.0
C      1  0.5100340000000  0.5365670000000  0.5580330000000 1.0
C      1  0.4975740000000  0.4764070000000  0.5325830000000 1.0
C      1  0.5218540000000  0.5546060000000  0.4658030000000 1.0
C      1  0.5044300000000  0.5337500000000  0.5043040000000 1.0
C      1  0.4509580000000  0.4208590000000  0.5158670000000 1.0
C      1  0.4959910000000  0.5485690000000  0.4535530000000 1.0
C      1  0.5707210000000  0.5642580000000  0.4686700000000 1.0
C      1  0.5133950000000  0.5612050000000  0.5439410000000 1.0
C      1  0.5154790000000  0.4687480000000  0.4634060000000 1.0
END
