TITL C-627113-6568-1688 7.5247971488003e-08 125000 -372.550571049204 0 0 61 (C1) n - 1
REM
REM in /home/nfs/bkarasulu/CARBON/AIRSS/Generating-Clusters/LCBOP/Only-C1/SD-CG/FIRE-CG
REM
REM
REM
REM
REM
REM ./C.cell (11c1c37f851c82e70ff6c80c92926a4b)
REM AIRSS Version 0.9.1 bugfix July 2018 build 013d7b7c2542+ Fri, 06 Jul 2018 19:26:36 +0100
REM compiler GCC version 9.2.1 20190827 (Red Hat 9.2.1-1)
REM options -cpp -mtune=generic -march=x86-64 -g -O0 -fpre-include=/usr/include/finclude/math-vector-fortran.h
REM seed 236019778 -1189469499 -1293304071 -173931119 2057088682 167829038 -2066635577 -1509317274 -1488032772 -280211685 401375740 -617675092 963036045 1245280956 2078135640 -1010001551 -1785308908 -617629652 287192480 1365596346 -740299570 -2090607053 1949498968 -1913538248 -1327357165 1766293610 -537731008 1835709674 -803241732 -1895537952 -763032275 -518376194 817458199
REM
CELL 1.54180   50.00000   50.00000   50.00000   90.00000   90.00000   90.00000
LATT -1
SFAC C  
C      1  0.4562630000000  0.4671220000000  0.4316700000000 1.0
C      1  0.4970610000000  0.4149190000000  0.4382670000000 1.0
C      1  0.5233760000000  0.4706980000000  0.3996970000000 1.0
C      1  0.5629410000000  0.5470940000000  0.5457690000000 1.0
C      1  0.4972500000000  0.5428160000000  0.5693910000000 1.0
C      1  0.4973960000000  0.4725200000000  0.5476520000000 1.0
C      1  0.4476800000000  0.5316920000000  0.5538100000000 1.0
C      1  0.4607830000000  0.5072100000000  0.5156550000000 1.0
C      1  0.5216470000000  0.5226670000000  0.5031150000000 1.0
C      1  0.4467950000000  0.5250900000000  0.4579740000000 1.0
C      1  0.5324930000000  0.6024750000000  0.5058540000000 1.0
C      1  0.4277330000000  0.5360810000000  0.4729220000000 1.0
C      1  0.4491260000000  0.4829870000000  0.5137870000000 1.0
C      1  0.4772410000000  0.4416080000000  0.4761830000000 1.0
C      1  0.4143450000000  0.5436190000000  0.4946870000000 1.0
C      1  0.4589960000000  0.4921690000000  0.5782120000000 1.0
C      1  0.4232370000000  0.5417420000000  0.5448630000000 1.0
C      1  0.5602460000000  0.4998920000000  0.5595130000000 1.0
C      1  0.4899090000000  0.5237250000000  0.4339260000000 1.0
C      1  0.5011740000000  0.4806330000000  0.4916500000000 1.0
C      1  0.5181680000000  0.5390110000000  0.5253870000000 1.0
C      1  0.5268090000000  0.5055230000000  0.4581220000000 1.0
C      1  0.4869900000000  0.4172740000000  0.4638730000000 1.0
C      1  0.4792440000000  0.5347950000000  0.5882640000000 1.0
C      1  0.4804220000000  0.4111360000000  0.5109590000000 1.0
C      1  0.5712910000000  0.5201260000000  0.5432650000000 1.0
C      1  0.5771120000000  0.5641140000000  0.5619270000000 1.0
C      1  0.4868200000000  0.3983000000000  0.4855610000000 1.0
C      1  0.4115740000000  0.5459830000000  0.5211300000000 1.0
C      1  0.5886590000000  0.5102550000000  0.5232500000000 1.0
C      1  0.4996180000000  0.5984380000000  0.4395480000000 1.0
C      1  0.4682760000000  0.5277660000000  0.5334760000000 1.0
C      1  0.4914720000000  0.5763440000000  0.4272530000000 1.0
C      1  0.4664410000000  0.4357140000000  0.5029880000000 1.0
C      1  0.5225120000000  0.4948610000000  0.4108400000000 1.0
C      1  0.5930350000000  0.4845360000000  0.5162500000000 1.0
C      1  0.4699560000000  0.4823880000000  0.4508390000000 1.0
C      1  0.5247820000000  0.4150080000000  0.5386030000000 1.0
C      1  0.4740820000000  0.4755900000000  0.5632410000000 1.0
C      1  0.5215340000000  0.4716960000000  0.5618160000000 1.0
C      1  0.5611310000000  0.4535630000000  0.5414300000000 1.0
C      1  0.4947100000000  0.5374320000000  0.5412770000000 1.0
C      1  0.5182090000000  0.5022550000000  0.4845560000000 1.0
C      1  0.5488670000000  0.4743530000000  0.5570390000000 1.0
C      1  0.5474970000000  0.4290340000000  0.5398270000000 1.0
C      1  0.5148070000000  0.5098280000000  0.4330960000000 1.0
C      1  0.4995700000000  0.4098760000000  0.5313180000000 1.0
C      1  0.5226490000000  0.6128920000000  0.4834950000000 1.0
C      1  0.5397360000000  0.5565300000000  0.5320630000000 1.0
C      1  0.5384960000000  0.5829160000000  0.5227630000000 1.0
C      1  0.4996060000000  0.4734070000000  0.5192700000000 1.0
C      1  0.5083150000000  0.4245280000000  0.4161900000000 1.0
C      1  0.4839990000000  0.4687370000000  0.4716990000000 1.0
C      1  0.4504310000000  0.4560700000000  0.5137530000000 1.0
C      1  0.5180280000000  0.4447140000000  0.4018430000000 1.0
C      1  0.4565070000000  0.5204310000000  0.5786750000000 1.0
C      1  0.5822970000000  0.4612430000000  0.5244860000000 1.0
C      1  0.4880090000000  0.5501060000000  0.4251240000000 1.0
C      1  0.4686550000000  0.5107630000000  0.4479110000000 1.0
C      1  0.5108400000000  0.6115700000000  0.4597340000000 1.0
C      1  0.4431590000000  0.4541380000000  0.4132630000000 1.0
END
