TITL C-627112-676-998 150137.818881295 125000 -1187.20160048789 0 0 197 (C1) n - 1
REM
REM in /home/nfs/bkarasulu/CARBON/AIRSS/Generating-Clusters/LCBOP/Only-C1/SD-CG/FIRE-CG
REM
REM
REM
REM
REM
REM ./C.cell (11c1c37f851c82e70ff6c80c92926a4b)
REM AIRSS Version 0.9.1 bugfix July 2018 build 013d7b7c2542+ Fri, 06 Jul 2018 19:26:36 +0100
REM compiler GCC version 9.2.1 20190827 (Red Hat 9.2.1-1)
REM options -cpp -mtune=generic -march=x86-64 -g -O0 -fpre-include=/usr/include/finclude/math-vector-fortran.h
REM seed -547415957 -670894996 1559238418 -986976891 -1143583145 1773123715 1715889802 -361911673 -743745205 -322975609 -1034715445 1168347581 -954420023 174686610 -1309009601 -358107965 400064244 1327242164 755227118 1783763336 -2085554205 1619593385 -15774335 -704439241 -1106922428 1743497293 -1868818292 254439585 809019235 1748517300 1279927566 231286278 -1355536568
REM
CELL 1.54180   50.00000   50.00000   50.00000   90.00000   90.00000   90.00000
LATT -1
SFAC C  
C      1  0.4587180000000  0.5094520000000  0.5413330000000 1.0
C      1  0.4691970000000  0.5802330000000  0.4309670000000 1.0
C      1  0.5961540000000  0.4398980000000  0.5685950000000 1.0
C      1  0.5658300000000  0.5940530000000  0.5495450000000 1.0
C      1  0.5203980000000  0.5607920000000  0.5103000000000 1.0
C      1  0.4985950000000  0.3642180000000  0.5980360000000 1.0
C      1  0.4293110000000  0.5931750000000  0.4955530000000 1.0
C      1  0.5102020000000  0.6038380000000  0.5597940000000 1.0
C      1  0.5537660000000  0.5260230000000  0.3763440000000 1.0
C      1  0.4196370000000  0.5494010000000  0.5645840000000 1.0
C      1  0.5337540000000  0.4633890000000  0.3889140000000 1.0
C      1  0.5603560000000  0.3968210000000  0.5623910000000 1.0
C      1  0.4427620000000  0.5004220000000  0.3921640000000 1.0
C      1  0.4864530000000  0.4451580000000  0.4764700000000 1.0
C      1  0.6016470000000  0.5245390000000  0.5887720000000 1.0
C      1  0.4872900000000  0.4427090000000  0.5254060000000 1.0
C      1  0.4866590000000  0.3816700000000  0.5827990000000 1.0
C      1  0.4899390000000  0.4967430000000  0.4813150000000 1.0
C      1  0.5608810000000  0.5320470000000  0.6114160000000 1.0
C      1  0.5522260000000  0.5522010000000  0.3874180000000 1.0
C      1  0.4779980000000  0.5678300000000  0.4540780000000 1.0
C      1  0.5582250000000  0.5031400000000  0.4563600000000 1.0
C      1  0.4850270000000  0.5367450000000  0.4517530000000 1.0
C      1  0.6044950000000  0.5625430000000  0.5306200000000 1.0
C      1  0.4266460000000  0.4217120000000  0.5734460000000 1.0
C      1  0.5622220000000  0.5784300000000  0.4731310000000 1.0
C      1  0.5548940000000  0.5420350000000  0.5480100000000 1.0
C      1  0.4921380000000  0.3492490000000  0.4530920000000 1.0
C      1  0.4825310000000  0.4482310000000  0.5526290000000 1.0
C      1  0.4900820000000  0.5266660000000  0.4805970000000 1.0
C      1  0.5300310000000  0.4429730000000  0.4123210000000 1.0
C      1  0.4817140000000  0.5428650000000  0.6130120000000 1.0
C      1  0.4775570000000  0.5495940000000  0.5702950000000 1.0
C      1  0.4596090000000  0.5197810000000  0.4441950000000 1.0
C      1  0.4975290000000  0.5933840000000  0.5848710000000 1.0
C      1  0.4113090000000  0.4614810000000  0.5569840000000 1.0
C      1  0.3853440000000  0.4421550000000  0.4595140000000 1.0
C      1  0.4640250000000  0.5343420000000  0.4915940000000 1.0
C      1  0.4916750000000  0.4713050000000  0.5659690000000 1.0
C      1  0.5326350000000  0.4903900000000  0.5956810000000 1.0
C      1  0.5710160000000  0.4672150000000  0.5326620000000 1.0
C      1  0.4976740000000  0.4882330000000  0.6301800000000 1.0
C      1  0.5471790000000  0.5588650000000  0.5249010000000 1.0
C      1  0.4730830000000  0.3661180000000  0.4429620000000 1.0
C      1  0.3849260000000  0.4455060000000  0.4307960000000 1.0
C      1  0.4588060000000  0.4917540000000  0.4393590000000 1.0
C      1  0.5159380000000  0.4976440000000  0.5357650000000 1.0
C      1  0.4770580000000  0.4553560000000  0.5021670000000 1.0
C      1  0.5416200000000  0.5514900000000  0.5725830000000 1.0
C      1  0.4194670000000  0.4164000000000  0.5453720000000 1.0
C      1  0.5608240000000  0.4772840000000  0.4645690000000 1.0
C      1  0.5895810000000  0.5762130000000  0.5105180000000 1.0
C      1  0.5451070000000  0.6489620000000  0.4998060000000 1.0
C      1  0.5895880000000  0.4302590000000  0.4958460000000 1.0
C      1  0.5852340000000  0.5443600000000  0.6006330000000 1.0
C      1  0.5556110000000  0.4474340000000  0.4297150000000 1.0
C      1  0.5252320000000  0.4735000000000  0.5342850000000 1.0
C      1  0.4685820000000  0.4882240000000  0.3844100000000 1.0
C      1  0.4390190000000  0.4992320000000  0.5578040000000 1.0
C      1  0.4026410000000  0.4395550000000  0.5398410000000 1.0
C      1  0.3863170000000  0.4865160000000  0.4803810000000 1.0
C      1  0.6145750000000  0.5023340000000  0.4790730000000 1.0
C      1  0.4863920000000  0.5032820000000  0.3397570000000 1.0
C      1  0.6020600000000  0.5368230000000  0.4446820000000 1.0
C      1  0.5788560000000  0.4835020000000  0.5833140000000 1.0
C      1  0.4699210000000  0.4383200000000  0.5972930000000 1.0
C      1  0.4693950000000  0.4824480000000  0.4963020000000 1.0
C      1  0.4781380000000  0.5065110000000  0.6177000000000 1.0
C      1  0.5349750000000  0.4329230000000  0.5145630000000 1.0
C      1  0.5880520000000  0.5072530000000  0.5716310000000 1.0
C      1  0.5450260000000  0.4561220000000  0.5265050000000 1.0
C      1  0.5259920000000  0.3951470000000  0.4900700000000 1.0
C      1  0.5035860000000  0.5740520000000  0.3901910000000 1.0
C      1  0.5888970000000  0.5691630000000  0.5869420000000 1.0
C      1  0.6264970000000  0.5220280000000  0.4979340000000 1.0
C      1  0.5676740000000  0.5045180000000  0.3878190000000 1.0
C      1  0.4524550000000  0.4354310000000  0.4041930000000 1.0
C      1  0.4393800000000  0.5080210000000  0.5848080000000 1.0
C      1  0.4933760000000  0.4099510000000  0.4366320000000 1.0
C      1  0.4192040000000  0.5418980000000  0.4988280000000 1.0
C      1  0.4368690000000  0.5217140000000  0.4858540000000 1.0
C      1  0.5382000000000  0.5171310000000  0.6009400000000 1.0
C      1  0.4354990000000  0.5293450000000  0.4568350000000 1.0
C      1  0.4755060000000  0.5551940000000  0.5287410000000 1.0
C      1  0.4663460000000  0.3910710000000  0.5401370000000 1.0
C      1  0.5400830000000  0.6050900000000  0.5584270000000 1.0
C      1  0.4132790000000  0.4380860000000  0.4671220000000 1.0
C      1  0.4993160000000  0.5704170000000  0.5296070000000 1.0
C      1  0.5076420000000  0.4834710000000  0.5836200000000 1.0
C      1  0.5079450000000  0.5256570000000  0.4366150000000 1.0
C      1  0.5431550000000  0.4494460000000  0.5801660000000 1.0
C      1  0.4432260000000  0.4940320000000  0.4951720000000 1.0
C      1  0.4747820000000  0.4277420000000  0.5707060000000 1.0
C      1  0.5083240000000  0.4240910000000  0.5204740000000 1.0
C      1  0.4832050000000  0.5822570000000  0.4849020000000 1.0
C      1  0.5879530000000  0.5121280000000  0.4071050000000 1.0
C      1  0.6050430000000  0.5078050000000  0.4517690000000 1.0
C      1  0.5661290000000  0.4293580000000  0.4786410000000 1.0
C      1  0.5400580000000  0.5220890000000  0.4917830000000 1.0
C      1  0.5035680000000  0.3980230000000  0.5081670000000 1.0
C      1  0.5108390000000  0.4570240000000  0.4682920000000 1.0
C      1  0.5733180000000  0.4014790000000  0.5383840000000 1.0
C      1  0.5588830000000  0.4779270000000  0.3930730000000 1.0
C      1  0.4820860000000  0.4716460000000  0.4036760000000 1.0
C      1  0.3977590000000  0.6161670000000  0.4658200000000 1.0
C      1  0.4153130000000  0.4875960000000  0.5477590000000 1.0
C      1  0.4798450000000  0.4434490000000  0.4047090000000 1.0
C      1  0.4894050000000  0.4291170000000  0.6155180000000 1.0
C      1  0.4464280000000  0.6061130000000  0.5165250000000 1.0
C      1  0.4624770000000  0.5605230000000  0.5032880000000 1.0
C      1  0.5222030000000  0.5689120000000  0.4560070000000 1.0
C      1  0.5570070000000  0.5057390000000  0.5064810000000 1.0
C      1  0.4225460000000  0.5772350000000  0.4479650000000 1.0
C      1  0.4893220000000  0.4890520000000  0.3634670000000 1.0
C      1  0.5883550000000  0.5729980000000  0.4823890000000 1.0
C      1  0.3655040000000  0.4483200000000  0.5036290000000 1.0
C      1  0.4333710000000  0.5659900000000  0.5024600000000 1.0
C      1  0.5088230000000  0.4846930000000  0.4637880000000 1.0
C      1  0.4289060000000  0.4149850000000  0.4654670000000 1.0
C      1  0.5499980000000  0.5286850000000  0.4659310000000 1.0
C      1  0.4424830000000  0.5887290000000  0.4312300000000 1.0
C      1  0.6094050000000  0.4493070000000  0.4892820000000 1.0
C      1  0.5201960000000  0.5869570000000  0.4355480000000 1.0
C      1  0.5056230000000  0.5706460000000  0.6025650000000 1.0
C      1  0.5287240000000  0.5670250000000  0.3846640000000 1.0
C      1  0.5425060000000  0.5972620000000  0.4858980000000 1.0
C      1  0.4056750000000  0.4868500000000  0.4580240000000 1.0
C      1  0.4552150000000  0.4910730000000  0.6028170000000 1.0
C      1  0.4989740000000  0.5331320000000  0.5702900000000 1.0
C      1  0.5381190000000  0.4277520000000  0.5980860000000 1.0
C      1  0.5030840000000  0.5184220000000  0.5244130000000 1.0
C      1  0.6537590000000  0.5260400000000  0.4937360000000 1.0
C      1  0.5893650000000  0.5789030000000  0.5604310000000 1.0
C      1  0.4756570000000  0.3999250000000  0.5647610000000 1.0
C      1  0.4954280000000  0.5987480000000  0.5344310000000 1.0
C      1  0.3791700000000  0.4399350000000  0.5249970000000 1.0
C      1  0.5890440000000  0.4465650000000  0.5416840000000 1.0
C      1  0.5604170000000  0.4491270000000  0.4582820000000 1.0
C      1  0.4350430000000  0.4012740000000  0.5279570000000 1.0
C      1  0.5244950000000  0.5298930000000  0.5793120000000 1.0
C      1  0.4260490000000  0.5765470000000  0.5567390000000 1.0
C      1  0.4731760000000  0.3937880000000  0.4506670000000 1.0
C      1  0.4138150000000  0.5359880000000  0.4168850000000 1.0
C      1  0.4611770000000  0.5484630000000  0.5933290000000 1.0
C      1  0.3868570000000  0.6395370000000  0.4597020000000 1.0
C      1  0.5481530000000  0.5562860000000  0.4597250000000 1.0
C      1  0.4197050000000  0.5484700000000  0.4424040000000 1.0
C      1  0.4526560000000  0.4005970000000  0.4710470000000 1.0
C      1  0.4360520000000  0.5366900000000  0.5863630000000 1.0
C      1  0.3993330000000  0.5068440000000  0.5332310000000 1.0
C      1  0.5031210000000  0.4835470000000  0.4170800000000 1.0
C      1  0.5533630000000  0.4737550000000  0.5878770000000 1.0
C      1  0.3799020000000  0.6637130000000  0.4528500000000 1.0
C      1  0.4551920000000  0.3935910000000  0.4981920000000 1.0
C      1  0.6035980000000  0.5574300000000  0.4641530000000 1.0
C      1  0.4785170000000  0.3873610000000  0.5136020000000 1.0
C      1  0.4539120000000  0.3571080000000  0.4255930000000 1.0
C      1  0.4196390000000  0.5084780000000  0.4097440000000 1.0
C      1  0.4758610000000  0.6056290000000  0.5123750000000 1.0
C      1  0.5603210000000  0.4099100000000  0.5888060000000 1.0
C      1  0.4061440000000  0.4890140000000  0.4272530000000 1.0
C      1  0.4365400000000  0.5975600000000  0.5427710000000 1.0
C      1  0.5928930000000  0.4906190000000  0.4278720000000 1.0
C      1  0.5904820000000  0.5387350000000  0.4182080000000 1.0
C      1  0.5162270000000  0.5801170000000  0.4850620000000 1.0
C      1  0.5735120000000  0.5577460000000  0.4057550000000 1.0
C      1  0.3893350000000  0.4998970000000  0.5064640000000 1.0
C      1  0.4673580000000  0.4457070000000  0.4561170000000 1.0
C      1  0.4025310000000  0.5329400000000  0.5469390000000 1.0
C      1  0.6161900000000  0.4749390000000  0.4861450000000 1.0
C      1  0.5704410000000  0.4963800000000  0.5290140000000 1.0
C      1  0.5026620000000  0.4298750000000  0.4173510000000 1.0
C      1  0.4479580000000  0.4640430000000  0.4437490000000 1.0
C      1  0.4841720000000  0.5186090000000  0.3187980000000 1.0
C      1  0.5139680000000  0.4742530000000  0.3703190000000 1.0
C      1  0.5861710000000  0.4241520000000  0.5887630000000 1.0
C      1  0.5344110000000  0.5692040000000  0.5949080000000 1.0
C      1  0.3730190000000  0.4599540000000  0.4791650000000 1.0
C      1  0.5135860000000  0.5324790000000  0.5001050000000 1.0
C      1  0.6157520000000  0.5380130000000  0.5201020000000 1.0
C      1  0.5641590000000  0.5817420000000  0.5233830000000 1.0
C      1  0.4157160000000  0.5952180000000  0.4702760000000 1.0
C      1  0.4779490000000  0.5273550000000  0.5328780000000 1.0
C      1  0.5133590000000  0.4651450000000  0.6299820000000 1.0
C      1  0.4062310000000  0.4606240000000  0.4182350000000 1.0
C      1  0.4270920000000  0.4507880000000  0.5800700000000 1.0
C      1  0.5443310000000  0.4173840000000  0.4917340000000 1.0
C      1  0.5725280000000  0.5168150000000  0.5492970000000 1.0
C      1  0.5120530000000  0.4977400000000  0.4387040000000 1.0
C      1  0.4830080000000  0.5789330000000  0.4064820000000 1.0
C      1  0.5445100000000  0.6240230000000  0.4922810000000 1.0
C      1  0.5735370000000  0.4682610000000  0.4173030000000 1.0
C      1  0.4500900000000  0.4606790000000  0.5971950000000 1.0
C      1  0.4339320000000  0.4511130000000  0.4190850000000 1.0
C      1  0.4248840000000  0.4644790000000  0.4630200000000 1.0
C      1  0.5168440000000  0.4378740000000  0.6177260000000 1.0
C      1  0.5867100000000  0.4230140000000  0.5242490000000 1.0
END
