TITL C-627110-360-1583 -2.04419353420929e-07 125000 -436.331477338177 0 0 72 (C1) n - 1
REM
REM in /home/nfs/bkarasulu/CARBON/AIRSS/Generating-Clusters/LCBOP/Only-C1/SD-CG/FIRE-CG
REM
REM
REM
REM
REM
REM ./C.cell (11c1c37f851c82e70ff6c80c92926a4b)
REM AIRSS Version 0.9.1 bugfix July 2018 build 013d7b7c2542+ Fri, 06 Jul 2018 19:26:36 +0100
REM compiler GCC version 9.2.1 20190827 (Red Hat 9.2.1-1)
REM options -cpp -mtune=generic -march=x86-64 -g -O0 -fpre-include=/usr/include/finclude/math-vector-fortran.h
REM seed 496683409 -1618157960 -360300254 -199088470 -2056742544 -1714704450 444686600 -1612054824 -633472603 -1254732914 1201706885 -427781089 1928742677 -1841233316 -1435290066 -1370728912 1539119624 1089265645 362656343 999276375 298027622 798440150 1642759120 805480540 -553911586 224096363 -1585836424 -597036998 1177429379 829714242 2064179180 -2010550840 -1530499500
REM
CELL 1.54180   50.00000   50.00000   50.00000   90.00000   90.00000   90.00000
LATT -1
SFAC C  
C      1  0.4702620000000  0.5953170000000  0.5666320000000 1.0
C      1  0.4964220000000  0.5855570000000  0.5632910000000 1.0
C      1  0.4745050000000  0.4320590000000  0.4457970000000 1.0
C      1  0.4577670000000  0.5440950000000  0.4885930000000 1.0
C      1  0.4593810000000  0.5359070000000  0.5137400000000 1.0
C      1  0.4150900000000  0.5020780000000  0.4933480000000 1.0
C      1  0.5368230000000  0.5440350000000  0.5190100000000 1.0
C      1  0.5823030000000  0.5029960000000  0.5459740000000 1.0
C      1  0.5342820000000  0.4129600000000  0.5054430000000 1.0
C      1  0.5160960000000  0.5433060000000  0.5376530000000 1.0
C      1  0.5267170000000  0.4349400000000  0.4911370000000 1.0
C      1  0.4173050000000  0.4282600000000  0.4844690000000 1.0
C      1  0.5788200000000  0.4658370000000  0.4939380000000 1.0
C      1  0.5770200000000  0.4546120000000  0.5181850000000 1.0
C      1  0.4208470000000  0.4901880000000  0.5168870000000 1.0
C      1  0.4766380000000  0.4793550000000  0.4298330000000 1.0
C      1  0.4703870000000  0.5273130000000  0.5380000000000 1.0
C      1  0.4798530000000  0.5694680000000  0.4540740000000 1.0
C      1  0.4712430000000  0.4832700000000  0.4843410000000 1.0
C      1  0.5066790000000  0.5654280000000  0.4467440000000 1.0
C      1  0.4603940000000  0.4085870000000  0.4917140000000 1.0
C      1  0.4502960000000  0.4670050000000  0.4815360000000 1.0
C      1  0.4720840000000  0.4165540000000  0.5162110000000 1.0
C      1  0.4652310000000  0.5461150000000  0.4616190000000 1.0
C      1  0.4473310000000  0.4820640000000  0.4316170000000 1.0
C      1  0.5012930000000  0.4458520000000  0.5428780000000 1.0
C      1  0.4522330000000  0.5778290000000  0.5793640000000 1.0
C      1  0.5173980000000  0.4512200000000  0.4417500000000 1.0
C      1  0.4894750000000  0.4542880000000  0.4359530000000 1.0
C      1  0.5231580000000  0.5425810000000  0.4458370000000 1.0
C      1  0.4853930000000  0.5075110000000  0.4342730000000 1.0
C      1  0.5697950000000  0.4845960000000  0.4749770000000 1.0
C      1  0.5607130000000  0.5340860000000  0.5086080000000 1.0
C      1  0.5694070000000  0.4561310000000  0.5453580000000 1.0
C      1  0.4203610000000  0.5069690000000  0.4673150000000 1.0
C      1  0.6068770000000  0.5141680000000  0.4624680000000 1.0
C      1  0.4320270000000  0.4066250000000  0.4914030000000 1.0
C      1  0.4750130000000  0.4371970000000  0.5354970000000 1.0
C      1  0.5776230000000  0.5211540000000  0.5270510000000 1.0
C      1  0.4715610000000  0.4149880000000  0.4664390000000 1.0
C      1  0.5235320000000  0.4329890000000  0.4629580000000 1.0
C      1  0.4982140000000  0.5209770000000  0.5383890000000 1.0
C      1  0.5106570000000  0.5198930000000  0.4342980000000 1.0
C      1  0.5106520000000  0.4679370000000  0.5274980000000 1.0
C      1  0.4571060000000  0.6265110000000  0.5264250000000 1.0
C      1  0.4558610000000  0.5314100000000  0.5616510000000 1.0
C      1  0.5217690000000  0.4823470000000  0.4835120000000 1.0
C      1  0.5465400000000  0.5415820000000  0.4613350000000 1.0
C      1  0.5222050000000  0.4610510000000  0.5024330000000 1.0
C      1  0.4346550000000  0.4733440000000  0.5327650000000 1.0
C      1  0.5224690000000  0.4344630000000  0.5577600000000 1.0
C      1  0.5817710000000  0.5101640000000  0.4722030000000 1.0
C      1  0.5114290000000  0.5657630000000  0.5537440000000 1.0
C      1  0.4619680000000  0.6142060000000  0.4761920000000 1.0
C      1  0.5489170000000  0.4786780000000  0.4158500000000 1.0
C      1  0.5939170000000  0.4737290000000  0.6115410000000 1.0
C      1  0.4475810000000  0.5514870000000  0.5773050000000 1.0
C      1  0.4529580000000  0.4548070000000  0.5395040000000 1.0
C      1  0.4697190000000  0.5948740000000  0.4596710000000 1.0
C      1  0.5433110000000  0.4824980000000  0.4647700000000 1.0
C      1  0.5797220000000  0.4786100000000  0.5597460000000 1.0
C      1  0.5872450000000  0.4762960000000  0.5864790000000 1.0
C      1  0.4626590000000  0.5230410000000  0.4452630000000 1.0
C      1  0.5369120000000  0.4716600000000  0.4392060000000 1.0
C      1  0.4959980000000  0.4931050000000  0.4813350000000 1.0
C      1  0.4279010000000  0.4524320000000  0.4793550000000 1.0
C      1  0.5645300000000  0.5313930000000  0.4804620000000 1.0
C      1  0.4387740000000  0.5059800000000  0.4459760000000 1.0
C      1  0.4574320000000  0.6254420000000  0.4998560000000 1.0
C      1  0.5489830000000  0.4399500000000  0.5564860000000 1.0
C      1  0.4614280000000  0.6164960000000  0.5506940000000 1.0
C      1  0.5070840000000  0.4943870000000  0.5363770000000 1.0
END
