TITL C-627110-360-834 -4.96737055670673e-07 125000 -879.972739671045 0 0 146 (C1) n - 1
REM
REM in /home/nfs/bkarasulu/CARBON/AIRSS/Generating-Clusters/LCBOP/Only-C1/SD-CG/FIRE-CG
REM
REM
REM
REM
REM
REM ./C.cell (11c1c37f851c82e70ff6c80c92926a4b)
REM AIRSS Version 0.9.1 bugfix July 2018 build 013d7b7c2542+ Fri, 06 Jul 2018 19:26:36 +0100
REM compiler GCC version 9.2.1 20190827 (Red Hat 9.2.1-1)
REM options -cpp -mtune=generic -march=x86-64 -g -O0 -fpre-include=/usr/include/finclude/math-vector-fortran.h
REM seed -954447811 1497605163 1988997046 444980599 982656354 -377683035 1588347223 -973436703 -529729646 -1279768619 -39230223 -1364720982 927267002 -1852576678 -1708415246 856865273 -943739709 -769140927 -1138754620 810135824 -222245740 -323190998 1141519976 98890489 -618177202 341026793 72292161 -3665923 655282535 1155814643 -891745809 -809812183 1552422167
REM
CELL 1.54180   50.00000   50.00000   50.00000   90.00000   90.00000   90.00000
LATT -1
SFAC C  
C      1  0.5377430000000  0.5217790000000  0.6198920000000 1.0
C      1  0.4317410000000  0.5303380000000  0.4960830000000 1.0
C      1  0.4470300000000  0.4749290000000  0.4816030000000 1.0
C      1  0.5407180000000  0.5271480000000  0.4156170000000 1.0
C      1  0.4563020000000  0.6071180000000  0.5628090000000 1.0
C      1  0.5111810000000  0.5318670000000  0.6179040000000 1.0
C      1  0.5427520000000  0.5202880000000  0.4970740000000 1.0
C      1  0.4537750000000  0.4896060000000  0.6620710000000 1.0
C      1  0.5079480000000  0.5601390000000  0.4311620000000 1.0
C      1  0.5120300000000  0.5873300000000  0.4238970000000 1.0
C      1  0.5239950000000  0.3917130000000  0.4703480000000 1.0
C      1  0.5118240000000  0.4869240000000  0.4005210000000 1.0
C      1  0.5750530000000  0.4836600000000  0.4390610000000 1.0
C      1  0.4814160000000  0.5118810000000  0.4606330000000 1.0
C      1  0.4962980000000  0.5531340000000  0.5112750000000 1.0
C      1  0.5336840000000  0.5443560000000  0.3913030000000 1.0
C      1  0.5519520000000  0.5211450000000  0.5939650000000 1.0
C      1  0.4590030000000  0.4594540000000  0.4144080000000 1.0
C      1  0.5348400000000  0.4833850000000  0.5466610000000 1.0
C      1  0.4986940000000  0.6063970000000  0.4615600000000 1.0
C      1  0.5883620000000  0.4578140000000  0.4850480000000 1.0
C      1  0.4893930000000  0.5003290000000  0.3908250000000 1.0
C      1  0.4335960000000  0.4704830000000  0.4566500000000 1.0
C      1  0.5743840000000  0.4577920000000  0.6240520000000 1.0
C      1  0.3771960000000  0.4550960000000  0.4200970000000 1.0
C      1  0.5822210000000  0.5114940000000  0.4427460000000 1.0
C      1  0.4660960000000  0.4547020000000  0.4884330000000 1.0
C      1  0.5095450000000  0.4601360000000  0.4112990000000 1.0
C      1  0.4433290000000  0.5556410000000  0.4534880000000 1.0
C      1  0.4739170000000  0.5137030000000  0.4881220000000 1.0
C      1  0.5134610000000  0.5429030000000  0.5305060000000 1.0
C      1  0.4733630000000  0.3947290000000  0.5248760000000 1.0
C      1  0.4003550000000  0.5667210000000  0.5402020000000 1.0
C      1  0.4960890000000  0.5791340000000  0.5006580000000 1.0
C      1  0.5457040000000  0.5112530000000  0.5456490000000 1.0
C      1  0.6089380000000  0.5162470000000  0.5201290000000 1.0
C      1  0.6016950000000  0.5423840000000  0.4796270000000 1.0
C      1  0.5414150000000  0.4605340000000  0.4971960000000 1.0
C      1  0.5130450000000  0.4805600000000  0.6312440000000 1.0
C      1  0.4495750000000  0.5477310000000  0.5125820000000 1.0
C      1  0.5440990000000  0.5898480000000  0.4813080000000 1.0
C      1  0.4947340000000  0.5134500000000  0.6028390000000 1.0
C      1  0.4831120000000  0.5881820000000  0.4773920000000 1.0
C      1  0.6055860000000  0.4881960000000  0.5247320000000 1.0
C      1  0.5130980000000  0.4318330000000  0.5916440000000 1.0
C      1  0.3953610000000  0.4188520000000  0.4466000000000 1.0
C      1  0.4752420000000  0.5373260000000  0.5044630000000 1.0
C      1  0.5700670000000  0.5290490000000  0.5435430000000 1.0
C      1  0.5388570000000  0.4931630000000  0.6286050000000 1.0
C      1  0.4831440000000  0.4551120000000  0.5106300000000 1.0
C      1  0.5116090000000  0.4554420000000  0.5796840000000 1.0
C      1  0.4734140000000  0.5931510000000  0.5450800000000 1.0
C      1  0.4407250000000  0.4534120000000  0.3933050000000 1.0
C      1  0.5228820000000  0.4910790000000  0.4597750000000 1.0
C      1  0.4598950000000  0.4052770000000  0.4793860000000 1.0
C      1  0.5559870000000  0.5752340000000  0.5301600000000 1.0
C      1  0.6007120000000  0.5184320000000  0.4635180000000 1.0
C      1  0.3634690000000  0.4642700000000  0.3999340000000 1.0
C      1  0.4647190000000  0.5006730000000  0.4410110000000 1.0
C      1  0.5396340000000  0.5415640000000  0.4800450000000 1.0
C      1  0.5619520000000  0.5854350000000  0.4295790000000 1.0
C      1  0.5976030000000  0.5406450000000  0.5082970000000 1.0
C      1  0.5109280000000  0.5562410000000  0.3822140000000 1.0
C      1  0.5396980000000  0.4285190000000  0.4357930000000 1.0
C      1  0.5664350000000  0.5339530000000  0.4319520000000 1.0
C      1  0.4524700000000  0.3961700000000  0.5050310000000 1.0
C      1  0.5760010000000  0.5522070000000  0.5261940000000 1.0
C      1  0.4115250000000  0.4545340000000  0.5227640000000 1.0
C      1  0.5344280000000  0.4076800000000  0.4516460000000 1.0
C      1  0.5377640000000  0.4978070000000  0.4086400000000 1.0
C      1  0.4468000000000  0.4561650000000  0.5596850000000 1.0
C      1  0.5082620000000  0.5137470000000  0.4526190000000 1.0
C      1  0.4266560000000  0.4043420000000  0.5136150000000 1.0
C      1  0.5321520000000  0.5247330000000  0.5707540000000 1.0
C      1  0.5441900000000  0.4189350000000  0.5321030000000 1.0
C      1  0.5003410000000  0.4413470000000  0.5257930000000 1.0
C      1  0.5221760000000  0.5968340000000  0.5611880000000 1.0
C      1  0.4598850000000  0.5752150000000  0.4667840000000 1.0
C      1  0.5083190000000  0.5060630000000  0.5784950000000 1.0
C      1  0.5677190000000  0.4339180000000  0.5252820000000 1.0
C      1  0.4060640000000  0.4648560000000  0.4579080000000 1.0
C      1  0.4324450000000  0.4682040000000  0.5376720000000 1.0
C      1  0.5292170000000  0.4697130000000  0.4741370000000 1.0
C      1  0.5289770000000  0.6053720000000  0.4623360000000 1.0
C      1  0.4491030000000  0.4575690000000  0.6281670000000 1.0
C      1  0.5147680000000  0.4087580000000  0.6036450000000 1.0
C      1  0.5175880000000  0.5339160000000  0.4348440000000 1.0
C      1  0.5302190000000  0.5217470000000  0.5218330000000 1.0
C      1  0.4491500000000  0.5697080000000  0.5308230000000 1.0
C      1  0.4499910000000  0.5507800000000  0.4256340000000 1.0
C      1  0.3993110000000  0.5283750000000  0.4619640000000 1.0
C      1  0.5013910000000  0.3952090000000  0.5172650000000 1.0
C      1  0.3949470000000  0.4692700000000  0.5047210000000 1.0
C      1  0.4658170000000  0.4307870000000  0.4733320000000 1.0
C      1  0.5125480000000  0.5962360000000  0.5159600000000 1.0
C      1  0.4725670000000  0.6190960000000  0.4196510000000 1.0
C      1  0.5159020000000  0.4801520000000  0.5678190000000 1.0
C      1  0.4128220000000  0.4264090000000  0.5201520000000 1.0
C      1  0.4847860000000  0.4464180000000  0.4141650000000 1.0
C      1  0.5836000000000  0.4486910000000  0.5438530000000 1.0
C      1  0.5236200000000  0.5501630000000  0.5569750000000 1.0
C      1  0.4850900000000  0.4189410000000  0.4155970000000 1.0
C      1  0.4686850000000  0.5169830000000  0.3944890000000 1.0
C      1  0.4467640000000  0.5018460000000  0.4967290000000 1.0
C      1  0.4302060000000  0.5990230000000  0.5623800000000 1.0
C      1  0.4724650000000  0.5023200000000  0.6469900000000 1.0
C      1  0.4421400000000  0.4919830000000  0.5252730000000 1.0
C      1  0.5849320000000  0.4347310000000  0.6300480000000 1.0
C      1  0.6070150000000  0.4714130000000  0.5016130000000 1.0
C      1  0.4846350000000  0.5601250000000  0.3884120000000 1.0
C      1  0.5620950000000  0.4812900000000  0.6160700000000 1.0
C      1  0.4917200000000  0.6057340000000  0.4332050000000 1.0
C      1  0.5116890000000  0.3849150000000  0.4931490000000 1.0
C      1  0.5660920000000  0.4464550000000  0.4991060000000 1.0
C      1  0.5509210000000  0.5644940000000  0.4701790000000 1.0
C      1  0.3928660000000  0.4461840000000  0.4414320000000 1.0
C      1  0.4564530000000  0.4706330000000  0.5819980000000 1.0
C      1  0.5160050000000  0.4178170000000  0.5276290000000 1.0
C      1  0.5408690000000  0.5912220000000  0.5097200000000 1.0
C      1  0.4325550000000  0.4731590000000  0.3761730000000 1.0
C      1  0.4313060000000  0.4278320000000  0.3904170000000 1.0
C      1  0.5937040000000  0.4753660000000  0.5481820000000 1.0
C      1  0.5391340000000  0.5742850000000  0.5554910000000 1.0
C      1  0.4248940000000  0.5777110000000  0.5441950000000 1.0
C      1  0.4541430000000  0.4288060000000  0.5589190000000 1.0
C      1  0.5012770000000  0.6002400000000  0.5419830000000 1.0
C      1  0.5962390000000  0.5639140000000  0.4615130000000 1.0
C      1  0.4240310000000  0.5398550000000  0.4696510000000 1.0
C      1  0.3864630000000  0.5063100000000  0.4710450000000 1.0
C      1  0.4505520000000  0.4771730000000  0.4350220000000 1.0
C      1  0.3977600000000  0.3931880000000  0.4504330000000 1.0
C      1  0.5701580000000  0.5619700000000  0.4462320000000 1.0
C      1  0.5870270000000  0.4885990000000  0.5724590000000 1.0
C      1  0.5371750000000  0.5983080000000  0.4342170000000 1.0
C      1  0.5531960000000  0.4767270000000  0.4220600000000 1.0
C      1  0.4657760000000  0.4065020000000  0.5496060000000 1.0
C      1  0.5856460000000  0.4650160000000  0.4577670000000 1.0
C      1  0.4648940000000  0.4718410000000  0.6089090000000 1.0
C      1  0.5356360000000  0.4529220000000  0.4227300000000 1.0
C      1  0.4851320000000  0.4912680000000  0.6212950000000 1.0
C      1  0.5702790000000  0.4977690000000  0.5932630000000 1.0
C      1  0.5331490000000  0.4706550000000  0.5220300000000 1.0
C      1  0.4426020000000  0.4665560000000  0.6529760000000 1.0
C      1  0.5629560000000  0.5028640000000  0.4927030000000 1.0
C      1  0.4652910000000  0.5440480000000  0.4021450000000 1.0
C      1  0.3922400000000  0.4795690000000  0.4783550000000 1.0
END
