TITL C-627113-6568-362 0.00763058541755185 125000 -715.874626586872 0 0 117 (C1) n - 1
REM
REM in /home/nfs/bkarasulu/CARBON/AIRSS/Generating-Clusters/LCBOP/Only-C1/SD-CG/FIRE-CG
REM
REM
REM
REM
REM
REM ./C.cell (11c1c37f851c82e70ff6c80c92926a4b)
REM AIRSS Version 0.9.1 bugfix July 2018 build 013d7b7c2542+ Fri, 06 Jul 2018 19:26:36 +0100
REM compiler GCC version 9.2.1 20190827 (Red Hat 9.2.1-1)
REM options -cpp -mtune=generic -march=x86-64 -g -O0 -fpre-include=/usr/include/finclude/math-vector-fortran.h
REM seed -1242376392 -330866858 686111900 218937842 -174130311 -1430991480 -1927221776 -241514979 629115956 1533751143 -89480588 -72502477 1680176403 767853848 152126725 -959327882 -715013219 -375391066 -425975398 1719908836 -20109990 287424903 672967010 -160729060 590194594 1876130478 1840984823 346322311 1662466482 319092901 -1053506529 -1881656557 -1274047706
REM
CELL 1.54180   50.00000   50.00000   50.00000   90.00000   90.00000   90.00000
LATT -1
SFAC C  
C      1  0.4566890000000  0.4838730000000  0.6114260000000 1.0
C      1  0.5609530000000  0.5882470000000  0.5639550000000 1.0
C      1  0.5260490000000  0.4524260000000  0.5426770000000 1.0
C      1  0.4896870000000  0.4538210000000  0.4733310000000 1.0
C      1  0.5031350000000  0.5678360000000  0.3859500000000 1.0
C      1  0.5685960000000  0.5675920000000  0.5492460000000 1.0
C      1  0.3802640000000  0.5123110000000  0.4804810000000 1.0
C      1  0.4305170000000  0.5558280000000  0.4719110000000 1.0
C      1  0.5973670000000  0.5272760000000  0.5445020000000 1.0
C      1  0.4726720000000  0.5214390000000  0.3957950000000 1.0
C      1  0.5456310000000  0.6275960000000  0.5952760000000 1.0
C      1  0.5158490000000  0.4060950000000  0.5117240000000 1.0
C      1  0.5550100000000  0.5301680000000  0.4271270000000 1.0
C      1  0.5111210000000  0.4935830000000  0.3992950000000 1.0
C      1  0.4864150000000  0.4583380000000  0.4158990000000 1.0
C      1  0.5678050000000  0.4676800000000  0.5707270000000 1.0
C      1  0.5488790000000  0.5094320000000  0.5161970000000 1.0
C      1  0.4620420000000  0.4597730000000  0.4753550000000 1.0
C      1  0.4322450000000  0.5241290000000  0.5120860000000 1.0
C      1  0.5887530000000  0.4973590000000  0.4635540000000 1.0
C      1  0.4404870000000  0.4423130000000  0.4679730000000 1.0
C      1  0.6166280000000  0.5233700000000  0.5239680000000 1.0
C      1  0.5638640000000  0.4621810000000  0.4387900000000 1.0
C      1  0.4352010000000  0.5894720000000  0.5321780000000 1.0
C      1  0.5506000000000  0.5160180000000  0.6460420000000 1.0
C      1  0.5430650000000  0.5795270000000  0.4717220000000 1.0
C      1  0.5420800000000  0.4919350000000  0.6376870000000 1.0
C      1  0.5420010000000  0.4149990000000  0.5052520000000 1.0
C      1  0.4024090000000  0.4730130000000  0.4593650000000 1.0
C      1  0.5353430000000  0.4276040000000  0.5998970000000 1.0
C      1  0.4850120000000  0.5223120000000  0.4608490000000 1.0
C      1  0.5770550000000  0.5099450000000  0.5896080000000 1.0
C      1  0.5519220000000  0.5529100000000  0.4691240000000 1.0
C      1  0.4620100000000  0.4665960000000  0.5356430000000 1.0
C      1  0.4865180000000  0.4813010000000  0.5344530000000 1.0
C      1  0.5024550000000  0.5200230000000  0.3928060000000 1.0
C      1  0.4771840000000  0.5602710000000  0.5207490000000 1.0
C      1  0.3869380000000  0.5752000000000  0.5234900000000 1.0
C      1  0.5682640000000  0.4598610000000  0.5074290000000 1.0
C      1  0.5383310000000  0.5381920000000  0.4485700000000 1.0
C      1  0.4301200000000  0.4626140000000  0.4218880000000 1.0
C      1  0.5018640000000  0.4280140000000  0.4699640000000 1.0
C      1  0.4584850000000  0.4384650000000  0.5287300000000 1.0
C      1  0.4944450000000  0.4143840000000  0.4946050000000 1.0
C      1  0.4880580000000  0.4760870000000  0.3934120000000 1.0
C      1  0.4217710000000  0.4176170000000  0.5080340000000 1.0
C      1  0.4281230000000  0.4977420000000  0.5202120000000 1.0
C      1  0.4305120000000  0.4852750000000  0.5674880000000 1.0
C      1  0.5665490000000  0.5079370000000  0.4167580000000 1.0
C      1  0.4313210000000  0.4275600000000  0.5321190000000 1.0
C      1  0.4788420000000  0.5606550000000  0.4918800000000 1.0
C      1  0.4680040000000  0.4221290000000  0.5043790000000 1.0
C      1  0.5439140000000  0.4762680000000  0.6143320000000 1.0
C      1  0.5214380000000  0.5054670000000  0.5127950000000 1.0
C      1  0.5927490000000  0.5081870000000  0.5648660000000 1.0
C      1  0.3754880000000  0.5531160000000  0.5134640000000 1.0
C      1  0.4973900000000  0.5098590000000  0.5297470000000 1.0
C      1  0.4737340000000  0.5769560000000  0.4676930000000 1.0
C      1  0.4384280000000  0.4818000000000  0.5408880000000 1.0
C      1  0.5661480000000  0.5336410000000  0.6328460000000 1.0
C      1  0.4707970000000  0.5344100000000  0.4822930000000 1.0
C      1  0.4511900000000  0.5663060000000  0.5317440000000 1.0
C      1  0.5904990000000  0.4799880000000  0.5580580000000 1.0
C      1  0.5020370000000  0.4359280000000  0.4227140000000 1.0
C      1  0.5215620000000  0.5943300000000  0.4653460000000 1.0
C      1  0.4415900000000  0.5337480000000  0.4869700000000 1.0
C      1  0.4796530000000  0.4721240000000  0.6180030000000 1.0
C      1  0.5480940000000  0.4532080000000  0.5575890000000 1.0
C      1  0.5616710000000  0.4848020000000  0.5936060000000 1.0
C      1  0.5155310000000  0.5437000000000  0.3850110000000 1.0
C      1  0.4459490000000  0.5509690000000  0.4276380000000 1.0
C      1  0.5182950000000  0.4294220000000  0.4456770000000 1.0
C      1  0.4903580000000  0.4280460000000  0.5983380000000 1.0
C      1  0.5105370000000  0.5318960000000  0.4520340000000 1.0
C      1  0.5532210000000  0.6081410000000  0.5796700000000 1.0
C      1  0.4062180000000  0.5680100000000  0.4730530000000 1.0
C      1  0.5646040000000  0.4857120000000  0.5135240000000 1.0
C      1  0.4716730000000  0.4989640000000  0.4525680000000 1.0
C      1  0.4768620000000  0.4769380000000  0.4355070000000 1.0
C      1  0.3736430000000  0.5309110000000  0.4985740000000 1.0
C      1  0.5921240000000  0.5211330000000  0.4787900000000 1.0
C      1  0.4224320000000  0.4554970000000  0.4488770000000 1.0
C      1  0.5456000000000  0.4400160000000  0.4445790000000 1.0
C      1  0.5263690000000  0.4861930000000  0.4226230000000 1.0
C      1  0.5617640000000  0.5342560000000  0.5132650000000 1.0
C      1  0.4632760000000  0.4933450000000  0.3927960000000 1.0
C      1  0.5087340000000  0.4645870000000  0.5246550000000 1.0
C      1  0.5123870000000  0.3985010000000  0.5642490000000 1.0
C      1  0.4950940000000  0.5937360000000  0.4606180000000 1.0
C      1  0.5755710000000  0.5441620000000  0.5361240000000 1.0
C      1  0.4563430000000  0.4870640000000  0.4734660000000 1.0
C      1  0.6140390000000  0.5220430000000  0.4970580000000 1.0
C      1  0.4083050000000  0.5904500000000  0.5292730000000 1.0
C      1  0.5544470000000  0.4826630000000  0.4207150000000 1.0
C      1  0.4982580000000  0.4526760000000  0.6114020000000 1.0
C      1  0.4896870000000  0.5370030000000  0.5328190000000 1.0
C      1  0.4776480000000  0.5696310000000  0.3951620000000 1.0
C      1  0.4378660000000  0.4875310000000  0.5929640000000 1.0
C      1  0.5129770000000  0.4132990000000  0.5877800000000 1.0
C      1  0.5700110000000  0.5388120000000  0.4860750000000 1.0
C      1  0.5093790000000  0.4742650000000  0.4748650000000 1.0
C      1  0.4353210000000  0.5426960000000  0.5332030000000 1.0
C      1  0.5864700000000  0.4703120000000  0.4545900000000 1.0
C      1  0.4632900000000  0.5472750000000  0.4054950000000 1.0
C      1  0.4420230000000  0.4207290000000  0.4873040000000 1.0
C      1  0.4504890000000  0.5658950000000  0.4526790000000 1.0
C      1  0.4227160000000  0.5342900000000  0.4279910000000 1.0
C      1  0.4400990000000  0.4798790000000  0.4032130000000 1.0
C      1  0.6065980000000  0.4524740000000  0.4598190000000 1.0
C      1  0.5115600000000  0.3960500000000  0.5376560000000 1.0
C      1  0.5184400000000  0.4846850000000  0.4502160000000 1.0
C      1  0.4055990000000  0.5171620000000  0.4393700000000 1.0
C      1  0.5770350000000  0.5306110000000  0.6084330000000 1.0
C      1  0.3949480000000  0.5003830000000  0.4595630000000 1.0
C      1  0.5168830000000  0.4795130000000  0.5010060000000 1.0
C      1  0.5602540000000  0.4345430000000  0.5039780000000 1.0
C      1  0.5275470000000  0.4534630000000  0.6112060000000 1.0
END
