TITL C-627107-135-1384 0.526190030357556 125000 -556.407293403272 0 0 92 (C1) n - 1
REM
REM in /home/nfs/bkarasulu/CARBON/AIRSS/Generating-Clusters/LCBOP/Only-C1/SD-CG/FIRE-CG
REM
REM
REM
REM
REM
REM ./C.cell (11c1c37f851c82e70ff6c80c92926a4b)
REM AIRSS Version 0.9.1 bugfix July 2018 build 013d7b7c2542+ Fri, 06 Jul 2018 19:26:36 +0100
REM compiler GCC version 9.2.1 20190827 (Red Hat 9.2.1-1)
REM options -cpp -mtune=generic -march=x86-64 -g -O0 -fpre-include=/usr/include/finclude/math-vector-fortran.h
REM seed 1484171162 -1927488834 145424926 915231136 -1086231032 -1244168727 162182127 -557518371 -674798447 -1028427 -1996370158 -429217312 1651195336 -1858082132 -1226293540 -529417579 -2067376922 -807279664 447301253 -1156050330 1229513761 -1497894797 581243885 1632460562 196225512 738020424 221976636 1834822836 807662888 882929405 1509670246 -547054877 -697530752
REM
CELL 1.54180   50.00000   50.00000   50.00000   90.00000   90.00000   90.00000
LATT -1
SFAC C  
C      1  0.4016890000000  0.4536550000000  0.4694050000000 1.0
C      1  0.4801190000000  0.4977230000000  0.4845640000000 1.0
C      1  0.4178650000000  0.4751080000000  0.4253320000000 1.0
C      1  0.5346640000000  0.5108470000000  0.5249050000000 1.0
C      1  0.4584390000000  0.5703160000000  0.4665510000000 1.0
C      1  0.4387890000000  0.5569110000000  0.4829750000000 1.0
C      1  0.5752200000000  0.5483230000000  0.5092530000000 1.0
C      1  0.4650560000000  0.5206420000000  0.5227250000000 1.0
C      1  0.5669860000000  0.4762730000000  0.4852000000000 1.0
C      1  0.5095770000000  0.5635610000000  0.5555300000000 1.0
C      1  0.5400450000000  0.4770440000000  0.5978880000000 1.0
C      1  0.5155250000000  0.4875900000000  0.5253600000000 1.0
C      1  0.5679400000000  0.4562260000000  0.5537610000000 1.0
C      1  0.4624460000000  0.4558740000000  0.5637420000000 1.0
C      1  0.5157280000000  0.5454170000000  0.4110010000000 1.0
C      1  0.4328390000000  0.5002650000000  0.5606960000000 1.0
C      1  0.3987870000000  0.4462470000000  0.4952840000000 1.0
C      1  0.5899220000000  0.4701700000000  0.5471170000000 1.0
C      1  0.5200970000000  0.5268200000000  0.4819090000000 1.0
C      1  0.4332710000000  0.4889030000000  0.4680350000000 1.0
C      1  0.4936150000000  0.4906280000000  0.5454690000000 1.0
C      1  0.4978940000000  0.5391130000000  0.4950940000000 1.0
C      1  0.5682320000000  0.5791880000000  0.3602850000000 1.0
C      1  0.5376780000000  0.4039520000000  0.5098810000000 1.0
C      1  0.4974980000000  0.4804980000000  0.5014990000000 1.0
C      1  0.4848360000000  0.5807590000000  0.4729050000000 1.0
C      1  0.4043610000000  0.4477440000000  0.5216530000000 1.0
C      1  0.4763970000000  0.5224310000000  0.4973530000000 1.0
C      1  0.5509960000000  0.5680320000000  0.3763500000000 1.0
C      1  0.5414470000000  0.4648350000000  0.4927800000000 1.0
C      1  0.5308480000000  0.5675140000000  0.4550360000000 1.0
C      1  0.4215880000000  0.5379140000000  0.4926490000000 1.0
C      1  0.4489620000000  0.4742210000000  0.5082860000000 1.0
C      1  0.4486840000000  0.5174700000000  0.5784090000000 1.0
C      1  0.5028510000000  0.4686030000000  0.4570880000000 1.0
C      1  0.4683420000000  0.4935960000000  0.5318760000000 1.0
C      1  0.4944590000000  0.4227880000000  0.4632700000000 1.0
C      1  0.5120000000000  0.3922480000000  0.5127670000000 1.0
C      1  0.4514990000000  0.5541180000000  0.4172410000000 1.0
C      1  0.5175540000000  0.4712420000000  0.5820810000000 1.0
C      1  0.5348240000000  0.4647210000000  0.5209830000000 1.0
C      1  0.4169310000000  0.4561200000000  0.5440120000000 1.0
C      1  0.5576100000000  0.5670210000000  0.4658630000000 1.0
C      1  0.4643600000000  0.4538050000000  0.4910520000000 1.0
C      1  0.5335450000000  0.5567490000000  0.3927820000000 1.0
C      1  0.4486770000000  0.5087530000000  0.4004040000000 1.0
C      1  0.5450280000000  0.4141620000000  0.4839130000000 1.0
C      1  0.5515550000000  0.5228940000000  0.5451220000000 1.0
C      1  0.4608690000000  0.4939670000000  0.4633320000000 1.0
C      1  0.4233770000000  0.5166440000000  0.5370960000000 1.0
C      1  0.4450840000000  0.5367330000000  0.5348100000000 1.0
C      1  0.4174600000000  0.5133580000000  0.5084370000000 1.0
C      1  0.5409000000000  0.4457480000000  0.5443080000000 1.0
C      1  0.4429280000000  0.5632780000000  0.5398690000000 1.0
C      1  0.5174120000000  0.5212350000000  0.4539540000000 1.0
C      1  0.4906740000000  0.4061170000000  0.5218980000000 1.0
C      1  0.5708830000000  0.4267780000000  0.4792140000000 1.0
C      1  0.5576030000000  0.4965220000000  0.5915390000000 1.0
C      1  0.5591480000000  0.5673930000000  0.4946130000000 1.0
C      1  0.4951480000000  0.5601880000000  0.5128700000000 1.0
C      1  0.4948450000000  0.5444270000000  0.5723480000000 1.0
C      1  0.4789630000000  0.4488050000000  0.4641750000000 1.0
C      1  0.5034170000000  0.4939940000000  0.5719360000000 1.0
C      1  0.4314740000000  0.4894450000000  0.4071980000000 1.0
C      1  0.5455330000000  0.4183200000000  0.5330760000000 1.0
C      1  0.5163090000000  0.5714400000000  0.5278550000000 1.0
C      1  0.5254420000000  0.4553090000000  0.4711000000000 1.0
C      1  0.4282220000000  0.4899650000000  0.4962300000000 1.0
C      1  0.5408090000000  0.5155850000000  0.4970060000000 1.0
C      1  0.4879230000000  0.4433210000000  0.5548930000000 1.0
C      1  0.4915680000000  0.5339540000000  0.4020680000000 1.0
C      1  0.4876020000000  0.4334050000000  0.5280520000000 1.0
C      1  0.5667850000000  0.5452050000000  0.5362840000000 1.0
C      1  0.5666000000000  0.5050910000000  0.4886460000000 1.0
C      1  0.4369810000000  0.4705620000000  0.5587840000000 1.0
C      1  0.5817200000000  0.4522920000000  0.4783700000000 1.0
C      1  0.5157690000000  0.4488500000000  0.5641460000000 1.0
C      1  0.6040020000000  0.4886870000000  0.5337300000000 1.0
C      1  0.5217390000000  0.5451570000000  0.4386870000000 1.0
C      1  0.5229880000000  0.4262280000000  0.4696800000000 1.0
C      1  0.5083240000000  0.5204650000000  0.5801090000000 1.0
C      1  0.4878670000000  0.4530100000000  0.5077790000000 1.0
C      1  0.4161260000000  0.4719380000000  0.4531280000000 1.0
C      1  0.4668980000000  0.5382370000000  0.5784940000000 1.0
C      1  0.5134730000000  0.5801800000000  0.4749050000000 1.0
C      1  0.4636600000000  0.5320830000000  0.4047750000000 1.0
C      1  0.4522450000000  0.5693660000000  0.4390310000000 1.0
C      1  0.5867720000000  0.5227470000000  0.4995700000000 1.0
C      1  0.6054510000000  0.5089780000000  0.5160150000000 1.0
C      1  0.5088800000000  0.4947410000000  0.4468850000000 1.0
C      1  0.5587570000000  0.5126860000000  0.5702170000000 1.0
C      1  0.5340910000000  0.5785320000000  0.5055550000000 1.0
END
