TITL C-627112-676-824 2491.19155364797 125000 -859.399197936653 0 0 142 (C1) n - 1
REM
REM in /home/nfs/bkarasulu/CARBON/AIRSS/Generating-Clusters/LCBOP/Only-C1/SD-CG/FIRE-CG
REM
REM
REM
REM
REM
REM ./C.cell (11c1c37f851c82e70ff6c80c92926a4b)
REM AIRSS Version 0.9.1 bugfix July 2018 build 013d7b7c2542+ Fri, 06 Jul 2018 19:26:36 +0100
REM compiler GCC version 9.2.1 20190827 (Red Hat 9.2.1-1)
REM options -cpp -mtune=generic -march=x86-64 -g -O0 -fpre-include=/usr/include/finclude/math-vector-fortran.h
REM seed 834298182 615987334 -132232590 -506954793 1735248452 -977476246 -792279150 -1303126963 -459351828 227412394 -2113163229 1268210821 1957003435 -50231561 -1304644 272468115 304289959 -1434322770 1503461778 47436477 -401669113 -1315798142 -1190971153 -1348627570 -1848864666 1370472734 1403235408 1144133994 443839364 -685514596 -780656820 -1655996571 1578385197
REM
CELL 1.54180   50.00000   50.00000   50.00000   90.00000   90.00000   90.00000
LATT -1
SFAC C  
C      1  0.4569230000000  0.5665310000000  0.5563370000000 1.0
C      1  0.4524260000000  0.4538170000000  0.5889440000000 1.0
C      1  0.4285720000000  0.5602010000000  0.4948680000000 1.0
C      1  0.4730460000000  0.3730200000000  0.4975780000000 1.0
C      1  0.4967700000000  0.5870770000000  0.5893570000000 1.0
C      1  0.3500280000000  0.4628080000000  0.5215950000000 1.0
C      1  0.5770640000000  0.4977740000000  0.5862020000000 1.0
C      1  0.5848860000000  0.5440190000000  0.5265670000000 1.0
C      1  0.4722170000000  0.5326980000000  0.4564390000000 1.0
C      1  0.5307560000000  0.5368790000000  0.4698600000000 1.0
C      1  0.5325750000000  0.5831390000000  0.5554590000000 1.0
C      1  0.4326620000000  0.4940220000000  0.5055100000000 1.0
C      1  0.4140990000000  0.5394030000000  0.5107660000000 1.0
C      1  0.5890750000000  0.5151490000000  0.5306380000000 1.0
C      1  0.4705700000000  0.4572800000000  0.4303660000000 1.0
C      1  0.5202040000000  0.4119430000000  0.4214090000000 1.0
C      1  0.4842730000000  0.4551490000000  0.5233180000000 1.0
C      1  0.4491100000000  0.4762230000000  0.4364690000000 1.0
C      1  0.4711730000000  0.5031890000000  0.5356100000000 1.0
C      1  0.5274120000000  0.5174050000000  0.5089030000000 1.0
C      1  0.5583870000000  0.4107820000000  0.4896600000000 1.0
C      1  0.4903750000000  0.5111130000000  0.3827660000000 1.0
C      1  0.3823680000000  0.4940080000000  0.5627930000000 1.0
C      1  0.5169660000000  0.5664320000000  0.5019160000000 1.0
C      1  0.4393810000000  0.5819180000000  0.5125410000000 1.0
C      1  0.4650170000000  0.5504280000000  0.6055080000000 1.0
C      1  0.5634830000000  0.4405510000000  0.4831720000000 1.0
C      1  0.4418780000000  0.5096430000000  0.5825830000000 1.0
C      1  0.5614260000000  0.3962720000000  0.4405200000000 1.0
C      1  0.5168650000000  0.4254670000000  0.4667460000000 1.0
C      1  0.4493410000000  0.6083070000000  0.5151280000000 1.0
C      1  0.3696870000000  0.5191730000000  0.5595370000000 1.0
C      1  0.5131830000000  0.4984440000000  0.5556900000000 1.0
C      1  0.4417030000000  0.5646720000000  0.4420240000000 1.0
C      1  0.4766020000000  0.4305830000000  0.4380370000000 1.0
C      1  0.4390410000000  0.4933970000000  0.4149860000000 1.0
C      1  0.4228280000000  0.4127030000000  0.5024620000000 1.0
C      1  0.4903480000000  0.5739840000000  0.4585890000000 1.0
C      1  0.5387780000000  0.5868650000000  0.5048160000000 1.0
C      1  0.4645000000000  0.5242440000000  0.5955940000000 1.0
C      1  0.4475420000000  0.4767400000000  0.4886770000000 1.0
C      1  0.4636980000000  0.5483780000000  0.3925610000000 1.0
C      1  0.4549340000000  0.5473340000000  0.4850700000000 1.0
C      1  0.5875980000000  0.4490840000000  0.4657680000000 1.0
C      1  0.5442720000000  0.4531640000000  0.6005150000000 1.0
C      1  0.4126620000000  0.5362750000000  0.5405970000000 1.0
C      1  0.4305810000000  0.4429040000000  0.5463700000000 1.0
C      1  0.4948520000000  0.4724130000000  0.4840420000000 1.0
C      1  0.4712430000000  0.4638480000000  0.4988550000000 1.0
C      1  0.5540240000000  0.5909070000000  0.4795690000000 1.0
C      1  0.5914480000000  0.4772250000000  0.5757090000000 1.0
C      1  0.5635170000000  0.5088140000000  0.5420580000000 1.0
C      1  0.5819910000000  0.5897360000000  0.4724580000000 1.0
C      1  0.4961560000000  0.4985630000000  0.4754060000000 1.0
C      1  0.5160940000000  0.4831130000000  0.4351840000000 1.0
C      1  0.5425080000000  0.5951680000000  0.5313670000000 1.0
C      1  0.3937630000000  0.4742060000000  0.5462660000000 1.0
C      1  0.4566640000000  0.5652720000000  0.5293950000000 1.0
C      1  0.5909810000000  0.4689610000000  0.5485070000000 1.0
C      1  0.6006030000000  0.5210960000000  0.4665550000000 1.0
C      1  0.3755120000000  0.4604850000000  0.5296570000000 1.0
C      1  0.4903790000000  0.3920860000000  0.4936910000000 1.0
C      1  0.4673900000000  0.5457280000000  0.5113260000000 1.0
C      1  0.4221940000000  0.4700280000000  0.5439720000000 1.0
C      1  0.5619920000000  0.4324810000000  0.4067730000000 1.0
C      1  0.5605860000000  0.4965940000000  0.4520300000000 1.0
C      1  0.5605290000000  0.5139600000000  0.5701990000000 1.0
C      1  0.5681810000000  0.4507290000000  0.5110460000000 1.0
C      1  0.5703400000000  0.4506420000000  0.5391860000000 1.0
C      1  0.4489380000000  0.4856000000000  0.3891850000000 1.0
C      1  0.4844130000000  0.4833160000000  0.5842350000000 1.0
C      1  0.5352010000000  0.4086350000000  0.5085710000000 1.0
C      1  0.3263990000000  0.5030620000000  0.5385890000000 1.0
C      1  0.5111980000000  0.5398540000000  0.5178100000000 1.0
C      1  0.5182660000000  0.5142840000000  0.4817200000000 1.0
C      1  0.4654190000000  0.5765840000000  0.4481440000000 1.0
C      1  0.4285590000000  0.4249430000000  0.5252550000000 1.0
C      1  0.4844590000000  0.5272880000000  0.5232540000000 1.0
C      1  0.5485640000000  0.4114660000000  0.4201930000000 1.0
C      1  0.5332680000000  0.4446860000000  0.5770450000000 1.0
C      1  0.4387000000000  0.5375790000000  0.3933430000000 1.0
C      1  0.4307940000000  0.5216720000000  0.4162680000000 1.0
C      1  0.4302320000000  0.5166520000000  0.5548670000000 1.0
C      1  0.5191230000000  0.4620270000000  0.4946530000000 1.0
C      1  0.3296780000000  0.4799350000000  0.5253040000000 1.0
C      1  0.5580510000000  0.5376100000000  0.4809330000000 1.0
C      1  0.5797640000000  0.5588790000000  0.4318170000000 1.0
C      1  0.4393170000000  0.4356290000000  0.5720330000000 1.0
C      1  0.5466710000000  0.5144020000000  0.4283790000000 1.0
C      1  0.5881720000000  0.5321670000000  0.4205320000000 1.0
C      1  0.5397180000000  0.5336280000000  0.5756320000000 1.0
C      1  0.5883090000000  0.4878440000000  0.4399370000000 1.0
C      1  0.4912440000000  0.6094480000000  0.5465040000000 1.0
C      1  0.5133890000000  0.4618150000000  0.5229890000000 1.0
C      1  0.5052640000000  0.4184740000000  0.5521760000000 1.0
C      1  0.5161430000000  0.5634130000000  0.4702820000000 1.0
C      1  0.5675740000000  0.5133130000000  0.4079160000000 1.0
C      1  0.5074290000000  0.5938090000000  0.5642950000000 1.0
C      1  0.4517580000000  0.4875140000000  0.4623740000000 1.0
C      1  0.5358570000000  0.4500750000000  0.4727250000000 1.0
C      1  0.5474420000000  0.5594320000000  0.5633960000000 1.0
C      1  0.5183150000000  0.5117760000000  0.4295010000000 1.0
C      1  0.5638960000000  0.3939590000000  0.4673510000000 1.0
C      1  0.5717990000000  0.5504530000000  0.5021500000000 1.0
C      1  0.6119380000000  0.4772230000000  0.5041760000000 1.0
C      1  0.4861070000000  0.5331580000000  0.4005900000000 1.0
C      1  0.5311320000000  0.4175270000000  0.5364150000000 1.0
C      1  0.5736270000000  0.5577020000000  0.5496330000000 1.0
C      1  0.4904030000000  0.5103250000000  0.5951960000000 1.0
C      1  0.3423500000000  0.5191090000000  0.5530980000000 1.0
C      1  0.5150200000000  0.5186160000000  0.5779980000000 1.0
C      1  0.4816440000000  0.4550430000000  0.5867160000000 1.0
C      1  0.4140790000000  0.5138360000000  0.4979710000000 1.0
C      1  0.5870440000000  0.4596000000000  0.4383000000000 1.0
C      1  0.4282040000000  0.5413340000000  0.4370980000000 1.0
C      1  0.4797970000000  0.5726630000000  0.6040410000000 1.0
C      1  0.4403110000000  0.4946820000000  0.5348030000000 1.0
C      1  0.5725410000000  0.5154310000000  0.4726380000000 1.0
C      1  0.4948290000000  0.5295470000000  0.4277510000000 1.0
C      1  0.4858270000000  0.4906050000000  0.5561080000000 1.0
C      1  0.5716290000000  0.4845440000000  0.3988460000000 1.0
C      1  0.5485110000000  0.4366810000000  0.5526410000000 1.0
C      1  0.5936660000000  0.5748940000000  0.4521180000000 1.0
C      1  0.4721530000000  0.4919410000000  0.3767630000000 1.0
C      1  0.5383970000000  0.5802660000000  0.4568810000000 1.0
C      1  0.5747400000000  0.4571020000000  0.4116930000000 1.0
C      1  0.5522390000000  0.5693390000000  0.4337290000000 1.0
C      1  0.5384670000000  0.4737610000000  0.4527200000000 1.0
C      1  0.5038980000000  0.4382670000000  0.5745710000000 1.0
C      1  0.4722840000000  0.5070430000000  0.4639460000000 1.0
C      1  0.4163790000000  0.4036510000000  0.4788790000000 1.0
C      1  0.4711340000000  0.6159770000000  0.5296590000000 1.0
C      1  0.5031830000000  0.4207110000000  0.4421950000000 1.0
C      1  0.4948390000000  0.4699750000000  0.4233110000000 1.0
C      1  0.3873240000000  0.5401370000000  0.5528720000000 1.0
C      1  0.5125350000000  0.4084530000000  0.4901310000000 1.0
C      1  0.6080460000000  0.4610400000000  0.4827800000000 1.0
C      1  0.6027720000000  0.5136520000000  0.4387350000000 1.0
C      1  0.4398760000000  0.4809400000000  0.5913730000000 1.0
C      1  0.5433170000000  0.5007770000000  0.5245960000000 1.0
C      1  0.6016290000000  0.4884810000000  0.5282340000000 1.0
C      1  0.5265830000000  0.4820960000000  0.5373670000000 1.0
END
