TITL C-627108-131-7 -1.28668850026314e-07 125000 -348.549766394219 0 0 57 (C1) n - 1
REM
REM in /home/nfs/bkarasulu/CARBON/AIRSS/Generating-Clusters/LCBOP/Only-C1/SD-CG/FIRE-CG
REM
REM
REM
REM
REM
REM ./C.cell (11c1c37f851c82e70ff6c80c92926a4b)
REM AIRSS Version 0.9.1 bugfix July 2018 build 013d7b7c2542+ Fri, 06 Jul 2018 19:26:36 +0100
REM compiler GCC version 9.2.1 20190827 (Red Hat 9.2.1-1)
REM options -cpp -mtune=generic -march=x86-64 -g -O0 -fpre-include=/usr/include/finclude/math-vector-fortran.h
REM seed 764879566 1594528115 1071379479 -1708797279 1532256140 973508586 896952565 767394836 -1073271871 653565881 -1292153969 -401825280 -1172351936 -1043352518 1062909491 2031688459 1435462185 190846148 1771427666 -556775261 1882889600 1093401179 1477044022 328997941 900306692 -53862503 -1912862061 -1930924716 92096743 -612898774 -1100960541 -670736824 155186154
REM
CELL 1.54180   50.00000   50.00000   50.00000   90.00000   90.00000   90.00000
LATT -1
SFAC C  
C      1  0.5158620000000  0.4386740000000  0.4790170000000 1.0
C      1  0.4525980000000  0.4476970000000  0.5433940000000 1.0
C      1  0.4505080000000  0.4568520000000  0.5689640000000 1.0
C      1  0.4607060000000  0.4115190000000  0.4881250000000 1.0
C      1  0.5269630000000  0.4605730000000  0.4936920000000 1.0
C      1  0.4867010000000  0.5826360000000  0.5117860000000 1.0
C      1  0.5202980000000  0.4680190000000  0.5206420000000 1.0
C      1  0.4825480000000  0.5646590000000  0.4674910000000 1.0
C      1  0.5272070000000  0.5589640000000  0.5256830000000 1.0
C      1  0.5660510000000  0.4674030000000  0.4317320000000 1.0
C      1  0.4653180000000  0.5476450000000  0.4533690000000 1.0
C      1  0.4081180000000  0.5556990000000  0.4868320000000 1.0
C      1  0.5494410000000  0.4753800000000  0.4824370000000 1.0
C      1  0.6006350000000  0.5387400000000  0.5236460000000 1.0
C      1  0.5357060000000  0.4050850000000  0.4488600000000 1.0
C      1  0.5137250000000  0.5162570000000  0.4588480000000 1.0
C      1  0.4512540000000  0.4648290000000  0.5206680000000 1.0
C      1  0.5339120000000  0.4169260000000  0.4733760000000 1.0
C      1  0.4542240000000  0.4818730000000  0.4664040000000 1.0
C      1  0.4242740000000  0.5776620000000  0.5305830000000 1.0
C      1  0.4421150000000  0.5314100000000  0.4546720000000 1.0
C      1  0.4651600000000  0.4341290000000  0.4716190000000 1.0
C      1  0.5584270000000  0.4701790000000  0.4564970000000 1.0
C      1  0.4457630000000  0.4556270000000  0.4736020000000 1.0
C      1  0.5541390000000  0.5365280000000  0.4723530000000 1.0
C      1  0.5152130000000  0.5501690000000  0.5500090000000 1.0
C      1  0.5394830000000  0.4807470000000  0.5653310000000 1.0
C      1  0.4585400000000  0.4062590000000  0.5143600000000 1.0
C      1  0.4716820000000  0.5829790000000  0.4872370000000 1.0
C      1  0.5178180000000  0.5229760000000  0.5572210000000 1.0
C      1  0.5428290000000  0.4722700000000  0.5376780000000 1.0
C      1  0.5950170000000  0.5324350000000  0.4980490000000 1.0
C      1  0.4968860000000  0.4835010000000  0.5273170000000 1.0
C      1  0.4974030000000  0.4288320000000  0.4351950000000 1.0
C      1  0.5864960000000  0.5313410000000  0.5453610000000 1.0
C      1  0.4990000000000  0.5048550000000  0.5457470000000 1.0
C      1  0.5100170000000  0.5595810000000  0.4772200000000 1.0
C      1  0.5422790000000  0.5101970000000  0.5649530000000 1.0
C      1  0.4758430000000  0.5793660000000  0.5379540000000 1.0
C      1  0.5179290000000  0.4118510000000  0.4293190000000 1.0
C      1  0.4433520000000  0.5032620000000  0.4519500000000 1.0
C      1  0.4559870000000  0.4203610000000  0.5370810000000 1.0
C      1  0.5121830000000  0.5695640000000  0.5043810000000 1.0
C      1  0.4482320000000  0.5822100000000  0.5413730000000 1.0
C      1  0.5625860000000  0.4955700000000  0.4982810000000 1.0
C      1  0.4754320000000  0.4893420000000  0.4842320000000 1.0
C      1  0.4192340000000  0.5429090000000  0.4662810000000 1.0
C      1  0.5718390000000  0.5205280000000  0.4872120000000 1.0
C      1  0.4918210000000  0.4375840000000  0.4619280000000 1.0
C      1  0.4736010000000  0.4808360000000  0.5116910000000 1.0
C      1  0.5269150000000  0.5396020000000  0.4667240000000 1.0
C      1  0.4098310000000  0.5680520000000  0.5103630000000 1.0
C      1  0.5617820000000  0.4922530000000  0.5266020000000 1.0
C      1  0.4335520000000  0.4569790000000  0.4995500000000 1.0
C      1  0.4979370000000  0.4993200000000  0.4716280000000 1.0
C      1  0.4924580000000  0.5658480000000  0.5566620000000 1.0
C      1  0.5651700000000  0.5134540000000  0.5468200000000 1.0
END
