TITL C-627108-131-1697 4.01842296615346 125000 -457.667555236934 0 0 78 (C1) n - 1
REM
REM in /home/nfs/bkarasulu/CARBON/AIRSS/Generating-Clusters/LCBOP/Only-C1/SD-CG/FIRE-CG
REM
REM
REM
REM
REM
REM ./C.cell (11c1c37f851c82e70ff6c80c92926a4b)
REM AIRSS Version 0.9.1 bugfix July 2018 build 013d7b7c2542+ Fri, 06 Jul 2018 19:26:36 +0100
REM compiler GCC version 9.2.1 20190827 (Red Hat 9.2.1-1)
REM options -cpp -mtune=generic -march=x86-64 -g -O0 -fpre-include=/usr/include/finclude/math-vector-fortran.h
REM seed 1944488546 -792600307 71080554 1618950026 -1953494597 538059153 -967602086 818682847 599397400 -943228882 1458571663 -1726646485 1357569070 -1133343956 -162979023 23668227 -1625941717 -1992702587 -109727786 855402237 179762064 1383977647 1397322298 559147704 -2049092227 -555991040 -119768534 -300364523 -1676988272 236963528 1799248674 732523828 -518362834
REM
CELL 1.54180   50.00000   50.00000   50.00000   90.00000   90.00000   90.00000
LATT -1
SFAC C  
C      1  0.4334880000000  0.4466370000000  0.4469260000000 1.0
C      1  0.5053680000000  0.5764460000000  0.4993980000000 1.0
C      1  0.5171830000000  0.4459840000000  0.4272460000000 1.0
C      1  0.4430480000000  0.4395710000000  0.4229540000000 1.0
C      1  0.5570070000000  0.4743570000000  0.4255100000000 1.0
C      1  0.4966190000000  0.4579730000000  0.4432200000000 1.0
C      1  0.5034720000000  0.5192800000000  0.4753630000000 1.0
C      1  0.5495250000000  0.4433350000000  0.4636780000000 1.0
C      1  0.5452200000000  0.4644680000000  0.5639990000000 1.0
C      1  0.5436280000000  0.4513740000000  0.4370060000000 1.0
C      1  0.4788370000000  0.4557860000000  0.5255630000000 1.0
C      1  0.4776400000000  0.3818680000000  0.5924910000000 1.0
C      1  0.4916710000000  0.4861980000000  0.4404230000000 1.0
C      1  0.4878530000000  0.4304970000000  0.5657400000000 1.0
C      1  0.5401110000000  0.6099310000000  0.4971450000000 1.0
C      1  0.4620660000000  0.4260160000000  0.5779330000000 1.0
C      1  0.5807740000000  0.5040540000000  0.4628150000000 1.0
C      1  0.4602070000000  0.4379280000000  0.4024610000000 1.0
C      1  0.4092920000000  0.5539580000000  0.5162230000000 1.0
C      1  0.4289490000000  0.5554590000000  0.4402850000000 1.0
C      1  0.5472810000000  0.6354150000000  0.4979970000000 1.0
C      1  0.4797350000000  0.4787100000000  0.5688100000000 1.0
C      1  0.4533360000000  0.4882800000000  0.5655350000000 1.0
C      1  0.4424840000000  0.4859940000000  0.4823950000000 1.0
C      1  0.4567330000000  0.5571670000000  0.5081900000000 1.0
C      1  0.4982600000000  0.5353840000000  0.5561260000000 1.0
C      1  0.4725160000000  0.4833980000000  0.4837130000000 1.0
C      1  0.4287610000000  0.5825090000000  0.4330930000000 1.0
C      1  0.4318210000000  0.4610810000000  0.4694790000000 1.0
C      1  0.4931230000000  0.4573410000000  0.5529320000000 1.0
C      1  0.5341720000000  0.4546720000000  0.4843260000000 1.0
C      1  0.4872400000000  0.4991550000000  0.4647920000000 1.0
C      1  0.5616150000000  0.6864100000000  0.4997070000000 1.0
C      1  0.4341420000000  0.4688880000000  0.5718000000000 1.0
C      1  0.4369780000000  0.4420540000000  0.5790640000000 1.0
C      1  0.5742100000000  0.4897690000000  0.4413270000000 1.0
C      1  0.4875500000000  0.4662260000000  0.5007370000000 1.0
C      1  0.5691250000000  0.4736640000000  0.5521060000000 1.0
C      1  0.5245620000000  0.4827050000000  0.5240110000000 1.0
C      1  0.5687840000000  0.7119150000000  0.5005620000000 1.0
C      1  0.5697670000000  0.4249830000000  0.4690480000000 1.0
C      1  0.4292150000000  0.4013310000000  0.6002360000000 1.0
C      1  0.5891360000000  0.4084020000000  0.4744380000000 1.0
C      1  0.4328350000000  0.4943480000000  0.5095000000000 1.0
C      1  0.5009050000000  0.3862280000000  0.5794940000000 1.0
C      1  0.4515260000000  0.5128660000000  0.5516690000000 1.0
C      1  0.5523050000000  0.5634320000000  0.4924260000000 1.0
C      1  0.4566210000000  0.4002480000000  0.5920060000000 1.0
C      1  0.5758350000000  0.7369990000000  0.5014020000000 1.0
C      1  0.4177460000000  0.4252650000000  0.5925870000000 1.0
C      1  0.5852050000000  0.5019470000000  0.5111780000000 1.0
C      1  0.5163860000000  0.4808910000000  0.3978360000000 1.0
C      1  0.4376810000000  0.5160870000000  0.5270030000000 1.0
C      1  0.5067070000000  0.4089090000000  0.5635780000000 1.0
C      1  0.5822040000000  0.4869860000000  0.5330320000000 1.0
C      1  0.4346030000000  0.5085100000000  0.4636230000000 1.0
C      1  0.5217500000000  0.4673540000000  0.5482610000000 1.0
C      1  0.5233770000000  0.5277200000000  0.5461470000000 1.0
C      1  0.4395670000000  0.6010860000000  0.4500630000000 1.0
C      1  0.5092860000000  0.4524370000000  0.3995650000000 1.0
C      1  0.5544480000000  0.6609130000000  0.4988520000000 1.0
C      1  0.5447750000000  0.4545390000000  0.5894000000000 1.0
C      1  0.5442780000000  0.4850120000000  0.4022740000000 1.0
C      1  0.4800760000000  0.5689640000000  0.5031590000000 1.0
C      1  0.5236830000000  0.5111810000000  0.5230110000000 1.0
C      1  0.5172200000000  0.5224020000000  0.4980520000000 1.0
C      1  0.4844370000000  0.4419540000000  0.3915120000000 1.0
C      1  0.4177800000000  0.5900940000000  0.4091870000000 1.0
C      1  0.5325230000000  0.5830190000000  0.4963030000000 1.0
C      1  0.5687050000000  0.5425910000000  0.4899170000000 1.0
C      1  0.4342320000000  0.5427260000000  0.5170250000000 1.0
C      1  0.4989270000000  0.4964430000000  0.4147870000000 1.0
C      1  0.5790100000000  0.5164980000000  0.4879330000000 1.0
C      1  0.5275390000000  0.4087940000000  0.5459510000000 1.0
C      1  0.5162770000000  0.4683960000000  0.5006240000000 1.0
C      1  0.4719420000000  0.5314190000000  0.5578120000000 1.0
C      1  0.5464870000000  0.5362530000000  0.5579250000000 1.0
C      1  0.4306150000000  0.5309180000000  0.4501050000000 1.0
END
