TITL C-627109-622-808 59492.7018523363 125000 -937.302207043067 0 0 154 (C1) n - 1
REM
REM in /home/nfs/bkarasulu/CARBON/AIRSS/Generating-Clusters/LCBOP/Only-C1/SD-CG/FIRE-CG
REM
REM
REM
REM
REM
REM ./C.cell (11c1c37f851c82e70ff6c80c92926a4b)
REM AIRSS Version 0.9.1 bugfix July 2018 build 013d7b7c2542+ Fri, 06 Jul 2018 19:26:36 +0100
REM compiler GCC version 9.2.1 20190827 (Red Hat 9.2.1-1)
REM options -cpp -mtune=generic -march=x86-64 -g -O0 -fpre-include=/usr/include/finclude/math-vector-fortran.h
REM seed 2031698215 -717046440 521169993 1365495653 534918229 1980405303 -624347142 -2134667033 1320997027 84433663 720050073 -1965512248 -688391970 -255300076 -29906748 1378446952 -1694575508 -1827462617 -1585734731 1266660434 -1070923032 994594075 -1126167925 -1206129923 255475440 -1834389762 1147863629 -1560565248 -2001602857 542380567 -441975967 -280166710 -720535940
REM
CELL 1.54180   50.00000   50.00000   50.00000   90.00000   90.00000   90.00000
LATT -1
SFAC C  
C      1  0.4985370000000  0.4755500000000  0.5771070000000 1.0
C      1  0.5849140000000  0.4737790000000  0.5505920000000 1.0
C      1  0.5388560000000  0.4841940000000  0.4264680000000 1.0
C      1  0.4620420000000  0.5949160000000  0.4830550000000 1.0
C      1  0.4042780000000  0.5208180000000  0.4788730000000 1.0
C      1  0.4063310000000  0.4602680000000  0.4493430000000 1.0
C      1  0.6443190000000  0.4167600000000  0.4079460000000 1.0
C      1  0.5562770000000  0.5150520000000  0.5512570000000 1.0
C      1  0.4002350000000  0.5672970000000  0.4842800000000 1.0
C      1  0.5348640000000  0.4679690000000  0.4733600000000 1.0
C      1  0.4516050000000  0.4150200000000  0.5253010000000 1.0
C      1  0.5639640000000  0.4634620000000  0.4777140000000 1.0
C      1  0.5584070000000  0.5443960000000  0.5456610000000 1.0
C      1  0.5200710000000  0.5536370000000  0.5696180000000 1.0
C      1  0.4551390000000  0.5180600000000  0.4945480000000 1.0
C      1  0.5173730000000  0.4830990000000  0.5566790000000 1.0
C      1  0.5181490000000  0.5350330000000  0.4454760000000 1.0
C      1  0.4283930000000  0.4681180000000  0.5655090000000 1.0
C      1  0.5571380000000  0.5760590000000  0.4719010000000 1.0
C      1  0.4681580000000  0.4357860000000  0.4292320000000 1.0
C      1  0.4545800000000  0.4872410000000  0.4098350000000 1.0
C      1  0.4011180000000  0.5461940000000  0.4654040000000 1.0
C      1  0.5648930000000  0.5270420000000  0.4160100000000 1.0
C      1  0.4156380000000  0.4864870000000  0.4425490000000 1.0
C      1  0.4618310000000  0.3672600000000  0.5100640000000 1.0
C      1  0.5329200000000  0.5259230000000  0.6055580000000 1.0
C      1  0.4380510000000  0.4792850000000  0.5197160000000 1.0
C      1  0.4559850000000  0.5010290000000  0.5171580000000 1.0
C      1  0.4848490000000  0.4254480000000  0.4819060000000 1.0
C      1  0.5015760000000  0.5613470000000  0.5147750000000 1.0
C      1  0.4207350000000  0.5017340000000  0.4661410000000 1.0
C      1  0.5732900000000  0.4403620000000  0.4923760000000 1.0
C      1  0.3876400000000  0.4468790000000  0.5161470000000 1.0
C      1  0.3938990000000  0.6012150000000  0.5403800000000 1.0
C      1  0.3584570000000  0.5634580000000  0.5427370000000 1.0
C      1  0.5556510000000  0.5293690000000  0.4790670000000 1.0
C      1  0.4041770000000  0.5221770000000  0.5075630000000 1.0
C      1  0.4606260000000  0.4597320000000  0.4156730000000 1.0
C      1  0.4810740000000  0.4967620000000  0.5304600000000 1.0
C      1  0.5822260000000  0.5571330000000  0.5549870000000 1.0
C      1  0.4586660000000  0.4167220000000  0.4721220000000 1.0
C      1  0.6070120000000  0.5823110000000  0.5888490000000 1.0
C      1  0.5227730000000  0.4835630000000  0.6197240000000 1.0
C      1  0.4218000000000  0.5977020000000  0.5421940000000 1.0
C      1  0.4771640000000  0.5594300000000  0.5270340000000 1.0
C      1  0.4354380000000  0.5456970000000  0.5449240000000 1.0
C      1  0.5343640000000  0.4997350000000  0.5404890000000 1.0
C      1  0.4873410000000  0.4407400000000  0.5071650000000 1.0
C      1  0.4806580000000  0.3618300000000  0.4919060000000 1.0
C      1  0.5637100000000  0.4994030000000  0.4236190000000 1.0
C      1  0.4496420000000  0.3869170000000  0.5235830000000 1.0
C      1  0.5432400000000  0.3891680000000  0.4653730000000 1.0
C      1  0.6355890000000  0.4798630000000  0.5318170000000 1.0
C      1  0.4338450000000  0.5313870000000  0.4274120000000 1.0
C      1  0.4483130000000  0.5022150000000  0.4719100000000 1.0
C      1  0.5699140000000  0.4491100000000  0.5454330000000 1.0
C      1  0.5764590000000  0.4873140000000  0.4865190000000 1.0
C      1  0.5846950000000  0.5691780000000  0.5805290000000 1.0
C      1  0.5615410000000  0.4854200000000  0.5916750000000 1.0
C      1  0.3714110000000  0.5867170000000  0.5410770000000 1.0
C      1  0.5055300000000  0.5181380000000  0.5957670000000 1.0
C      1  0.4597870000000  0.4608560000000  0.4792840000000 1.0
C      1  0.5506360000000  0.4415590000000  0.5664420000000 1.0
C      1  0.4996290000000  0.3706870000000  0.4753620000000 1.0
C      1  0.5614930000000  0.5660280000000  0.5964240000000 1.0
C      1  0.5125480000000  0.4247500000000  0.4117250000000 1.0
C      1  0.5668570000000  0.5694900000000  0.4458580000000 1.0
C      1  0.5143860000000  0.5189510000000  0.5005340000000 1.0
C      1  0.4414380000000  0.4358730000000  0.5994130000000 1.0
C      1  0.5217040000000  0.4800300000000  0.4506490000000 1.0
C      1  0.6110390000000  0.4768810000000  0.5412250000000 1.0
C      1  0.5334480000000  0.4985620000000  0.5107620000000 1.0
C      1  0.4409910000000  0.6162650000000  0.5315630000000 1.0
C      1  0.6601150000000  0.4828290000000  0.5234140000000 1.0
C      1  0.4444850000000  0.4574960000000  0.5027160000000 1.0
C      1  0.4158360000000  0.5309030000000  0.5304320000000 1.0
C      1  0.4610760000000  0.5432840000000  0.4822800000000 1.0
C      1  0.4230160000000  0.5713190000000  0.4982080000000 1.0
C      1  0.5159360000000  0.6016520000000  0.5041830000000 1.0
C      1  0.4750710000000  0.4607600000000  0.5748820000000 1.0
C      1  0.4424800000000  0.5998690000000  0.4591310000000 1.0
C      1  0.4618130000000  0.5467900000000  0.4276980000000 1.0
C      1  0.5626440000000  0.4411030000000  0.5191240000000 1.0
C      1  0.5425780000000  0.5254680000000  0.4543730000000 1.0
C      1  0.4306140000000  0.5802490000000  0.4408460000000 1.0
C      1  0.5446540000000  0.5547970000000  0.4872600000000 1.0
C      1  0.5688580000000  0.5521770000000  0.4252430000000 1.0
C      1  0.4894530000000  0.5252010000000  0.3955210000000 1.0
C      1  0.5026350000000  0.5814930000000  0.4523730000000 1.0
C      1  0.5553230000000  0.4569880000000  0.5900960000000 1.0
C      1  0.5578600000000  0.6024570000000  0.4813410000000 1.0
C      1  0.4545250000000  0.6594760000000  0.5610170000000 1.0
C      1  0.4544640000000  0.6123390000000  0.5068350000000 1.0
C      1  0.6571390000000  0.4995150000000  0.4520480000000 1.0
C      1  0.5720920000000  0.4951700000000  0.5663340000000 1.0
C      1  0.5342960000000  0.5631780000000  0.5457490000000 1.0
C      1  0.5003070000000  0.5309460000000  0.5703790000000 1.0
C      1  0.4791090000000  0.4254980000000  0.5303180000000 1.0
C      1  0.4740460000000  0.5028310000000  0.3959030000000 1.0
C      1  0.4934500000000  0.5939640000000  0.4780450000000 1.0
C      1  0.5015200000000  0.4902150000000  0.6011410000000 1.0
C      1  0.4294270000000  0.5723860000000  0.5521530000000 1.0
C      1  0.4946840000000  0.4692430000000  0.5125040000000 1.0
C      1  0.5377970000000  0.5513540000000  0.5934330000000 1.0
C      1  0.4947320000000  0.4923380000000  0.4553720000000 1.0
C      1  0.5155340000000  0.3916990000000  0.4653610000000 1.0
C      1  0.4331440000000  0.4320040000000  0.5096150000000 1.0
C      1  0.4501460000000  0.4224780000000  0.4468160000000 1.0
C      1  0.5260700000000  0.4431320000000  0.3978980000000 1.0
C      1  0.5838840000000  0.4192810000000  0.4769060000000 1.0
C      1  0.4515750000000  0.5744710000000  0.4219300000000 1.0
C      1  0.4035130000000  0.4426310000000  0.4701350000000 1.0
C      1  0.6604960000000  0.4518730000000  0.4368360000000 1.0
C      1  0.5194620000000  0.5810270000000  0.5256510000000 1.0
C      1  0.4186630000000  0.4748260000000  0.5401630000000 1.0
C      1  0.5329870000000  0.4681110000000  0.4040620000000 1.0
C      1  0.4370880000000  0.4153490000000  0.6155940000000 1.0
C      1  0.6045040000000  0.4250330000000  0.4589050000000 1.0
C      1  0.5253510000000  0.4280570000000  0.5605320000000 1.0
C      1  0.4884750000000  0.5476880000000  0.4129950000000 1.0
C      1  0.4482080000000  0.4549940000000  0.5802800000000 1.0
C      1  0.5232560000000  0.4714510000000  0.5020560000000 1.0
C      1  0.5006000000000  0.4223010000000  0.5497320000000 1.0
C      1  0.3710530000000  0.4873950000000  0.5397550000000 1.0
C      1  0.3545880000000  0.5371210000000  0.5440630000000 1.0
C      1  0.6085860000000  0.5061910000000  0.4407520000000 1.0
C      1  0.5459160000000  0.4999630000000  0.6108640000000 1.0
C      1  0.4471710000000  0.6390390000000  0.5466150000000 1.0
C      1  0.4504860000000  0.5678890000000  0.4912270000000 1.0
C      1  0.4321000000000  0.5013820000000  0.4225270000000 1.0
C      1  0.5675930000000  0.3970520000000  0.4723600000000 1.0
C      1  0.5973500000000  0.4615500000000  0.4280830000000 1.0
C      1  0.5352130000000  0.4473010000000  0.5153340000000 1.0
C      1  0.6332900000000  0.5112430000000  0.4493200000000 1.0
C      1  0.4059840000000  0.4346460000000  0.4980400000000 1.0
C      1  0.4719550000000  0.5386210000000  0.4559370000000 1.0
C      1  0.5388000000000  0.6151790000000  0.4954370000000 1.0
C      1  0.4688830000000  0.4830210000000  0.4649290000000 1.0
C      1  0.5026470000000  0.4167970000000  0.4604430000000 1.0
C      1  0.4822330000000  0.5199500000000  0.5503550000000 1.0
C      1  0.3588830000000  0.5108210000000  0.5434390000000 1.0
C      1  0.4949530000000  0.5208690000000  0.4537500000000 1.0
C      1  0.6134770000000  0.4402860000000  0.4371820000000 1.0
C      1  0.3914190000000  0.4694680000000  0.5329280000000 1.0
C      1  0.6677230000000  0.4755440000000  0.4467740000000 1.0
C      1  0.5180660000000  0.5465460000000  0.4977980000000 1.0
C      1  0.6396780000000  0.4358700000000  0.4269110000000 1.0
C      1  0.5594260000000  0.5073980000000  0.4962020000000 1.0
C      1  0.4633500000000  0.5406630000000  0.5425260000000 1.0
C      1  0.4952560000000  0.4258880000000  0.4336070000000 1.0
C      1  0.5078660000000  0.5593570000000  0.4330860000000 1.0
C      1  0.4167280000000  0.5526850000000  0.4420240000000 1.0
C      1  0.5892850000000  0.4883520000000  0.4304160000000 1.0
C      1  0.4337230000000  0.3943790000000  0.6307120000000 1.0
END
