TITL C-627111-6168-628 -1.81432661857978e-07 125000 -235.504499083823 0 0 40 (C1) n - 1
REM
REM in /home/nfs/bkarasulu/CARBON/AIRSS/Generating-Clusters/LCBOP/Only-C1/SD-CG/FIRE-CG
REM
REM
REM
REM
REM
REM ./C.cell (11c1c37f851c82e70ff6c80c92926a4b)
REM AIRSS Version 0.9.1 bugfix July 2018 build 013d7b7c2542+ Fri, 06 Jul 2018 19:26:36 +0100
REM compiler GCC version 9.2.1 20190827 (Red Hat 9.2.1-1)
REM options -cpp -mtune=generic -march=x86-64 -g -O0 -fpre-include=/usr/include/finclude/math-vector-fortran.h
REM seed -528197933 875763798 1011481488 -2022778899 1179647219 1129234611 756134475 -1010625877 -1692393523 -1666228150 1475299912 -919943032 -284051538 -1811725010 -693195274 -796327050 2071792036 1886987140 642982870 -1965128412 865870537 -1073400218 492495001 -178452249 377517304 1236551905 385608647 81543332 -135229017 -899121059 -961473355 -421663735 2132638422
REM
CELL 1.54180   50.00000   50.00000   50.00000   90.00000   90.00000   90.00000
LATT -1
SFAC C  
C      1  0.4938870000000  0.4630680000000  0.4324730000000 1.0
C      1  0.4649850000000  0.5028880000000  0.4285760000000 1.0
C      1  0.4921790000000  0.5154000000000  0.5652890000000 1.0
C      1  0.5035530000000  0.4913340000000  0.5600900000000 1.0
C      1  0.4431520000000  0.4867690000000  0.4680550000000 1.0
C      1  0.4234430000000  0.4918410000000  0.4888190000000 1.0
C      1  0.4661650000000  0.4413900000000  0.5191190000000 1.0
C      1  0.4579760000000  0.4632530000000  0.4780310000000 1.0
C      1  0.5617320000000  0.5312140000000  0.5458250000000 1.0
C      1  0.5716510000000  0.4924410000000  0.4554690000000 1.0
C      1  0.4340760000000  0.4813630000000  0.5136650000000 1.0
C      1  0.5303770000000  0.4683560000000  0.4627300000000 1.0
C      1  0.5266220000000  0.5387930000000  0.4581190000000 1.0
C      1  0.5456400000000  0.5471750000000  0.5315840000000 1.0
C      1  0.5156650000000  0.5612190000000  0.4694550000000 1.0
C      1  0.5136990000000  0.4522600000000  0.5257970000000 1.0
C      1  0.4538520000000  0.4981570000000  0.5249980000000 1.0
C      1  0.5455450000000  0.4919370000000  0.4633980000000 1.0
C      1  0.4829990000000  0.5385930000000  0.5550070000000 1.0
C      1  0.4818230000000  0.5590520000000  0.5060010000000 1.0
C      1  0.5092010000000  0.5610860000000  0.4973670000000 1.0
C      1  0.4789890000000  0.5029230000000  0.5162630000000 1.0
C      1  0.5897970000000  0.4952840000000  0.5622250000000 1.0
C      1  0.4561580000000  0.5336200000000  0.4667100000000 1.0
C      1  0.5473520000000  0.4858920000000  0.5408590000000 1.0
C      1  0.4534930000000  0.5087910000000  0.4535040000000 1.0
C      1  0.5298060000000  0.4320460000000  0.5349910000000 1.0
C      1  0.5268330000000  0.5433970000000  0.5114180000000 1.0
C      1  0.5042300000000  0.4593300000000  0.4584630000000 1.0
C      1  0.4633530000000  0.5504870000000  0.4863000000000 1.0
C      1  0.4801600000000  0.4824630000000  0.4200130000000 1.0
C      1  0.5184610000000  0.4806230000000  0.5350930000000 1.0
C      1  0.5243050000000  0.5168140000000  0.5003300000000 1.0
C      1  0.5324780000000  0.5150750000000  0.4729420000000 1.0
C      1  0.5669850000000  0.5038800000000  0.5500030000000 1.0
C      1  0.5070500000000  0.4993390000000  0.5141650000000 1.0
C      1  0.4923370000000  0.4467100000000  0.5077910000000 1.0
C      1  0.4458630000000  0.4557720000000  0.5052240000000 1.0
C      1  0.4863870000000  0.4556070000000  0.4800810000000 1.0
C      1  0.4777420000000  0.5543600000000  0.5337600000000 1.0
END
