TITL C-627109-622-81 -6.20728193397518e-07 125000 -696.958923219364 0 0 113 (C1) n - 1
REM
REM in /home/nfs/bkarasulu/CARBON/AIRSS/Generating-Clusters/LCBOP/Only-C1/SD-CG/FIRE-CG
REM
REM
REM
REM
REM
REM ./C.cell (11c1c37f851c82e70ff6c80c92926a4b)
REM AIRSS Version 0.9.1 bugfix July 2018 build 013d7b7c2542+ Fri, 06 Jul 2018 19:26:36 +0100
REM compiler GCC version 9.2.1 20190827 (Red Hat 9.2.1-1)
REM options -cpp -mtune=generic -march=x86-64 -g -O0 -fpre-include=/usr/include/finclude/math-vector-fortran.h
REM seed -962407706 -45010544 -1463858349 2031934536 1603370297 -1778065622 154313756 -1425509232 -938034646 -1501669642 398503255 2020448795 -841133235 -268798708 661326923 -434971511 1594284968 -1468557299 -271186522 1586983038 -506752560 -1410817117 525888465 1101758740 -849853251 -1119823418 -2367069 -753346082 904939914 -1494260286 150397182 -447539649 -1253875232
REM
CELL 1.54180   50.00000   50.00000   50.00000   90.00000   90.00000   90.00000
LATT -1
SFAC C  
C      1  0.4739210000000  0.5531670000000  0.5085250000000 1.0
C      1  0.4969310000000  0.5852120000000  0.4491600000000 1.0
C      1  0.5109090000000  0.5847470000000  0.5197650000000 1.0
C      1  0.4231230000000  0.4570420000000  0.4759440000000 1.0
C      1  0.5143970000000  0.5237580000000  0.5346590000000 1.0
C      1  0.5106090000000  0.3649560000000  0.4814650000000 1.0
C      1  0.5256010000000  0.6287450000000  0.4979580000000 1.0
C      1  0.5451130000000  0.4390930000000  0.5843220000000 1.0
C      1  0.4298960000000  0.4910730000000  0.4401090000000 1.0
C      1  0.5193820000000  0.4978390000000  0.4939790000000 1.0
C      1  0.4233920000000  0.5025030000000  0.5330400000000 1.0
C      1  0.4846880000000  0.3652560000000  0.4753000000000 1.0
C      1  0.5651760000000  0.4634950000000  0.5452690000000 1.0
C      1  0.5183300000000  0.5784120000000  0.5472070000000 1.0
C      1  0.4410990000000  0.6042570000000  0.4998680000000 1.0
C      1  0.5640520000000  0.5298570000000  0.5251650000000 1.0
C      1  0.5680550000000  0.5279270000000  0.4520820000000 1.0
C      1  0.4138610000000  0.5715450000000  0.5297750000000 1.0
C      1  0.4495860000000  0.5341090000000  0.4275740000000 1.0
C      1  0.4953570000000  0.4491300000000  0.5876480000000 1.0
C      1  0.4433620000000  0.4512750000000  0.5817140000000 1.0
C      1  0.5362720000000  0.4085870000000  0.4906770000000 1.0
C      1  0.4752790000000  0.4619180000000  0.4655140000000 1.0
C      1  0.4981690000000  0.5620620000000  0.4295730000000 1.0
C      1  0.4085550000000  0.5090010000000  0.4845640000000 1.0
C      1  0.5230180000000  0.4620790000000  0.4153230000000 1.0
C      1  0.5842670000000  0.4627310000000  0.4921560000000 1.0
C      1  0.4457630000000  0.4462350000000  0.4268390000000 1.0
C      1  0.4604290000000  0.5383990000000  0.4874970000000 1.0
C      1  0.5238650000000  0.4925490000000  0.4184600000000 1.0
C      1  0.5037200000000  0.4426250000000  0.5203800000000 1.0
C      1  0.4300720000000  0.4626810000000  0.4469360000000 1.0
C      1  0.5321410000000  0.6539360000000  0.4992690000000 1.0
C      1  0.5159670000000  0.5586580000000  0.4816680000000 1.0
C      1  0.5158570000000  0.5859620000000  0.4712330000000 1.0
C      1  0.4660350000000  0.4093170000000  0.4725750000000 1.0
C      1  0.4743490000000  0.4507610000000  0.4195400000000 1.0
C      1  0.5313100000000  0.4944850000000  0.4466000000000 1.0
C      1  0.6540340000000  0.4775060000000  0.5077500000000 1.0
C      1  0.5642750000000  0.4821230000000  0.4803340000000 1.0
C      1  0.4525100000000  0.5050210000000  0.4259050000000 1.0
C      1  0.4992030000000  0.5708220000000  0.5682020000000 1.0
C      1  0.4813170000000  0.4697810000000  0.4395120000000 1.0
C      1  0.5261490000000  0.5081900000000  0.5907300000000 1.0
C      1  0.5418340000000  0.4820670000000  0.5025210000000 1.0
C      1  0.4695250000000  0.5111250000000  0.5458360000000 1.0
C      1  0.5870190000000  0.4255700000000  0.5655510000000 1.0
C      1  0.5267450000000  0.5378430000000  0.4677730000000 1.0
C      1  0.4265030000000  0.5941160000000  0.5204190000000 1.0
C      1  0.4772760000000  0.5000720000000  0.5210550000000 1.0
C      1  0.4520390000000  0.5551250000000  0.5786180000000 1.0
C      1  0.4160660000000  0.5592040000000  0.4872040000000 1.0
C      1  0.4785120000000  0.4970470000000  0.4345740000000 1.0
C      1  0.5228180000000  0.5444740000000  0.4230750000000 1.0
C      1  0.4774830000000  0.4534960000000  0.5213350000000 1.0
C      1  0.5015980000000  0.4304890000000  0.3835290000000 1.0
C      1  0.4383010000000  0.5503050000000  0.4729420000000 1.0
C      1  0.4219700000000  0.4607090000000  0.5038730000000 1.0
C      1  0.4716060000000  0.5660350000000  0.5611710000000 1.0
C      1  0.4552320000000  0.6044380000000  0.4767850000000 1.0
C      1  0.4657650000000  0.4829600000000  0.4820230000000 1.0
C      1  0.5736380000000  0.5117940000000  0.4761010000000 1.0
C      1  0.4172680000000  0.5112060000000  0.4570200000000 1.0
C      1  0.4996170000000  0.4470560000000  0.4052280000000 1.0
C      1  0.5656860000000  0.4428830000000  0.5652460000000 1.0
C      1  0.4686660000000  0.5121920000000  0.4772980000000 1.0
C      1  0.5164700000000  0.5101100000000  0.4669330000000 1.0
C      1  0.4419990000000  0.5148960000000  0.5517260000000 1.0
C      1  0.5181010000000  0.4589810000000  0.5400480000000 1.0
C      1  0.5203030000000  0.4380010000000  0.5947490000000 1.0
C      1  0.5373060000000  0.5391380000000  0.5292890000000 1.0
C      1  0.5181470000000  0.6020690000000  0.4965290000000 1.0
C      1  0.5554380000000  0.5439580000000  0.5699360000000 1.0
C      1  0.5032920000000  0.5084980000000  0.5137120000000 1.0
C      1  0.4740170000000  0.4346510000000  0.4719320000000 1.0
C      1  0.5495630000000  0.4742160000000  0.4547210000000 1.0
C      1  0.5308310000000  0.3812700000000  0.4875000000000 1.0
C      1  0.4377930000000  0.3708700000000  0.4653520000000 1.0
C      1  0.4712970000000  0.4603650000000  0.5485160000000 1.0
C      1  0.5778800000000  0.4356160000000  0.4862070000000 1.0
C      1  0.4883650000000  0.5122110000000  0.4567090000000 1.0
C      1  0.5492490000000  0.4270300000000  0.4476350000000 1.0
C      1  0.5063600000000  0.4962480000000  0.5736960000000 1.0
C      1  0.6007290000000  0.4721730000000  0.5140840000000 1.0
C      1  0.4261320000000  0.4727390000000  0.5314870000000 1.0
C      1  0.5561720000000  0.4212550000000  0.4747210000000 1.0
C      1  0.5740130000000  0.5263890000000  0.5528880000000 1.0
C      1  0.4647850000000  0.5620140000000  0.5336980000000 1.0
C      1  0.6283220000000  0.4746150000000  0.5108470000000 1.0
C      1  0.4693170000000  0.4769940000000  0.5083330000000 1.0
C      1  0.4369230000000  0.5333250000000  0.5725570000000 1.0
C      1  0.4719980000000  0.5510710000000  0.4226080000000 1.0
C      1  0.5341180000000  0.5360160000000  0.5886400000000 1.0
C      1  0.5766230000000  0.5257010000000  0.5007300000000 1.0
C      1  0.5422540000000  0.4694810000000  0.5294530000000 1.0
C      1  0.5177940000000  0.4238400000000  0.5055310000000 1.0
C      1  0.4308610000000  0.5366540000000  0.4494960000000 1.0
C      1  0.4429460000000  0.4609080000000  0.5543280000000 1.0
C      1  0.5006140000000  0.5611920000000  0.5051230000000 1.0
C      1  0.4720750000000  0.5976610000000  0.4566540000000 1.0
C      1  0.4674420000000  0.4455490000000  0.5944920000000 1.0
C      1  0.5203680000000  0.5192150000000  0.4078730000000 1.0
C      1  0.5882570000000  0.4790020000000  0.5392690000000 1.0
C      1  0.5422920000000  0.4520040000000  0.4368310000000 1.0
C      1  0.5435010000000  0.5420180000000  0.4446700000000 1.0
C      1  0.5902890000000  0.5032360000000  0.5544100000000 1.0
C      1  0.5123570000000  0.5557260000000  0.5894460000000 1.0
C      1  0.4112690000000  0.5191140000000  0.5121550000000 1.0
C      1  0.4958020000000  0.5167430000000  0.5567530000000 1.0
C      1  0.4622810000000  0.3815540000000  0.4709570000000 1.0
C      1  0.5408620000000  0.5604930000000  0.5488480000000 1.0
C      1  0.4100110000000  0.5484310000000  0.5131920000000 1.0
C      1  0.4986130000000  0.4677290000000  0.5637920000000 1.0
END
