TITL C-627108-131-453 1182.03153668716 125000 -991.611508561857 0 0 160 (C1) n - 1
REM
REM in /home/nfs/bkarasulu/CARBON/AIRSS/Generating-Clusters/LCBOP/Only-C1/SD-CG/FIRE-CG
REM
REM
REM
REM
REM
REM ./C.cell (11c1c37f851c82e70ff6c80c92926a4b)
REM AIRSS Version 0.9.1 bugfix July 2018 build 013d7b7c2542+ Fri, 06 Jul 2018 19:26:36 +0100
REM compiler GCC version 9.2.1 20190827 (Red Hat 9.2.1-1)
REM options -cpp -mtune=generic -march=x86-64 -g -O0 -fpre-include=/usr/include/finclude/math-vector-fortran.h
REM seed -1523350544 2036758614 325211909 -1613664541 -746287097 -626827629 -989656129 -638028249 -1908596431 2101933768 -203819180 1370461611 -936188694 1817403516 -1718467573 -2052122064 1646344961 -1068537151 -1810233905 -1734180743 -504252137 -2023378400 1292829643 -1794521289 360514184 1416637400 2094350708 -635515802 1564419202 1762148702 2120970935 -119050009 -1020869606
REM
CELL 1.54180   50.00000   50.00000   50.00000   90.00000   90.00000   90.00000
LATT -1
SFAC C  
C      1  0.3520970000000  0.4996110000000  0.4497690000000 1.0
C      1  0.4683180000000  0.4273060000000  0.4381150000000 1.0
C      1  0.3961040000000  0.4844620000000  0.5065690000000 1.0
C      1  0.5526850000000  0.4592200000000  0.5004880000000 1.0
C      1  0.4862020000000  0.4383160000000  0.5877650000000 1.0
C      1  0.6407570000000  0.4913600000000  0.4908550000000 1.0
C      1  0.5284400000000  0.4550020000000  0.5147860000000 1.0
C      1  0.6085470000000  0.5386470000000  0.5423360000000 1.0
C      1  0.5774230000000  0.5764790000000  0.4841790000000 1.0
C      1  0.5798420000000  0.4146490000000  0.5156510000000 1.0
C      1  0.5031980000000  0.3918970000000  0.5443730000000 1.0
C      1  0.4713260000000  0.5453930000000  0.4751750000000 1.0
C      1  0.5405490000000  0.5590520000000  0.4161100000000 1.0
C      1  0.5177220000000  0.5856660000000  0.5655740000000 1.0
C      1  0.5812520000000  0.5625390000000  0.5093110000000 1.0
C      1  0.4793250000000  0.5194880000000  0.4682390000000 1.0
C      1  0.5865080000000  0.4322550000000  0.5383300000000 1.0
C      1  0.4508760000000  0.5122680000000  0.4032320000000 1.0
C      1  0.5832130000000  0.4823740000000  0.5277610000000 1.0
C      1  0.5328460000000  0.6012170000000  0.4890910000000 1.0
C      1  0.5039260000000  0.4969490000000  0.4330020000000 1.0
C      1  0.4149370000000  0.4891960000000  0.5285220000000 1.0
C      1  0.5561800000000  0.4301150000000  0.6066830000000 1.0
C      1  0.4718210000000  0.5123750000000  0.5301080000000 1.0
C      1  0.4280420000000  0.5478250000000  0.4475980000000 1.0
C      1  0.4735740000000  0.5574270000000  0.5203340000000 1.0
C      1  0.4627560000000  0.4704380000000  0.5223140000000 1.0
C      1  0.4417880000000  0.4231480000000  0.5358380000000 1.0
C      1  0.5334860000000  0.4412500000000  0.5940920000000 1.0
C      1  0.4376320000000  0.4268250000000  0.5908190000000 1.0
C      1  0.4079240000000  0.5497530000000  0.5145320000000 1.0
C      1  0.5807370000000  0.4229810000000  0.4883600000000 1.0
C      1  0.4365390000000  0.4957260000000  0.4621570000000 1.0
C      1  0.4725020000000  0.5630050000000  0.4523680000000 1.0
C      1  0.5066360000000  0.5352160000000  0.5487400000000 1.0
C      1  0.4514320000000  0.6198920000000  0.5057320000000 1.0
C      1  0.4971170000000  0.5582140000000  0.5344740000000 1.0
C      1  0.6126700000000  0.3985040000000  0.3980440000000 1.0
C      1  0.3953250000000  0.5743920000000  0.4768610000000 1.0
C      1  0.3632610000000  0.5989600000000  0.5327870000000 1.0
C      1  0.6223610000000  0.5394910000000  0.4944270000000 1.0
C      1  0.4881730000000  0.5859010000000  0.4531420000000 1.0
C      1  0.4958820000000  0.6048080000000  0.5219950000000 1.0
C      1  0.4372240000000  0.5946110000000  0.4655680000000 1.0
C      1  0.4284920000000  0.6048480000000  0.5536360000000 1.0
C      1  0.4501430000000  0.4158120000000  0.4857120000000 1.0
C      1  0.5865820000000  0.4019650000000  0.4440380000000 1.0
C      1  0.5954230000000  0.5659530000000  0.4645390000000 1.0
C      1  0.4731140000000  0.6013140000000  0.5759270000000 1.0
C      1  0.5545480000000  0.5213700000000  0.5067950000000 1.0
C      1  0.3936230000000  0.5720710000000  0.5051260000000 1.0
C      1  0.5539470000000  0.6356120000000  0.3564520000000 1.0
C      1  0.4295350000000  0.4480350000000  0.5734850000000 1.0
C      1  0.4772530000000  0.4017020000000  0.4500150000000 1.0
C      1  0.5503060000000  0.6037590000000  0.3981060000000 1.0
C      1  0.5496590000000  0.5522700000000  0.5463420000000 1.0
C      1  0.4691630000000  0.6140310000000  0.5279370000000 1.0
C      1  0.3889020000000  0.5935770000000  0.5233200000000 1.0
C      1  0.3993630000000  0.5066800000000  0.4393280000000 1.0
C      1  0.5735040000000  0.5085920000000  0.5660690000000 1.0
C      1  0.4448350000000  0.4710540000000  0.5785950000000 1.0
C      1  0.5973130000000  0.4699620000000  0.4803520000000 1.0
C      1  0.5034960000000  0.4546980000000  0.4551050000000 1.0
C      1  0.5584020000000  0.4262460000000  0.6334910000000 1.0
C      1  0.4732730000000  0.4935750000000  0.5095380000000 1.0
C      1  0.5329740000000  0.5460280000000  0.3923750000000 1.0
C      1  0.5165910000000  0.4658680000000  0.5384580000000 1.0
C      1  0.5000540000000  0.3808290000000  0.5182400000000 1.0
C      1  0.4762720000000  0.4675160000000  0.5729950000000 1.0
C      1  0.5596640000000  0.5474340000000  0.5199620000000 1.0
C      1  0.4345110000000  0.4680250000000  0.5291500000000 1.0
C      1  0.6079070000000  0.5411050000000  0.4693590000000 1.0
C      1  0.5724510000000  0.4049860000000  0.4677720000000 1.0
C      1  0.4690020000000  0.4252200000000  0.5419570000000 1.0
C      1  0.5276310000000  0.3874490000000  0.4550720000000 1.0
C      1  0.4045800000000  0.4337420000000  0.4918540000000 1.0
C      1  0.4647800000000  0.5276490000000  0.4221820000000 1.0
C      1  0.4638380000000  0.4242830000000  0.5983840000000 1.0
C      1  0.4677920000000  0.3950700000000  0.4766520000000 1.0
C      1  0.5497750000000  0.4049810000000  0.5503580000000 1.0
C      1  0.4841630000000  0.3818440000000  0.4961360000000 1.0
C      1  0.5872700000000  0.4965540000000  0.4811920000000 1.0
C      1  0.5763430000000  0.4508100000000  0.4858960000000 1.0
C      1  0.5481380000000  0.5862930000000  0.4196810000000 1.0
C      1  0.5443640000000  0.5752480000000  0.5628890000000 1.0
C      1  0.4474970000000  0.5446680000000  0.6213410000000 1.0
C      1  0.4640380000000  0.5387920000000  0.6001560000000 1.0
C      1  0.4654740000000  0.4397110000000  0.4857660000000 1.0
C      1  0.5064160000000  0.5846240000000  0.5389490000000 1.0
C      1  0.4939270000000  0.5828460000000  0.5828870000000 1.0
C      1  0.5996750000000  0.4001280000000  0.4210890000000 1.0
C      1  0.4269830000000  0.4448570000000  0.5449890000000 1.0
C      1  0.4218190000000  0.5194870000000  0.4525400000000 1.0
C      1  0.5003480000000  0.4851500000000  0.4071510000000 1.0
C      1  0.4828430000000  0.4628700000000  0.4096290000000 1.0
C      1  0.4574300000000  0.6089320000000  0.4803180000000 1.0
C      1  0.6254240000000  0.3969560000000  0.3753590000000 1.0
C      1  0.5109370000000  0.4388230000000  0.5001240000000 1.0
C      1  0.5347500000000  0.4670770000000  0.5837860000000 1.0
C      1  0.5761660000000  0.4234580000000  0.5880200000000 1.0
C      1  0.3392740000000  0.6039810000000  0.5416510000000 1.0
C      1  0.4828050000000  0.4987820000000  0.5748120000000 1.0
C      1  0.4889600000000  0.5012420000000  0.4876550000000 1.0
C      1  0.5126520000000  0.4258430000000  0.5816320000000 1.0
C      1  0.4111930000000  0.6093510000000  0.5314680000000 1.0
C      1  0.4362800000000  0.4991350000000  0.5759470000000 1.0
C      1  0.3780240000000  0.5022070000000  0.4579950000000 1.0
C      1  0.5533920000000  0.5949750000000  0.4460770000000 1.0
C      1  0.5353430000000  0.5171800000000  0.4855860000000 1.0
C      1  0.5458770000000  0.5056090000000  0.5592150000000 1.0
C      1  0.4928750000000  0.4444700000000  0.4798280000000 1.0
C      1  0.4188740000000  0.5726080000000  0.4609630000000 1.0
C      1  0.6404930000000  0.5178630000000  0.4959770000000 1.0
C      1  0.5399230000000  0.5436540000000  0.4394250000000 1.0
C      1  0.5032780000000  0.3916450000000  0.4445550000000 1.0
C      1  0.4466090000000  0.4488560000000  0.4365040000000 1.0
C      1  0.5054610000000  0.6058090000000  0.4948390000000 1.0
C      1  0.4890050000000  0.5142920000000  0.5517140000000 1.0
C      1  0.6072390000000  0.5504770000000  0.5165020000000 1.0
C      1  0.4089860000000  0.4918840000000  0.4163020000000 1.0
C      1  0.4823060000000  0.4573210000000  0.5422850000000 1.0
C      1  0.3938690000000  0.4566230000000  0.5002890000000 1.0
C      1  0.5111910000000  0.4997440000000  0.3858730000000 1.0
C      1  0.4361960000000  0.4880550000000  0.4063670000000 1.0
C      1  0.5485890000000  0.3900430000000  0.4736410000000 1.0
C      1  0.4182930000000  0.5040840000000  0.5535240000000 1.0
C      1  0.4852320000000  0.6041600000000  0.4743620000000 1.0
C      1  0.4392130000000  0.4688800000000  0.4565190000000 1.0
C      1  0.5461390000000  0.3836580000000  0.5013060000000 1.0
C      1  0.4843570000000  0.5580220000000  0.5936370000000 1.0
C      1  0.4537740000000  0.5511850000000  0.4341150000000 1.0
C      1  0.5957090000000  0.5226700000000  0.5598490000000 1.0
C      1  0.4835820000000  0.5150980000000  0.4401530000000 1.0
C      1  0.4578480000000  0.5491920000000  0.4994370000000 1.0
C      1  0.5948180000000  0.5168110000000  0.4632330000000 1.0
C      1  0.4569290000000  0.6081410000000  0.5538040000000 1.0
C      1  0.3850410000000  0.5006650000000  0.4859400000000 1.0
C      1  0.5551310000000  0.5919350000000  0.4743310000000 1.0
C      1  0.5319860000000  0.4802780000000  0.5589930000000 1.0
C      1  0.4912650000000  0.4443290000000  0.4310800000000 1.0
C      1  0.4319420000000  0.5414330000000  0.5062690000000 1.0
C      1  0.5228920000000  0.5235700000000  0.3817520000000 1.0
C      1  0.6237040000000  0.4687670000000  0.4930060000000 1.0
C      1  0.5164900000000  0.4958590000000  0.4804570000000 1.0
C      1  0.5978580000000  0.4577670000000  0.5330000000000 1.0
C      1  0.4788420000000  0.4021950000000  0.5530310000000 1.0
C      1  0.5521510000000  0.6198580000000  0.3771450000000 1.0
C      1  0.6225850000000  0.4567860000000  0.5187400000000 1.0
C      1  0.5374360000000  0.5353920000000  0.4643380000000 1.0
C      1  0.5144640000000  0.4811970000000  0.4548970000000 1.0
C      1  0.4115130000000  0.3870510000000  0.4846820000000 1.0
C      1  0.5720790000000  0.4211230000000  0.5605420000000 1.0
C      1  0.4243430000000  0.6250920000000  0.5118820000000 1.0
C      1  0.4596700000000  0.5140820000000  0.5864130000000 1.0
C      1  0.5575580000000  0.3971490000000  0.5232280000000 1.0
C      1  0.4220800000000  0.4122240000000  0.4873980000000 1.0
C      1  0.4528960000000  0.4649000000000  0.4114920000000 1.0
C      1  0.5753470000000  0.5016210000000  0.5073140000000 1.0
C      1  0.5333360000000  0.5303210000000  0.5540050000000 1.0
C      1  0.5229410000000  0.4062140000000  0.5602420000000 1.0
END
