TITL C-627107-135-1187 575.269050366694 125000 -667.765744126366 0 0 111 (C1) n - 1
REM
REM in /home/nfs/bkarasulu/CARBON/AIRSS/Generating-Clusters/LCBOP/Only-C1/SD-CG/FIRE-CG
REM
REM
REM
REM
REM
REM ./C.cell (11c1c37f851c82e70ff6c80c92926a4b)
REM AIRSS Version 0.9.1 bugfix July 2018 build 013d7b7c2542+ Fri, 06 Jul 2018 19:26:36 +0100
REM compiler GCC version 9.2.1 20190827 (Red Hat 9.2.1-1)
REM options -cpp -mtune=generic -march=x86-64 -g -O0 -fpre-include=/usr/include/finclude/math-vector-fortran.h
REM seed -2073404164 -485024205 -480764662 -1808875179 -1349192110 -1685254254 366941690 -1273745491 -1322344398 1710854859 -364318141 225054920 -898923822 -1503724741 -933715218 1829355276 484403883 129375136 1635793887 -1977645688 -1298374912 487364515 2133831579 -1251923788 -1467709154 -1396429091 725006698 -1114221264 679813017 978322720 -1755326459 -790114143 -1254119582
REM
CELL 1.54180   50.00000   50.00000   50.00000   90.00000   90.00000   90.00000
LATT -1
SFAC C  
C      1  0.5508490000000  0.5394970000000  0.5573930000000 1.0
C      1  0.4668880000000  0.4185120000000  0.4891760000000 1.0
C      1  0.5836520000000  0.6150680000000  0.5254100000000 1.0
C      1  0.5877520000000  0.5644060000000  0.5079510000000 1.0
C      1  0.5842190000000  0.5560710000000  0.4803720000000 1.0
C      1  0.5025920000000  0.6112510000000  0.4877220000000 1.0
C      1  0.4872340000000  0.5337800000000  0.5779340000000 1.0
C      1  0.4646140000000  0.4284790000000  0.5396720000000 1.0
C      1  0.4938300000000  0.4540760000000  0.4982860000000 1.0
C      1  0.4854210000000  0.4275400000000  0.4209960000000 1.0
C      1  0.4557890000000  0.5102420000000  0.5059300000000 1.0
C      1  0.5862110000000  0.5107210000000  0.4616480000000 1.0
C      1  0.5495930000000  0.5129770000000  0.4918030000000 1.0
C      1  0.4650880000000  0.4629630000000  0.5022140000000 1.0
C      1  0.5926080000000  0.5409790000000  0.5251520000000 1.0
C      1  0.4330010000000  0.4667620000000  0.4536940000000 1.0
C      1  0.4532550000000  0.4586530000000  0.4044790000000 1.0
C      1  0.4714630000000  0.4250270000000  0.3741840000000 1.0
C      1  0.4946050000000  0.5633260000000  0.5397540000000 1.0
C      1  0.3906670000000  0.5757150000000  0.5251800000000 1.0
C      1  0.4836310000000  0.4447440000000  0.5822560000000 1.0
C      1  0.4391360000000  0.5248560000000  0.4314920000000 1.0
C      1  0.5556740000000  0.4871580000000  0.5391100000000 1.0
C      1  0.5866790000000  0.5906450000000  0.5168440000000 1.0
C      1  0.4661080000000  0.5361760000000  0.5044610000000 1.0
C      1  0.5761180000000  0.5238690000000  0.6138070000000 1.0
C      1  0.5629970000000  0.5644440000000  0.4628410000000 1.0
C      1  0.5029150000000  0.4343200000000  0.5638390000000 1.0
C      1  0.5983610000000  0.4883230000000  0.5091110000000 1.0
C      1  0.5816030000000  0.4644340000000  0.5016610000000 1.0
C      1  0.4551040000000  0.4349060000000  0.5121060000000 1.0
C      1  0.4978060000000  0.4697950000000  0.5904960000000 1.0
C      1  0.5399520000000  0.4922070000000  0.6080240000000 1.0
C      1  0.5392670000000  0.5344270000000  0.5836340000000 1.0
C      1  0.5421140000000  0.4521500000000  0.5795360000000 1.0
C      1  0.5973490000000  0.5296370000000  0.4794390000000 1.0
C      1  0.4555130000000  0.5607840000000  0.5140000000000 1.0
C      1  0.5228950000000  0.4560200000000  0.4537000000000 1.0
C      1  0.4514780000000  0.5040550000000  0.4778880000000 1.0
C      1  0.5655750000000  0.4461250000000  0.5630760000000 1.0
C      1  0.5229230000000  0.4528530000000  0.5579340000000 1.0
C      1  0.4691010000000  0.4833260000000  0.5482150000000 1.0
C      1  0.5261840000000  0.5005610000000  0.4330550000000 1.0
C      1  0.4771410000000  0.4379130000000  0.4455730000000 1.0
C      1  0.4378810000000  0.5658520000000  0.5348780000000 1.0
C      1  0.5756340000000  0.4401940000000  0.5159400000000 1.0
C      1  0.4351100000000  0.5179760000000  0.4587840000000 1.0
C      1  0.5278340000000  0.4158340000000  0.5270500000000 1.0
C      1  0.5752150000000  0.4725780000000  0.5540700000000 1.0
C      1  0.4624960000000  0.4867980000000  0.5208920000000 1.0
C      1  0.5199850000000  0.5497060000000  0.4333390000000 1.0
C      1  0.5533810000000  0.5095620000000  0.5207190000000 1.0
C      1  0.4741950000000  0.5556520000000  0.4579670000000 1.0
C      1  0.5291930000000  0.4749090000000  0.5417600000000 1.0
C      1  0.4595820000000  0.4755560000000  0.4726520000000 1.0
C      1  0.4471800000000  0.4718490000000  0.5649560000000 1.0
C      1  0.5524440000000  0.5168420000000  0.6021000000000 1.0
C      1  0.6007430000000  0.5179790000000  0.5073480000000 1.0
C      1  0.4127710000000  0.5733400000000  0.5401970000000 1.0
C      1  0.5271020000000  0.4691140000000  0.5983520000000 1.0
C      1  0.5111050000000  0.4165940000000  0.4231850000000 1.0
C      1  0.3909160000000  0.5261650000000  0.4768340000000 1.0
C      1  0.4242050000000  0.5655220000000  0.4693810000000 1.0
C      1  0.5122940000000  0.4894120000000  0.5240300000000 1.0
C      1  0.4322880000000  0.4370510000000  0.4575690000000 1.0
C      1  0.3829680000000  0.4792430000000  0.4803220000000 1.0
C      1  0.5387010000000  0.4764310000000  0.4333600000000 1.0
C      1  0.5192980000000  0.4124720000000  0.5007890000000 1.0
C      1  0.4526890000000  0.5726180000000  0.4688710000000 1.0
C      1  0.4914620000000  0.5367170000000  0.5494750000000 1.0
C      1  0.5320470000000  0.5259040000000  0.4222730000000 1.0
C      1  0.5083200000000  0.5167340000000  0.5353230000000 1.0
C      1  0.5040740000000  0.5208200000000  0.4742100000000 1.0
C      1  0.4948470000000  0.4192990000000  0.5426650000000 1.0
C      1  0.4576330000000  0.4253230000000  0.4626520000000 1.0
C      1  0.4466240000000  0.4781090000000  0.4234130000000 1.0
C      1  0.3993200000000  0.5537380000000  0.4800750000000 1.0
C      1  0.5642850000000  0.4977180000000  0.4729900000000 1.0
C      1  0.4917510000000  0.5887460000000  0.4987050000000 1.0
C      1  0.4639060000000  0.5813960000000  0.4951980000000 1.0
C      1  0.4701550000000  0.4365770000000  0.3988210000000 1.0
C      1  0.4894400000000  0.4679320000000  0.4547480000000 1.0
C      1  0.5268820000000  0.5505020000000  0.5081670000000 1.0
C      1  0.5345670000000  0.4635460000000  0.4809590000000 1.0
C      1  0.5620130000000  0.4709560000000  0.4814910000000 1.0
C      1  0.5594810000000  0.4613550000000  0.4213020000000 1.0
C      1  0.4576220000000  0.4442560000000  0.5665610000000 1.0
C      1  0.5353310000000  0.5322400000000  0.5324000000000 1.0
C      1  0.5120320000000  0.5404900000000  0.5905400000000 1.0
C      1  0.4714670000000  0.5106920000000  0.5847460000000 1.0
C      1  0.5280310000000  0.5303590000000  0.4863830000000 1.0
C      1  0.4271710000000  0.5438700000000  0.4163540000000 1.0
C      1  0.5309100000000  0.4291780000000  0.4390010000000 1.0
C      1  0.3741140000000  0.5049490000000  0.4882770000000 1.0
C      1  0.4453290000000  0.4951620000000  0.5848360000000 1.0
C      1  0.5564420000000  0.4344710000000  0.4261970000000 1.0
C      1  0.4064340000000  0.4810190000000  0.4629010000000 1.0
C      1  0.4956760000000  0.4253820000000  0.4923880000000 1.0
C      1  0.5583810000000  0.4300590000000  0.5373670000000 1.0
C      1  0.4900440000000  0.5457750000000  0.4352710000000 1.0
C      1  0.4572680000000  0.5050570000000  0.4220930000000 1.0
C      1  0.4089140000000  0.5101310000000  0.4615370000000 1.0
C      1  0.4879240000000  0.4897740000000  0.5714690000000 1.0
C      1  0.5394310000000  0.5645780000000  0.4487910000000 1.0
C      1  0.4825120000000  0.5166150000000  0.4296630000000 1.0
C      1  0.5144040000000  0.4726890000000  0.4999120000000 1.0
C      1  0.4822350000000  0.5380580000000  0.4802490000000 1.0
C      1  0.3857310000000  0.5687520000000  0.4997540000000 1.0
C      1  0.5788670000000  0.5413250000000  0.5503450000000 1.0
C      1  0.4996830000000  0.5003200000000  0.4490810000000 1.0
C      1  0.5070810000000  0.5704040000000  0.5150250000000 1.0
END
