TITL C-627110-360-808 2.79680570202884e-05 125000 -409.449677736873 0 0 67 (C1) n - 1
REM
REM in /home/nfs/bkarasulu/CARBON/AIRSS/Generating-Clusters/LCBOP/Only-C1/SD-CG/FIRE-CG
REM
REM
REM
REM
REM
REM ./C.cell (11c1c37f851c82e70ff6c80c92926a4b)
REM AIRSS Version 0.9.1 bugfix July 2018 build 013d7b7c2542+ Fri, 06 Jul 2018 19:26:36 +0100
REM compiler GCC version 9.2.1 20190827 (Red Hat 9.2.1-1)
REM options -cpp -mtune=generic -march=x86-64 -g -O0 -fpre-include=/usr/include/finclude/math-vector-fortran.h
REM seed -1868814496 -346263652 1484642512 1599886834 -779015453 1327941001 -1750050154 -578903931 343994060 1948041555 1154164702 1848140796 -73272386 -1425707886 -1661719225 -106094711 1287198802 -866259541 -2065869733 -449474970 -827551817 -1858808100 2093749091 2012123888 -595824085 384627043 -529824312 169069451 -798571708 922599387 897226907 -96328164 682572447
REM
CELL 1.54180   50.00000   50.00000   50.00000   90.00000   90.00000   90.00000
LATT -1
SFAC C  
C      1  0.5050370000000  0.4662010000000  0.5777260000000 1.0
C      1  0.5687150000000  0.5198720000000  0.5234110000000 1.0
C      1  0.4082560000000  0.5050950000000  0.3780500000000 1.0
C      1  0.4441190000000  0.4853880000000  0.5529820000000 1.0
C      1  0.4037930000000  0.5048510000000  0.4293500000000 1.0
C      1  0.4783640000000  0.4751790000000  0.5859190000000 1.0
C      1  0.4763320000000  0.4156970000000  0.5094790000000 1.0
C      1  0.5348380000000  0.5417660000000  0.5496420000000 1.0
C      1  0.5697270000000  0.4572160000000  0.5278040000000 1.0
C      1  0.5417470000000  0.5122580000000  0.4516930000000 1.0
C      1  0.4501280000000  0.5268490000000  0.3586900000000 1.0
C      1  0.4771300000000  0.5711520000000  0.4623590000000 1.0
C      1  0.5663580000000  0.4736670000000  0.4635640000000 1.0
C      1  0.4546990000000  0.4665210000000  0.5733010000000 1.0
C      1  0.4423840000000  0.4706830000000  0.5279080000000 1.0
C      1  0.4834820000000  0.5800710000000  0.5123400000000 1.0
C      1  0.5752940000000  0.4913470000000  0.4841980000000 1.0
C      1  0.5500380000000  0.4782380000000  0.4172850000000 1.0
C      1  0.4426420000000  0.5127120000000  0.5603310000000 1.0
C      1  0.4829720000000  0.5468800000000  0.3928120000000 1.0
C      1  0.4267920000000  0.5143010000000  0.3613060000000 1.0
C      1  0.4179000000000  0.5130610000000  0.4520070000000 1.0
C      1  0.5240820000000  0.4890340000000  0.5805880000000 1.0
C      1  0.5605350000000  0.5126910000000  0.4964630000000 1.0
C      1  0.5392420000000  0.4333430000000  0.4723910000000 1.0
C      1  0.4953770000000  0.5649860000000  0.5308170000000 1.0
C      1  0.5064480000000  0.4444570000000  0.5596490000000 1.0
C      1  0.5524660000000  0.5196030000000  0.5473850000000 1.0
C      1  0.6207050000000  0.5354010000000  0.5293740000000 1.0
C      1  0.5465850000000  0.4704310000000  0.5250350000000 1.0
C      1  0.5847440000000  0.4359180000000  0.4871300000000 1.0
C      1  0.4853830000000  0.5500580000000  0.4190620000000 1.0
C      1  0.5525310000000  0.4874830000000  0.4427440000000 1.0
C      1  0.5079510000000  0.5092290000000  0.5943590000000 1.0
C      1  0.6711210000000  0.5492470000000  0.5349130000000 1.0
C      1  0.4469080000000  0.4408860000000  0.5630150000000 1.0
C      1  0.5953400000000  0.5283160000000  0.5265700000000 1.0
C      1  0.4776150000000  0.5824090000000  0.4864640000000 1.0
C      1  0.4265210000000  0.5302010000000  0.5459450000000 1.0
C      1  0.4516170000000  0.4221120000000  0.5175120000000 1.0
C      1  0.5461590000000  0.4984000000000  0.5654870000000 1.0
C      1  0.5012200000000  0.4924730000000  0.5178740000000 1.0
C      1  0.4049410000000  0.5230900000000  0.4746670000000 1.0
C      1  0.4038310000000  0.5325470000000  0.4994540000000 1.0
C      1  0.6461220000000  0.5423820000000  0.5321660000000 1.0
C      1  0.4122140000000  0.5362310000000  0.5243860000000 1.0
C      1  0.5090400000000  0.5205170000000  0.5169470000000 1.0
C      1  0.5121900000000  0.5243600000000  0.4881160000000 1.0
C      1  0.5114110000000  0.5424670000000  0.5343440000000 1.0
C      1  0.4875220000000  0.5118080000000  0.4775690000000 1.0
C      1  0.4784640000000  0.5484180000000  0.4460460000000 1.0
C      1  0.5019080000000  0.4271190000000  0.5105710000000 1.0
C      1  0.4796980000000  0.4915610000000  0.4974390000000 1.0
C      1  0.5075050000000  0.4457620000000  0.5314730000000 1.0
C      1  0.4001720000000  0.5018850000000  0.4031920000000 1.0
C      1  0.4712880000000  0.5232900000000  0.4576320000000 1.0
C      1  0.4595100000000  0.5197600000000  0.5820570000000 1.0
C      1  0.4459340000000  0.5129610000000  0.4518400000000 1.0
C      1  0.4706800000000  0.5387530000000  0.3706870000000 1.0
C      1  0.5386310000000  0.5211090000000  0.4787190000000 1.0
C      1  0.5194060000000  0.4254970000000  0.4885310000000 1.0
C      1  0.4550630000000  0.4805970000000  0.5048920000000 1.0
C      1  0.4798590000000  0.5037260000000  0.5931140000000 1.0
C      1  0.4420100000000  0.4420090000000  0.5344620000000 1.0
C      1  0.5185710000000  0.4707610000000  0.5231770000000 1.0
C      1  0.5643500000000  0.4460030000000  0.4700950000000 1.0
C      1  0.5863830000000  0.4417040000000  0.5134920000000 1.0
END
