TITL C-627107-135-1658 2.00751226121239e-07 125000 -357.888580548372 0 0 60 (C1) n - 1
REM
REM in /home/nfs/bkarasulu/CARBON/AIRSS/Generating-Clusters/LCBOP/Only-C1/SD-CG/FIRE-CG
REM
REM
REM
REM
REM
REM ./C.cell (11c1c37f851c82e70ff6c80c92926a4b)
REM AIRSS Version 0.9.1 bugfix July 2018 build 013d7b7c2542+ Fri, 06 Jul 2018 19:26:36 +0100
REM compiler GCC version 9.2.1 20190827 (Red Hat 9.2.1-1)
REM options -cpp -mtune=generic -march=x86-64 -g -O0 -fpre-include=/usr/include/finclude/math-vector-fortran.h
REM seed 1318166531 1389571305 -241407668 327580794 -1935015552 1397687522 1301174173 1423759914 877565344 1207582437 146418573 -1398015419 -1045186450 -748260504 -1295486773 -1442345782 -843017592 995688754 -551021496 -1226901164 1601677580 -949545235 -1115300161 -1345762284 -1905915350 -226163668 -1348313791 -1167659143 -89418868 -2045996918 1011820098 1030004466 -1040725833
REM
CELL 1.54180   50.00000   50.00000   50.00000   90.00000   90.00000   90.00000
LATT -1
SFAC C  
C      1  0.4464810000000  0.5188110000000  0.4886720000000 1.0
C      1  0.5154700000000  0.5492510000000  0.4270880000000 1.0
C      1  0.5516980000000  0.5615620000000  0.4931930000000 1.0
C      1  0.5088400000000  0.4796410000000  0.4869600000000 1.0
C      1  0.5608530000000  0.4696490000000  0.4318680000000 1.0
C      1  0.4652740000000  0.5782300000000  0.4745950000000 1.0
C      1  0.4732070000000  0.5578330000000  0.5203220000000 1.0
C      1  0.5273680000000  0.5240210000000  0.4239240000000 1.0
C      1  0.4263240000000  0.5461650000000  0.5732780000000 1.0
C      1  0.5114100000000  0.4656340000000  0.5542590000000 1.0
C      1  0.5056580000000  0.4801250000000  0.4368030000000 1.0
C      1  0.5199350000000  0.5175650000000  0.5636520000000 1.0
C      1  0.5738600000000  0.4918640000000  0.3890170000000 1.0
C      1  0.5193210000000  0.4411760000000  0.5634670000000 1.0
C      1  0.4703580000000  0.3963290000000  0.5060380000000 1.0
C      1  0.4640420000000  0.4384550000000  0.5653330000000 1.0
C      1  0.4483080000000  0.5396720000000  0.5574440000000 1.0
C      1  0.4648620000000  0.4477020000000  0.5051400000000 1.0
C      1  0.4671730000000  0.3764030000000  0.5759210000000 1.0
C      1  0.4658560000000  0.4176900000000  0.5467720000000 1.0
C      1  0.5821380000000  0.5398040000000  0.4633390000000 1.0
C      1  0.5102270000000  0.5316940000000  0.5002670000000 1.0
C      1  0.5269620000000  0.4798820000000  0.5356260000000 1.0
C      1  0.5605550000000  0.4961010000000  0.4725250000000 1.0
C      1  0.4707540000000  0.5117680000000  0.4795420000000 1.0
C      1  0.5920050000000  0.4917420000000  0.3396860000000 1.0
C      1  0.5830270000000  0.4917860000000  0.3641600000000 1.0
C      1  0.4789710000000  0.5765550000000  0.4992330000000 1.0
C      1  0.5310900000000  0.4792310000000  0.5074110000000 1.0
C      1  0.4411510000000  0.4623840000000  0.5094770000000 1.0
C      1  0.4870880000000  0.4605040000000  0.4939410000000 1.0
C      1  0.5380540000000  0.5055110000000  0.5454560000000 1.0
C      1  0.5489650000000  0.4738240000000  0.4575120000000 1.0
C      1  0.4354570000000  0.5318850000000  0.5095990000000 1.0
C      1  0.4983250000000  0.5089260000000  0.4865730000000 1.0
C      1  0.5548140000000  0.5162290000000  0.4285740000000 1.0
C      1  0.4049620000000  0.5515560000000  0.5879900000000 1.0
C      1  0.4928780000000  0.5086280000000  0.5684230000000 1.0
C      1  0.5244030000000  0.5564930000000  0.4936390000000 1.0
C      1  0.5575330000000  0.5121110000000  0.5247090000000 1.0
C      1  0.4743620000000  0.5730390000000  0.4497210000000 1.0
C      1  0.4706350000000  0.5259810000000  0.5684440000000 1.0
C      1  0.5092540000000  0.5021470000000  0.4216790000000 1.0
C      1  0.5752520000000  0.5585340000000  0.4811540000000 1.0
C      1  0.5638220000000  0.4923600000000  0.4147990000000 1.0
C      1  0.4407550000000  0.4787570000000  0.5553610000000 1.0
C      1  0.5542410000000  0.4964330000000  0.5002050000000 1.0
C      1  0.3839040000000  0.5567940000000  0.6024380000000 1.0
C      1  0.4488750000000  0.5466770000000  0.5296710000000 1.0
C      1  0.4948490000000  0.5393740000000  0.5233670000000 1.0
C      1  0.5203300000000  0.4727470000000  0.4598410000000 1.0
C      1  0.4944190000000  0.5641190000000  0.4343560000000 1.0
C      1  0.4308690000000  0.4756670000000  0.5304790000000 1.0
C      1  0.4678210000000  0.3890110000000  0.5519510000000 1.0
C      1  0.4639590000000  0.4667080000000  0.5660610000000 1.0
C      1  0.5668120000000  0.5181310000000  0.4549030000000 1.0
C      1  0.4706510000000  0.3770200000000  0.5258050000000 1.0
C      1  0.5072880000000  0.5793590000000  0.4956030000000 1.0
C      1  0.4890090000000  0.4801510000000  0.5651840000000 1.0
C      1  0.4672360000000  0.4225940000000  0.5175530000000 1.0
END
