TITL C-627112-676-511 1.16816794098231 125000 -1211.14912331861 0 0 198 (C1) n - 1
REM
REM in /home/nfs/bkarasulu/CARBON/AIRSS/Generating-Clusters/LCBOP/Only-C1/SD-CG/FIRE-CG
REM
REM
REM
REM
REM
REM ./C.cell (11c1c37f851c82e70ff6c80c92926a4b)
REM AIRSS Version 0.9.1 bugfix July 2018 build 013d7b7c2542+ Fri, 06 Jul 2018 19:26:36 +0100
REM compiler GCC version 9.2.1 20190827 (Red Hat 9.2.1-1)
REM options -cpp -mtune=generic -march=x86-64 -g -O0 -fpre-include=/usr/include/finclude/math-vector-fortran.h
REM seed -1477689393 -836503953 -334556872 -1603878883 -124911378 836090336 38216242 -2059343991 -1869162857 1777064270 -668750483 771176737 1068591585 -916956007 1267287322 -1012409997 1369359957 1653964638 -881820372 614758723 793490257 -2092836251 -2019987712 -512761545 1214605981 917676215 -1331621038 -959049308 -1021132913 -359883021 -1093186177 2136657282 30192712
REM
CELL 1.54180   50.00000   50.00000   50.00000   90.00000   90.00000   90.00000
LATT -1
SFAC C  
C      1  0.5185480000000  0.4089710000000  0.4970160000000 1.0
C      1  0.4977880000000  0.4299260000000  0.4932720000000 1.0
C      1  0.3775870000000  0.5367580000000  0.3999240000000 1.0
C      1  0.4587190000000  0.5414450000000  0.6012600000000 1.0
C      1  0.5585260000000  0.4413040000000  0.5780840000000 1.0
C      1  0.4613990000000  0.4251640000000  0.5282860000000 1.0
C      1  0.4910140000000  0.5441890000000  0.5614910000000 1.0
C      1  0.4615420000000  0.4912290000000  0.3928290000000 1.0
C      1  0.4526060000000  0.5943440000000  0.4518830000000 1.0
C      1  0.3950900000000  0.4458130000000  0.5821280000000 1.0
C      1  0.4985090000000  0.4440840000000  0.4332070000000 1.0
C      1  0.3423410000000  0.4813120000000  0.5312490000000 1.0
C      1  0.5458690000000  0.5605400000000  0.4764890000000 1.0
C      1  0.5610890000000  0.6056560000000  0.5118690000000 1.0
C      1  0.3892770000000  0.4931610000000  0.5343870000000 1.0
C      1  0.5894450000000  0.3968740000000  0.5131290000000 1.0
C      1  0.4536420000000  0.4048270000000  0.3894520000000 1.0
C      1  0.6301930000000  0.4625860000000  0.4373040000000 1.0
C      1  0.4435950000000  0.4604510000000  0.4864110000000 1.0
C      1  0.5625540000000  0.3907000000000  0.5190960000000 1.0
C      1  0.5947810000000  0.5508550000000  0.4873160000000 1.0
C      1  0.4103590000000  0.5112820000000  0.5293010000000 1.0
C      1  0.4418450000000  0.5260910000000  0.6181160000000 1.0
C      1  0.5095670000000  0.6019610000000  0.5627130000000 1.0
C      1  0.5286630000000  0.5384610000000  0.6060400000000 1.0
C      1  0.4970640000000  0.3866110000000  0.5625060000000 1.0
C      1  0.4991430000000  0.4524090000000  0.5381280000000 1.0
C      1  0.4482790000000  0.4354870000000  0.4724480000000 1.0
C      1  0.5879630000000  0.5067200000000  0.5977950000000 1.0
C      1  0.5472930000000  0.4415780000000  0.4450770000000 1.0
C      1  0.5012920000000  0.5791400000000  0.4404150000000 1.0
C      1  0.4785860000000  0.5135730000000  0.5137350000000 1.0
C      1  0.4478630000000  0.5208970000000  0.5603440000000 1.0
C      1  0.4865740000000  0.5856890000000  0.4178250000000 1.0
C      1  0.5299000000000  0.5335390000000  0.5259580000000 1.0
C      1  0.3641880000000  0.5466000000000  0.5237980000000 1.0
C      1  0.6271760000000  0.6390040000000  0.4455770000000 1.0
C      1  0.5353550000000  0.4970390000000  0.4330120000000 1.0
C      1  0.5973830000000  0.5514810000000  0.5778520000000 1.0
C      1  0.5445560000000  0.4926950000000  0.5306500000000 1.0
C      1  0.5095560000000  0.4879740000000  0.3924150000000 1.0
C      1  0.6307730000000  0.4833100000000  0.4970310000000 1.0
C      1  0.4746060000000  0.4159320000000  0.4002370000000 1.0
C      1  0.4293090000000  0.4282350000000  0.4526000000000 1.0
C      1  0.5377650000000  0.5315810000000  0.4756240000000 1.0
C      1  0.5007450000000  0.4082670000000  0.5777580000000 1.0
C      1  0.5380250000000  0.3967990000000  0.5105170000000 1.0
C      1  0.4580700000000  0.5844640000000  0.4245260000000 1.0
C      1  0.4649960000000  0.4678280000000  0.5666340000000 1.0
C      1  0.6062730000000  0.4415610000000  0.5732210000000 1.0
C      1  0.4208040000000  0.4567760000000  0.5818530000000 1.0
C      1  0.4398660000000  0.4425420000000  0.5350390000000 1.0
C      1  0.4921830000000  0.5739190000000  0.3925700000000 1.0
C      1  0.4826680000000  0.5292880000000  0.3724670000000 1.0
C      1  0.5807270000000  0.4496290000000  0.5336500000000 1.0
C      1  0.4262640000000  0.5371360000000  0.6386240000000 1.0
C      1  0.4007610000000  0.5175030000000  0.4376810000000 1.0
C      1  0.3875710000000  0.5622350000000  0.5286050000000 1.0
C      1  0.6055560000000  0.4089960000000  0.5330100000000 1.0
C      1  0.5426920000000  0.3847850000000  0.4312850000000 1.0
C      1  0.5667610000000  0.5874510000000  0.5555900000000 1.0
C      1  0.6101330000000  0.6259910000000  0.4604030000000 1.0
C      1  0.4081620000000  0.5552250000000  0.5490310000000 1.0
C      1  0.6445170000000  0.5447880000000  0.4916240000000 1.0
C      1  0.4194940000000  0.4023490000000  0.4501840000000 1.0
C      1  0.5855260000000  0.5741580000000  0.5693080000000 1.0
C      1  0.6443620000000  0.4959060000000  0.4755120000000 1.0
C      1  0.3631140000000  0.4982690000000  0.5239710000000 1.0
C      1  0.4568920000000  0.5222520000000  0.4267860000000 1.0
C      1  0.5198790000000  0.4450260000000  0.4523530000000 1.0
C      1  0.5872210000000  0.4596800000000  0.5076470000000 1.0
C      1  0.4223430000000  0.4991710000000  0.4419560000000 1.0
C      1  0.4482700000000  0.5632450000000  0.4053590000000 1.0
C      1  0.5761820000000  0.5960800000000  0.4903250000000 1.0
C      1  0.5222800000000  0.5240720000000  0.4991570000000 1.0
C      1  0.3621080000000  0.4732960000000  0.6364950000000 1.0
C      1  0.4269370000000  0.4763710000000  0.6015680000000 1.0
C      1  0.5006540000000  0.3561470000000  0.4908440000000 1.0
C      1  0.3681130000000  0.4486550000000  0.5895570000000 1.0
C      1  0.5104430000000  0.3594030000000  0.4661760000000 1.0
C      1  0.3620740000000  0.4567030000000  0.6157260000000 1.0
C      1  0.5063170000000  0.4357120000000  0.5816620000000 1.0
C      1  0.5098950000000  0.4539150000000  0.4784220000000 1.0
C      1  0.6165570000000  0.5059390000000  0.4357000000000 1.0
C      1  0.5279180000000  0.6112050000000  0.6063950000000 1.0
C      1  0.5008290000000  0.5043360000000  0.4982600000000 1.0
C      1  0.4368090000000  0.4988370000000  0.6121350000000 1.0
C      1  0.4907260000000  0.4544080000000  0.5652080000000 1.0
C      1  0.4462620000000  0.5541560000000  0.5164350000000 1.0
C      1  0.5252230000000  0.5653680000000  0.5932790000000 1.0
C      1  0.6014380000000  0.4335250000000  0.5462460000000 1.0
C      1  0.5792580000000  0.5324830000000  0.4054540000000 1.0
C      1  0.4001990000000  0.5358200000000  0.4154870000000 1.0
C      1  0.5815280000000  0.4782920000000  0.6021920000000 1.0
C      1  0.5550140000000  0.5367090000000  0.6204710000000 1.0
C      1  0.5355690000000  0.3984460000000  0.4073020000000 1.0
C      1  0.4896060000000  0.6206960000000  0.5632710000000 1.0
C      1  0.5577180000000  0.4533790000000  0.5514940000000 1.0
C      1  0.4212000000000  0.4491480000000  0.4355520000000 1.0
C      1  0.5940400000000  0.4005770000000  0.4855100000000 1.0
C      1  0.4220550000000  0.5528150000000  0.4086760000000 1.0
C      1  0.4721390000000  0.5527990000000  0.3877450000000 1.0
C      1  0.4952660000000  0.3599840000000  0.5167590000000 1.0
C      1  0.4122610000000  0.3770310000000  0.4472660000000 1.0
C      1  0.4421980000000  0.6276500000000  0.5321640000000 1.0
C      1  0.5336460000000  0.4710030000000  0.6010030000000 1.0
C      1  0.4041500000000  0.5323130000000  0.6527700000000 1.0
C      1  0.6031630000000  0.4833760000000  0.5017690000000 1.0
C      1  0.3481350000000  0.4491150000000  0.5699220000000 1.0
C      1  0.5450100000000  0.5063010000000  0.4594270000000 1.0
C      1  0.5661300000000  0.4357300000000  0.4654580000000 1.0
C      1  0.5930090000000  0.6124010000000  0.4753670000000 1.0
C      1  0.3843530000000  0.5214750000000  0.4606360000000 1.0
C      1  0.3848910000000  0.5222510000000  0.4886920000000 1.0
C      1  0.4846010000000  0.4702700000000  0.4326250000000 1.0
C      1  0.4532220000000  0.4838560000000  0.4735420000000 1.0
C      1  0.4472130000000  0.5136460000000  0.4029410000000 1.0
C      1  0.4212460000000  0.5282460000000  0.5497510000000 1.0
C      1  0.5752780000000  0.5209810000000  0.5509890000000 1.0
C      1  0.5906170000000  0.5446460000000  0.4270240000000 1.0
C      1  0.4777380000000  0.5531550000000  0.4753060000000 1.0
C      1  0.5846780000000  0.4522650000000  0.5886590000000 1.0
C      1  0.4656590000000  0.5392090000000  0.5739360000000 1.0
C      1  0.4437850000000  0.5795160000000  0.5296790000000 1.0
C      1  0.6029720000000  0.5281040000000  0.4465460000000 1.0
C      1  0.4407520000000  0.4524270000000  0.5619570000000 1.0
C      1  0.6354390000000  0.4885590000000  0.4495310000000 1.0
C      1  0.4949870000000  0.5544940000000  0.4528650000000 1.0
C      1  0.5778160000000  0.5039570000000  0.4053030000000 1.0
C      1  0.5207820000000  0.5925870000000  0.5874740000000 1.0
C      1  0.5083430000000  0.4882770000000  0.4220200000000 1.0
C      1  0.5039190000000  0.5961460000000  0.4635830000000 1.0
C      1  0.4269360000000  0.5917750000000  0.4647940000000 1.0
C      1  0.5869430000000  0.5016790000000  0.4854830000000 1.0
C      1  0.5589690000000  0.4439390000000  0.4188760000000 1.0
C      1  0.4713160000000  0.5408230000000  0.5177340000000 1.0
C      1  0.4101190000000  0.5233850000000  0.5028510000000 1.0
C      1  0.5402870000000  0.4467770000000  0.3968560000000 1.0
C      1  0.5717400000000  0.4569450000000  0.4823810000000 1.0
C      1  0.3834630000000  0.5160570000000  0.6569490000000 1.0
C      1  0.4589990000000  0.4727120000000  0.4152530000000 1.0
C      1  0.4994830000000  0.4814180000000  0.4800350000000 1.0
C      1  0.4266960000000  0.5767570000000  0.5521710000000 1.0
C      1  0.5524050000000  0.4924750000000  0.4086850000000 1.0
C      1  0.6011820000000  0.4910960000000  0.4156090000000 1.0
C      1  0.4311370000000  0.5410970000000  0.4964180000000 1.0
C      1  0.4055860000000  0.3520190000000  0.4441920000000 1.0
C      1  0.5105930000000  0.5483760000000  0.5409720000000 1.0
C      1  0.4946080000000  0.3704730000000  0.5413420000000 1.0
C      1  0.4519200000000  0.6050710000000  0.5198890000000 1.0
C      1  0.4389510000000  0.5069930000000  0.4646350000000 1.0
C      1  0.5867740000000  0.4450210000000  0.4152300000000 1.0
C      1  0.5240790000000  0.3687360000000  0.4451690000000 1.0
C      1  0.5905680000000  0.5239610000000  0.5743040000000 1.0
C      1  0.5773680000000  0.4094620000000  0.4646410000000 1.0
C      1  0.6542310000000  0.5218040000000  0.4814010000000 1.0
C      1  0.5435640000000  0.4857520000000  0.5040530000000 1.0
C      1  0.5068700000000  0.5342050000000  0.6269720000000 1.0
C      1  0.4779580000000  0.5134510000000  0.4436510000000 1.0
C      1  0.3954700000000  0.5796530000000  0.5066570000000 1.0
C      1  0.5204500000000  0.5930370000000  0.5375820000000 1.0
C      1  0.4596900000000  0.4949760000000  0.5604970000000 1.0
C      1  0.4879630000000  0.5597630000000  0.5024640000000 1.0
C      1  0.5490220000000  0.5961570000000  0.5352340000000 1.0
C      1  0.4862360000000  0.5011890000000  0.3816110000000 1.0
C      1  0.4322280000000  0.4742150000000  0.4285490000000 1.0
C      1  0.5316840000000  0.4890220000000  0.5783200000000 1.0
C      1  0.4790110000000  0.4860670000000  0.4578430000000 1.0
C      1  0.4866480000000  0.4352610000000  0.5201590000000 1.0
C      1  0.4322270000000  0.4581910000000  0.5124280000000 1.0
C      1  0.5518040000000  0.5193770000000  0.5364410000000 1.0
C      1  0.5564270000000  0.4761690000000  0.6171500000000 1.0
C      1  0.5727460000000  0.5683390000000  0.4842930000000 1.0
C      1  0.5270570000000  0.5835650000000  0.4763700000000 1.0
C      1  0.5321980000000  0.4438430000000  0.5914260000000 1.0
C      1  0.3635620000000  0.5224280000000  0.5084300000000 1.0
C      1  0.5361950000000  0.4750110000000  0.3898300000000 1.0
C      1  0.5000650000000  0.5299630000000  0.4422660000000 1.0
C      1  0.5234260000000  0.4229660000000  0.3986810000000 1.0
C      1  0.4475120000000  0.5337090000000  0.4744050000000 1.0
C      1  0.4977540000000  0.4275180000000  0.4102780000000 1.0
C      1  0.5781670000000  0.5230230000000  0.6194160000000 1.0
C      1  0.5418950000000  0.4771740000000  0.5531190000000 1.0
C      1  0.5121770000000  0.5812770000000  0.3757230000000 1.0
C      1  0.5662400000000  0.3919470000000  0.4453780000000 1.0
C      1  0.6075750000000  0.4630620000000  0.4190560000000 1.0
C      1  0.6208950000000  0.5570360000000  0.4963370000000 1.0
C      1  0.4729920000000  0.4224190000000  0.4770710000000 1.0
C      1  0.4083610000000  0.5877700000000  0.4841610000000 1.0
C      1  0.4888680000000  0.5339650000000  0.3458180000000 1.0
C      1  0.3690260000000  0.4945340000000  0.6509230000000 1.0
C      1  0.4755030000000  0.6029800000000  0.4700700000000 1.0
C      1  0.3377100000000  0.4618400000000  0.5489410000000 1.0
C      1  0.5056730000000  0.5721020000000  0.5235340000000 1.0
C      1  0.5938150000000  0.5262890000000  0.4733140000000 1.0
C      1  0.4678730000000  0.6084060000000  0.4968580000000 1.0
C      1  0.5605390000000  0.4865360000000  0.4791480000000 1.0
C      1  0.5271730000000  0.5159830000000  0.5855280000000 1.0
END
