TITL C-627107-135-1736 3.4232911100592e-07 125000 -794.831720711685 0 0 130 (C1) n - 1
REM
REM in /home/nfs/bkarasulu/CARBON/AIRSS/Generating-Clusters/LCBOP/Only-C1/SD-CG/FIRE-CG
REM
REM
REM
REM
REM
REM ./C.cell (11c1c37f851c82e70ff6c80c92926a4b)
REM AIRSS Version 0.9.1 bugfix July 2018 build 013d7b7c2542+ Fri, 06 Jul 2018 19:26:36 +0100
REM compiler GCC version 9.2.1 20190827 (Red Hat 9.2.1-1)
REM options -cpp -mtune=generic -march=x86-64 -g -O0 -fpre-include=/usr/include/finclude/math-vector-fortran.h
REM seed -1409234818 477462812 1427313363 1769727223 2013569800 -1520127812 -1998428526 -301089496 1468185885 1885259247 341954198 1855266065 -989754597 -1714177221 -1661379050 573837270 87418277 -1431651013 1846936074 720291820 -70315682 -1989800437 -1790082710 -1427288971 -2022758834 193318221 1179099189 -1229137455 -1180563666 -1419259677 698098380 1786279716 -881856611
REM
CELL 1.54180   50.00000   50.00000   50.00000   90.00000   90.00000   90.00000
LATT -1
SFAC C  
C      1  0.5228380000000  0.5306590000000  0.4471480000000 1.0
C      1  0.5400800000000  0.5880710000000  0.5318970000000 1.0
C      1  0.4453010000000  0.4922850000000  0.5021520000000 1.0
C      1  0.4883660000000  0.4813670000000  0.4156400000000 1.0
C      1  0.4256450000000  0.5491360000000  0.5726690000000 1.0
C      1  0.4867280000000  0.4522210000000  0.4710970000000 1.0
C      1  0.4843300000000  0.4950540000000  0.5822140000000 1.0
C      1  0.4905290000000  0.4224580000000  0.4691130000000 1.0
C      1  0.4625160000000  0.3908770000000  0.4997230000000 1.0
C      1  0.4697500000000  0.4460290000000  0.5444230000000 1.0
C      1  0.5629630000000  0.5695810000000  0.4495370000000 1.0
C      1  0.4804450000000  0.3639890000000  0.4435710000000 1.0
C      1  0.4592320000000  0.4914380000000  0.4341510000000 1.0
C      1  0.6075390000000  0.6035270000000  0.5579500000000 1.0
C      1  0.4451900000000  0.4438190000000  0.5900540000000 1.0
C      1  0.4769160000000  0.4172470000000  0.5421120000000 1.0
C      1  0.5128640000000  0.6374410000000  0.4827630000000 1.0
C      1  0.4685780000000  0.5898610000000  0.5012900000000 1.0
C      1  0.6024370000000  0.4914320000000  0.4909990000000 1.0
C      1  0.4441280000000  0.5513880000000  0.5091340000000 1.0
C      1  0.4369490000000  0.4763550000000  0.5244140000000 1.0
C      1  0.5714130000000  0.5950260000000  0.4961310000000 1.0
C      1  0.4317100000000  0.5504060000000  0.4600470000000 1.0
C      1  0.5119340000000  0.5474560000000  0.5462830000000 1.0
C      1  0.4237120000000  0.5576510000000  0.4881710000000 1.0
C      1  0.3933250000000  0.4941160000000  0.5174480000000 1.0
C      1  0.4232490000000  0.4564510000000  0.5802830000000 1.0
C      1  0.4656910000000  0.5402980000000  0.4897540000000 1.0
C      1  0.5343370000000  0.4644760000000  0.5190490000000 1.0
C      1  0.3874770000000  0.5087460000000  0.4644650000000 1.0
C      1  0.5599460000000  0.5923720000000  0.5517340000000 1.0
C      1  0.5453590000000  0.4938760000000  0.5862460000000 1.0
C      1  0.5160560000000  0.5387470000000  0.5739810000000 1.0
C      1  0.5501810000000  0.5205900000000  0.4433680000000 1.0
C      1  0.5460560000000  0.6027470000000  0.5075090000000 1.0
C      1  0.4063850000000  0.5071430000000  0.4421510000000 1.0
C      1  0.5894790000000  0.4490040000000  0.5121570000000 1.0
C      1  0.5734650000000  0.5876190000000  0.4689140000000 1.0
C      1  0.5537440000000  0.4453220000000  0.5640450000000 1.0
C      1  0.5877760000000  0.5074500000000  0.5118040000000 1.0
C      1  0.5167560000000  0.4103320000000  0.4712490000000 1.0
C      1  0.5278670000000  0.5531380000000  0.5014400000000 1.0
C      1  0.5003990000000  0.4874060000000  0.5593810000000 1.0
C      1  0.5108110000000  0.5040730000000  0.5170480000000 1.0
C      1  0.4946680000000  0.4076480000000  0.4176620000000 1.0
C      1  0.5093900000000  0.4665070000000  0.4566860000000 1.0
C      1  0.5908860000000  0.4667540000000  0.5347370000000 1.0
C      1  0.5504890000000  0.4269210000000  0.5413200000000 1.0
C      1  0.4988910000000  0.5172910000000  0.4453950000000 1.0
C      1  0.5896860000000  0.5844340000000  0.5159600000000 1.0
C      1  0.4683490000000  0.4078270000000  0.4778190000000 1.0
C      1  0.4495840000000  0.5990080000000  0.5199240000000 1.0
C      1  0.5099600000000  0.5633440000000  0.4817080000000 1.0
C      1  0.5393180000000  0.5285870000000  0.4933880000000 1.0
C      1  0.4720880000000  0.3550800000000  0.4675550000000 1.0
C      1  0.4421810000000  0.5063670000000  0.4116360000000 1.0
C      1  0.4626720000000  0.5533810000000  0.5345680000000 1.0
C      1  0.4281240000000  0.4911790000000  0.4538840000000 1.0
C      1  0.4458430000000  0.4505170000000  0.5300600000000 1.0
C      1  0.4661830000000  0.5117980000000  0.5013920000000 1.0
C      1  0.4200420000000  0.5233660000000  0.4221820000000 1.0
C      1  0.5749670000000  0.4907520000000  0.5316480000000 1.0
C      1  0.5005430000000  0.4338090000000  0.4186750000000 1.0
C      1  0.5065110000000  0.4590000000000  0.5220540000000 1.0
C      1  0.5011120000000  0.4143180000000  0.5582040000000 1.0
C      1  0.5627620000000  0.4666150000000  0.4415830000000 1.0
C      1  0.4436300000000  0.5296900000000  0.5807660000000 1.0
C      1  0.5869810000000  0.5939960000000  0.5429290000000 1.0
C      1  0.5357020000000  0.5754530000000  0.4404330000000 1.0
C      1  0.4444130000000  0.5674040000000  0.4165810000000 1.0
C      1  0.4942120000000  0.5869000000000  0.4127850000000 1.0
C      1  0.5087380000000  0.4947170000000  0.4007870000000 1.0
C      1  0.4098260000000  0.4196010000000  0.5130800000000 1.0
C      1  0.4270340000000  0.5502170000000  0.4313320000000 1.0
C      1  0.4878740000000  0.3831890000000  0.4263500000000 1.0
C      1  0.5847890000000  0.4622000000000  0.4600090000000 1.0
C      1  0.4684450000000  0.5789050000000  0.4121450000000 1.0
C      1  0.3984100000000  0.4986910000000  0.4897700000000 1.0
C      1  0.5195180000000  0.5576850000000  0.4556620000000 1.0
C      1  0.4202270000000  0.5735250000000  0.5598910000000 1.0
C      1  0.4958840000000  0.6506280000000  0.4680210000000 1.0
C      1  0.4898650000000  0.5437770000000  0.5860680000000 1.0
C      1  0.4934950000000  0.4266830000000  0.5841310000000 1.0
C      1  0.4864030000000  0.5381750000000  0.5352500000000 1.0
C      1  0.4827910000000  0.5666350000000  0.4891470000000 1.0
C      1  0.4408790000000  0.5897740000000  0.5467930000000 1.0
C      1  0.5226920000000  0.4988230000000  0.5430540000000 1.0
C      1  0.4356160000000  0.4249760000000  0.5215790000000 1.0
C      1  0.4917080000000  0.4636640000000  0.5456510000000 1.0
C      1  0.5521080000000  0.4349690000000  0.4887400000000 1.0
C      1  0.5019210000000  0.4601330000000  0.4290190000000 1.0
C      1  0.5466840000000  0.4854700000000  0.5350030000000 1.0
C      1  0.5949910000000  0.4640350000000  0.4867790000000 1.0
C      1  0.5258910000000  0.4100310000000  0.5423610000000 1.0
C      1  0.4574900000000  0.4051680000000  0.5237340000000 1.0
C      1  0.4860690000000  0.5146850000000  0.5202760000000 1.0
C      1  0.5483300000000  0.4406480000000  0.4417170000000 1.0
C      1  0.4735430000000  0.4458660000000  0.5943420000000 1.0
C      1  0.5354470000000  0.4928560000000  0.4069930000000 1.0
C      1  0.5197660000000  0.3921710000000  0.4930970000000 1.0
C      1  0.5230530000000  0.3927300000000  0.5197910000000 1.0
C      1  0.5882150000000  0.5342340000000  0.5001070000000 1.0
C      1  0.4780590000000  0.5689670000000  0.5785390000000 1.0
C      1  0.4639230000000  0.5742660000000  0.5546570000000 1.0
C      1  0.5665040000000  0.4300900000000  0.5143130000000 1.0
C      1  0.5275460000000  0.5628550000000  0.5282760000000 1.0
C      1  0.4631420000000  0.4642360000000  0.4560560000000 1.0
C      1  0.4713350000000  0.5211810000000  0.5852820000000 1.0
C      1  0.5901390000000  0.5322690000000  0.4704870000000 1.0
C      1  0.4644080000000  0.3637930000000  0.4920780000000 1.0
C      1  0.4899100000000  0.4572100000000  0.4995880000000 1.0
C      1  0.5702690000000  0.5406570000000  0.4517460000000 1.0
C      1  0.4095090000000  0.4720730000000  0.5628220000000 1.0
C      1  0.4259410000000  0.4913610000000  0.4817070000000 1.0
C      1  0.5201540000000  0.5883170000000  0.4206970000000 1.0
C      1  0.5250630000000  0.5041330000000  0.4920500000000 1.0
C      1  0.4811320000000  0.4729490000000  0.5998820000000 1.0
C      1  0.4712390000000  0.5155410000000  0.4477250000000 1.0
C      1  0.4567320000000  0.5350200000000  0.4622350000000 1.0
C      1  0.5418990000000  0.4613210000000  0.4924280000000 1.0
C      1  0.5524410000000  0.4933910000000  0.4306620000000 1.0
C      1  0.4115200000000  0.4827870000000  0.5365510000000 1.0
C      1  0.5966620000000  0.5576040000000  0.5125170000000 1.0
C      1  0.5273920000000  0.4797010000000  0.4756580000000 1.0
C      1  0.5509120000000  0.4678270000000  0.5795100000000 1.0
C      1  0.3854060000000  0.4168300000000  0.5044240000000 1.0
C      1  0.5294220000000  0.6221060000000  0.4966390000000 1.0
C      1  0.5410200000000  0.4244070000000  0.4646950000000 1.0
C      1  0.5346890000000  0.5191000000000  0.5838640000000 1.0
C      1  0.6062900000000  0.5085210000000  0.4679870000000 1.0
END
