TITL C-627110-360-2049 49948.5714025773 125000 -1058.84885407078 0 0 174 (C1) n - 1
REM
REM in /home/nfs/bkarasulu/CARBON/AIRSS/Generating-Clusters/LCBOP/Only-C1/SD-CG/FIRE-CG
REM
REM
REM
REM
REM
REM ./C.cell (11c1c37f851c82e70ff6c80c92926a4b)
REM AIRSS Version 0.9.1 bugfix July 2018 build 013d7b7c2542+ Fri, 06 Jul 2018 19:26:36 +0100
REM compiler GCC version 9.2.1 20190827 (Red Hat 9.2.1-1)
REM options -cpp -mtune=generic -march=x86-64 -g -O0 -fpre-include=/usr/include/finclude/math-vector-fortran.h
REM seed -1854378983 1703884549 1671722690 -1747597032 1759149335 -92445011 594887116 1437737917 -887434086 -1316626103 -1375193578 651155778 -1135308609 2147451663 1958595836 510810978 -1276005274 1189240683 -1749213081 -1862958983 -702880704 1515873386 -1806673046 1500194046 -172891932 1144218274 -1350960107 628623221 68559211 1225640174 787998985 1776186016 342912936
REM
CELL 1.54180   50.00000   50.00000   50.00000   90.00000   90.00000   90.00000
LATT -1
SFAC C  
C      1  0.5260460000000  0.3866660000000  0.5484260000000 1.0
C      1  0.5855590000000  0.4656630000000  0.4711680000000 1.0
C      1  0.4341370000000  0.4132750000000  0.4766180000000 1.0
C      1  0.5426140000000  0.6285580000000  0.4439330000000 1.0
C      1  0.5805140000000  0.4988790000000  0.5074740000000 1.0
C      1  0.5365490000000  0.3778320000000  0.4693890000000 1.0
C      1  0.5657420000000  0.5763930000000  0.4969930000000 1.0
C      1  0.4326700000000  0.4683950000000  0.5774770000000 1.0
C      1  0.4737610000000  0.6093030000000  0.5609130000000 1.0
C      1  0.4002460000000  0.5279900000000  0.4521390000000 1.0
C      1  0.3948150000000  0.5141240000000  0.5584220000000 1.0
C      1  0.4429040000000  0.4598300000000  0.5353400000000 1.0
C      1  0.5676240000000  0.4747900000000  0.4951480000000 1.0
C      1  0.4110800000000  0.5408330000000  0.5007360000000 1.0
C      1  0.4959880000000  0.4677480000000  0.6114090000000 1.0
C      1  0.4204730000000  0.4933370000000  0.4213750000000 1.0
C      1  0.5252500000000  0.4562770000000  0.4182740000000 1.0
C      1  0.5123360000000  0.5559100000000  0.5890510000000 1.0
C      1  0.4581230000000  0.5338760000000  0.5822030000000 1.0
C      1  0.5873460000000  0.4995490000000  0.5869030000000 1.0
C      1  0.5110210000000  0.6121290000000  0.5450560000000 1.0
C      1  0.4631370000000  0.5159940000000  0.5264600000000 1.0
C      1  0.4298750000000  0.5821480000000  0.5539310000000 1.0
C      1  0.5466440000000  0.4494160000000  0.5337600000000 1.0
C      1  0.6405520000000  0.4908340000000  0.4730830000000 1.0
C      1  0.5276510000000  0.5116440000000  0.5539510000000 1.0
C      1  0.4817590000000  0.5182430000000  0.5831520000000 1.0
C      1  0.5209080000000  0.5687480000000  0.4265230000000 1.0
C      1  0.4531220000000  0.5981940000000  0.5446040000000 1.0
C      1  0.4690770000000  0.5446330000000  0.4156730000000 1.0
C      1  0.5494160000000  0.5687100000000  0.4489370000000 1.0
C      1  0.4478760000000  0.5617190000000  0.4880750000000 1.0
C      1  0.5206940000000  0.5120450000000  0.6195030000000 1.0
C      1  0.5185510000000  0.4469840000000  0.5367190000000 1.0
C      1  0.5468780000000  0.4462320000000  0.5820560000000 1.0
C      1  0.5964920000000  0.4873960000000  0.4540790000000 1.0
C      1  0.4488030000000  0.4749380000000  0.5135480000000 1.0
C      1  0.4684440000000  0.4736410000000  0.4079720000000 1.0
C      1  0.4846430000000  0.5022110000000  0.5372860000000 1.0
C      1  0.5412670000000  0.4683400000000  0.5992020000000 1.0
C      1  0.4845050000000  0.4184870000000  0.4757240000000 1.0
C      1  0.5493150000000  0.5483850000000  0.3913880000000 1.0
C      1  0.5660990000000  0.5454960000000  0.4894060000000 1.0
C      1  0.5624450000000  0.6146690000000  0.4558590000000 1.0
C      1  0.5288580000000  0.5366450000000  0.6046270000000 1.0
C      1  0.5733420000000  0.5263000000000  0.5100990000000 1.0
C      1  0.4630090000000  0.5871480000000  0.5212140000000 1.0
C      1  0.5201750000000  0.4130460000000  0.4091390000000 1.0
C      1  0.4901030000000  0.4786410000000  0.3882490000000 1.0
C      1  0.5055620000000  0.4313160000000  0.4901720000000 1.0
C      1  0.5372740000000  0.5840210000000  0.5091360000000 1.0
C      1  0.5108900000000  0.4879310000000  0.4502880000000 1.0
C      1  0.4032610000000  0.4213240000000  0.4393420000000 1.0
C      1  0.4252030000000  0.4637000000000  0.4209840000000 1.0
C      1  0.6188680000000  0.5300010000000  0.4570230000000 1.0
C      1  0.3784650000000  0.5099880000000  0.4537280000000 1.0
C      1  0.4812050000000  0.4788470000000  0.5540300000000 1.0
C      1  0.4908450000000  0.5600130000000  0.4300030000000 1.0
C      1  0.5155540000000  0.4045160000000  0.5676340000000 1.0
C      1  0.4494420000000  0.4707980000000  0.4694370000000 1.0
C      1  0.4116740000000  0.5562010000000  0.5337490000000 1.0
C      1  0.5052570000000  0.4314060000000  0.5178900000000 1.0
C      1  0.5942520000000  0.3850620000000  0.5236520000000 1.0
C      1  0.5075530000000  0.5537390000000  0.4756920000000 1.0
C      1  0.4005630000000  0.5750820000000  0.4639950000000 1.0
C      1  0.4275510000000  0.5714290000000  0.4231220000000 1.0
C      1  0.4744450000000  0.4217290000000  0.5893660000000 1.0
C      1  0.5800120000000  0.4039710000000  0.5127300000000 1.0
C      1  0.5259390000000  0.4462680000000  0.4793670000000 1.0
C      1  0.5068720000000  0.5124540000000  0.5742320000000 1.0
C      1  0.4838900000000  0.5549460000000  0.4575160000000 1.0
C      1  0.4892610000000  0.5970210000000  0.5807310000000 1.0
C      1  0.4774680000000  0.5183680000000  0.4095790000000 1.0
C      1  0.5032140000000  0.6272870000000  0.4733470000000 1.0
C      1  0.5628870000000  0.5885370000000  0.4657910000000 1.0
C      1  0.5266510000000  0.5621320000000  0.5349220000000 1.0
C      1  0.5397590000000  0.4039580000000  0.4569060000000 1.0
C      1  0.5234370000000  0.5689010000000  0.5631530000000 1.0
C      1  0.4603600000000  0.4087480000000  0.4897440000000 1.0
C      1  0.4953200000000  0.5526510000000  0.5025870000000 1.0
C      1  0.5842680000000  0.4888330000000  0.4277920000000 1.0
C      1  0.5391960000000  0.3552640000000  0.4540520000000 1.0
C      1  0.6188700000000  0.5029900000000  0.4615570000000 1.0
C      1  0.4913360000000  0.4847670000000  0.4922780000000 1.0
C      1  0.4516670000000  0.5617320000000  0.5160500000000 1.0
C      1  0.4890330000000  0.4192070000000  0.4468040000000 1.0
C      1  0.4530120000000  0.4517570000000  0.4180200000000 1.0
C      1  0.5128560000000  0.6459630000000  0.4924340000000 1.0
C      1  0.5635360000000  0.4191840000000  0.4682580000000 1.0
C      1  0.4593740000000  0.5607060000000  0.5921040000000 1.0
C      1  0.4300240000000  0.5175770000000  0.4935630000000 1.0
C      1  0.5311080000000  0.3756960000000  0.4969820000000 1.0
C      1  0.4043240000000  0.4452050000000  0.4265740000000 1.0
C      1  0.3911360000000  0.4876370000000  0.5612210000000 1.0
C      1  0.5571960000000  0.5384750000000  0.5988890000000 1.0
C      1  0.5330290000000  0.4709230000000  0.4633020000000 1.0
C      1  0.5330200000000  0.5677690000000  0.4010380000000 1.0
C      1  0.5292390000000  0.3773670000000  0.5235670000000 1.0
C      1  0.4137940000000  0.4294860000000  0.5179580000000 1.0
C      1  0.4603920000000  0.4963480000000  0.4551400000000 1.0
C      1  0.4643690000000  0.4973980000000  0.4245930000000 1.0
C      1  0.5667070000000  0.5175060000000  0.5821300000000 1.0
C      1  0.5109130000000  0.5423820000000  0.5227050000000 1.0
C      1  0.5039140000000  0.4551540000000  0.3787690000000 1.0
C      1  0.4861420000000  0.5712360000000  0.5934850000000 1.0
C      1  0.5169290000000  0.4943220000000  0.5039090000000 1.0
C      1  0.5817280000000  0.5702270000000  0.5702890000000 1.0
C      1  0.4554370000000  0.4684170000000  0.5596970000000 1.0
C      1  0.5506200000000  0.5222230000000  0.4020070000000 1.0
C      1  0.5159450000000  0.6301320000000  0.4481930000000 1.0
C      1  0.4189470000000  0.4348600000000  0.4894930000000 1.0
C      1  0.5009890000000  0.5061740000000  0.3967120000000 1.0
C      1  0.5810320000000  0.5614530000000  0.5434740000000 1.0
C      1  0.5710420000000  0.5627330000000  0.5940420000000 1.0
C      1  0.4008740000000  0.5484980000000  0.4737470000000 1.0
C      1  0.4257060000000  0.4073330000000  0.4498940000000 1.0
C      1  0.5200470000000  0.5818080000000  0.4805960000000 1.0
C      1  0.4885790000000  0.4953350000000  0.4662590000000 1.0
C      1  0.5220090000000  0.5135560000000  0.4405600000000 1.0
C      1  0.4472330000000  0.5200300000000  0.4692510000000 1.0
C      1  0.4363590000000  0.5759000000000  0.5819720000000 1.0
C      1  0.5702800000000  0.5351000000000  0.5372170000000 1.0
C      1  0.4548810000000  0.5409320000000  0.5351400000000 1.0
C      1  0.5620010000000  0.4504200000000  0.5577850000000 1.0
C      1  0.5199330000000  0.4836640000000  0.6105030000000 1.0
C      1  0.5841460000000  0.5785960000000  0.5207450000000 1.0
C      1  0.5034940000000  0.4688060000000  0.4298150000000 1.0
C      1  0.4465940000000  0.4049220000000  0.4310590000000 1.0
C      1  0.5740880000000  0.5100250000000  0.4122520000000 1.0
C      1  0.3621030000000  0.4907140000000  0.4616850000000 1.0
C      1  0.5467740000000  0.4615440000000  0.4352210000000 1.0
C      1  0.5324920000000  0.4216660000000  0.5827010000000 1.0
C      1  0.4590170000000  0.5460980000000  0.4678320000000 1.0
C      1  0.5291210000000  0.6128150000000  0.5234430000000 1.0
C      1  0.4842810000000  0.5882520000000  0.5044950000000 1.0
C      1  0.5032100000000  0.4617750000000  0.5543970000000 1.0
C      1  0.4427850000000  0.5020690000000  0.5133800000000 1.0
C      1  0.4734830000000  0.4035140000000  0.5418060000000 1.0
C      1  0.4563440000000  0.4033380000000  0.5189540000000 1.0
C      1  0.5876770000000  0.4404120000000  0.4301560000000 1.0
C      1  0.5124560000000  0.5124600000000  0.5278600000000 1.0
C      1  0.4282160000000  0.4057400000000  0.5257330000000 1.0
C      1  0.5260310000000  0.5329010000000  0.4618500000000 1.0
C      1  0.4156990000000  0.4500860000000  0.5379020000000 1.0
C      1  0.5166220000000  0.4108430000000  0.4379520000000 1.0
C      1  0.6087790000000  0.4410450000000  0.5468950000000 1.0
C      1  0.4871680000000  0.4097070000000  0.5663980000000 1.0
C      1  0.4392650000000  0.5454130000000  0.4208340000000 1.0
C      1  0.5562410000000  0.4480460000000  0.5060810000000 1.0
C      1  0.4985990000000  0.6012470000000  0.4840430000000 1.0
C      1  0.5721570000000  0.4633410000000  0.4232690000000 1.0
C      1  0.4121800000000  0.5840360000000  0.4413050000000 1.0
C      1  0.4517740000000  0.4097130000000  0.5992520000000 1.0
C      1  0.4073420000000  0.4645830000000  0.5623600000000 1.0
C      1  0.3490960000000  0.4709980000000  0.4727230000000 1.0
C      1  0.5898130000000  0.4556880000000  0.5599020000000 1.0
C      1  0.5404500000000  0.4880520000000  0.4872670000000 1.0
C      1  0.5524180000000  0.5434670000000  0.4637940000000 1.0
C      1  0.5833210000000  0.4383220000000  0.4584040000000 1.0
C      1  0.5193330000000  0.4388000000000  0.3967110000000 1.0
C      1  0.5128860000000  0.5163490000000  0.6458160000000 1.0
C      1  0.5152000000000  0.5964220000000  0.5670900000000 1.0
C      1  0.5660440000000  0.4222560000000  0.4971650000000 1.0
C      1  0.4125740000000  0.5349920000000  0.5533340000000 1.0
C      1  0.5551980000000  0.5191000000000  0.5559820000000 1.0
C      1  0.4238590000000  0.4592640000000  0.4752920000000 1.0
C      1  0.5971100000000  0.4769460000000  0.5767120000000 1.0
C      1  0.4655230000000  0.4265230000000  0.4293480000000 1.0
C      1  0.5309860000000  0.6377490000000  0.5107410000000 1.0
C      1  0.4202360000000  0.5223700000000  0.4300630000000 1.0
C      1  0.4842200000000  0.4449960000000  0.6027420000000 1.0
C      1  0.5252650000000  0.5130650000000  0.4115400000000 1.0
C      1  0.4671880000000  0.4687430000000  0.4934700000000 1.0
C      1  0.4407420000000  0.5339180000000  0.5597150000000 1.0
END
