TITL C-627109-622-1560 3071.53228673682 125000 -1195.82128074999 0 0 194 (C1) n - 1
REM
REM in /home/nfs/bkarasulu/CARBON/AIRSS/Generating-Clusters/LCBOP/Only-C1/SD-CG/FIRE-CG
REM
REM
REM
REM
REM
REM ./C.cell (11c1c37f851c82e70ff6c80c92926a4b)
REM AIRSS Version 0.9.1 bugfix July 2018 build 013d7b7c2542+ Fri, 06 Jul 2018 19:26:36 +0100
REM compiler GCC version 9.2.1 20190827 (Red Hat 9.2.1-1)
REM options -cpp -mtune=generic -march=x86-64 -g -O0 -fpre-include=/usr/include/finclude/math-vector-fortran.h
REM seed -1278906583 429277701 318642826 -287215986 -1631168545 468554399 -778051461 244663932 461809664 1932517621 -1907926877 1397249342 404011391 1602627460 2092837991 -692430588 -1729302709 -1729683408 -16562197 -1336554553 -1536520500 -766286907 1508528844 -154404670 1592380708 -2085873262 901620196 392156292 -925460698 -1021501034 -1262233755 410073452 -1506623654
REM
CELL 1.54180   50.00000   50.00000   50.00000   90.00000   90.00000   90.00000
LATT -1
SFAC C  
C      1  0.5647100000000  0.5309830000000  0.5707620000000 1.0
C      1  0.5351200000000  0.5003690000000  0.5532390000000 1.0
C      1  0.5405330000000  0.4106070000000  0.4501340000000 1.0
C      1  0.4178640000000  0.6033640000000  0.4849890000000 1.0
C      1  0.5379370000000  0.5541090000000  0.3955820000000 1.0
C      1  0.5425410000000  0.6034980000000  0.5223930000000 1.0
C      1  0.4528540000000  0.5197970000000  0.6036860000000 1.0
C      1  0.4472340000000  0.4046580000000  0.5576350000000 1.0
C      1  0.5261780000000  0.5406070000000  0.5991490000000 1.0
C      1  0.4862060000000  0.5460820000000  0.5368030000000 1.0
C      1  0.4748190000000  0.4345140000000  0.5842780000000 1.0
C      1  0.4173360000000  0.4042850000000  0.4986410000000 1.0
C      1  0.5817440000000  0.5730870000000  0.5566120000000 1.0
C      1  0.5120670000000  0.4583290000000  0.5724290000000 1.0
C      1  0.5303500000000  0.5545750000000  0.4430130000000 1.0
C      1  0.4957150000000  0.4797810000000  0.5032440000000 1.0
C      1  0.4153510000000  0.6505170000000  0.5006500000000 1.0
C      1  0.5010950000000  0.5090930000000  0.5092540000000 1.0
C      1  0.6058570000000  0.4797680000000  0.5533160000000 1.0
C      1  0.3847310000000  0.4193420000000  0.4350310000000 1.0
C      1  0.5415010000000  0.4758980000000  0.5408580000000 1.0
C      1  0.4146080000000  0.4747550000000  0.4477550000000 1.0
C      1  0.4915860000000  0.4533610000000  0.5127820000000 1.0
C      1  0.4298010000000  0.4784810000000  0.5820670000000 1.0
C      1  0.5200490000000  0.4996760000000  0.4267480000000 1.0
C      1  0.6108520000000  0.5813330000000  0.4984490000000 1.0
C      1  0.4824800000000  0.5975490000000  0.4807470000000 1.0
C      1  0.4110300000000  0.5897920000000  0.5424170000000 1.0
C      1  0.4889040000000  0.5552710000000  0.5091320000000 1.0
C      1  0.4622040000000  0.4973240000000  0.3930550000000 1.0
C      1  0.5914560000000  0.5022540000000  0.4110780000000 1.0
C      1  0.4317240000000  0.4510910000000  0.5708490000000 1.0
C      1  0.4972160000000  0.5035520000000  0.6100070000000 1.0
C      1  0.5978750000000  0.5598240000000  0.5387620000000 1.0
C      1  0.4682180000000  0.4298200000000  0.4658810000000 1.0
C      1  0.4332410000000  0.5668740000000  0.4186660000000 1.0
C      1  0.6117140000000  0.5524900000000  0.4303300000000 1.0
C      1  0.3953400000000  0.4864080000000  0.5215730000000 1.0
C      1  0.4715890000000  0.6095020000000  0.5598100000000 1.0
C      1  0.4218030000000  0.5731630000000  0.5200620000000 1.0
C      1  0.5491200000000  0.5505840000000  0.5849030000000 1.0
C      1  0.4903110000000  0.3935780000000  0.5323840000000 1.0
C      1  0.6133000000000  0.5294570000000  0.4966040000000 1.0
C      1  0.5454200000000  0.4786150000000  0.5115020000000 1.0
C      1  0.5065030000000  0.6131370000000  0.4753220000000 1.0
C      1  0.6177720000000  0.4777330000000  0.4510830000000 1.0
C      1  0.5435200000000  0.5785090000000  0.5153650000000 1.0
C      1  0.4607950000000  0.6044590000000  0.4642060000000 1.0
C      1  0.5351740000000  0.4200820000000  0.5163170000000 1.0
C      1  0.4523040000000  0.5206790000000  0.5001770000000 1.0
C      1  0.4458040000000  0.5038270000000  0.5235660000000 1.0
C      1  0.4089960000000  0.5782020000000  0.4954630000000 1.0
C      1  0.5493090000000  0.3891580000000  0.4345730000000 1.0
C      1  0.5192650000000  0.6384860000000  0.5619320000000 1.0
C      1  0.6274350000000  0.4757930000000  0.4816820000000 1.0
C      1  0.4954970000000  0.5009960000000  0.4392410000000 1.0
C      1  0.5246370000000  0.5128880000000  0.6099410000000 1.0
C      1  0.5646500000000  0.3456990000000  0.4084570000000 1.0
C      1  0.4532050000000  0.5793600000000  0.5241780000000 1.0
C      1  0.4192090000000  0.6239570000000  0.5064140000000 1.0
C      1  0.5330380000000  0.5088020000000  0.5069180000000 1.0
C      1  0.5078640000000  0.6368660000000  0.4909740000000 1.0
C      1  0.6097730000000  0.5555370000000  0.5125620000000 1.0
C      1  0.4466140000000  0.5421190000000  0.4144340000000 1.0
C      1  0.3632630000000  0.4888780000000  0.5569190000000 1.0
C      1  0.4742730000000  0.3613650000000  0.4809110000000 1.0
C      1  0.4322930000000  0.5394460000000  0.6003750000000 1.0
C      1  0.4400380000000  0.4890090000000  0.4537020000000 1.0
C      1  0.4898240000000  0.4804330000000  0.4565350000000 1.0
C      1  0.3922090000000  0.4934300000000  0.4683440000000 1.0
C      1  0.5005170000000  0.4243960000000  0.4236620000000 1.0
C      1  0.4604410000000  0.5560420000000  0.5433140000000 1.0
C      1  0.4703500000000  0.4258740000000  0.4210830000000 1.0
C      1  0.5186320000000  0.6128590000000  0.5734010000000 1.0
C      1  0.5117650000000  0.4427060000000  0.4045270000000 1.0
C      1  0.5804710000000  0.5760610000000  0.4640550000000 1.0
C      1  0.6164250000000  0.4916960000000  0.5311430000000 1.0
C      1  0.5722950000000  0.3234200000000  0.3962990000000 1.0
C      1  0.4934670000000  0.4538020000000  0.5948600000000 1.0
C      1  0.5125900000000  0.4185600000000  0.4493380000000 1.0
C      1  0.4528020000000  0.6067820000000  0.5391730000000 1.0
C      1  0.4957210000000  0.4285070000000  0.4997640000000 1.0
C      1  0.6171340000000  0.4487700000000  0.4948240000000 1.0
C      1  0.5072000000000  0.5027480000000  0.5556900000000 1.0
C      1  0.5456040000000  0.4988240000000  0.6201550000000 1.0
C      1  0.4628940000000  0.4750300000000  0.4608020000000 1.0
C      1  0.5416450000000  0.5244390000000  0.3944510000000 1.0
C      1  0.5797450000000  0.4091130000000  0.6024050000000 1.0
C      1  0.5658460000000  0.4491890000000  0.5752770000000 1.0
C      1  0.4597580000000  0.3960180000000  0.5320160000000 1.0
C      1  0.5798250000000  0.3014240000000  0.3845030000000 1.0
C      1  0.5287540000000  0.6104170000000  0.4560820000000 1.0
C      1  0.5156320000000  0.5512270000000  0.4646270000000 1.0
C      1  0.5154820000000  0.6522900000000  0.5394330000000 1.0
C      1  0.5688120000000  0.5127880000000  0.3989070000000 1.0
C      1  0.4663680000000  0.4077880000000  0.5796860000000 1.0
C      1  0.4329060000000  0.5141010000000  0.5475020000000 1.0
C      1  0.4590640000000  0.4533160000000  0.4775050000000 1.0
C      1  0.4518950000000  0.4898370000000  0.5990300000000 1.0
C      1  0.4159020000000  0.4977710000000  0.5654420000000 1.0
C      1  0.5286390000000  0.3856910000000  0.5657550000000 1.0
C      1  0.5766040000000  0.4794260000000  0.4670090000000 1.0
C      1  0.5521130000000  0.5222180000000  0.5472850000000 1.0
C      1  0.3976540000000  0.5115110000000  0.5119320000000 1.0
C      1  0.4825370000000  0.5292700000000  0.4939410000000 1.0
C      1  0.4809030000000  0.4792650000000  0.6048520000000 1.0
C      1  0.4423040000000  0.3938480000000  0.4585850000000 1.0
C      1  0.5536170000000  0.6214870000000  0.4657830000000 1.0
C      1  0.6098840000000  0.4270710000000  0.4770480000000 1.0
C      1  0.5925870000000  0.5951580000000  0.4813710000000 1.0
C      1  0.4310110000000  0.5239640000000  0.4805570000000 1.0
C      1  0.5334080000000  0.5699050000000  0.4198110000000 1.0
C      1  0.5351300000000  0.4646060000000  0.4846140000000 1.0
C      1  0.4923760000000  0.4907980000000  0.3901230000000 1.0
C      1  0.5952710000000  0.4520930000000  0.5144860000000 1.0
C      1  0.3716690000000  0.4778730000000  0.4825220000000 1.0
C      1  0.5750400000000  0.4720510000000  0.5109270000000 1.0
C      1  0.5476780000000  0.4064210000000  0.5640210000000 1.0
C      1  0.4437340000000  0.3925820000000  0.5075880000000 1.0
C      1  0.4701280000000  0.4682120000000  0.5464270000000 1.0
C      1  0.5107850000000  0.6511160000000  0.5132400000000 1.0
C      1  0.4247820000000  0.6151730000000  0.5344090000000 1.0
C      1  0.4049700000000  0.4289410000000  0.5070750000000 1.0
C      1  0.4332470000000  0.6006290000000  0.4605840000000 1.0
C      1  0.5486570000000  0.5302670000000  0.5193510000000 1.0
C      1  0.4656710000000  0.4507920000000  0.4047450000000 1.0
C      1  0.5928770000000  0.4611600000000  0.4526890000000 1.0
C      1  0.5420390000000  0.4977070000000  0.4436700000000 1.0
C      1  0.3531040000000  0.4763410000000  0.5344920000000 1.0
C      1  0.4118340000000  0.4491180000000  0.4634850000000 1.0
C      1  0.3873690000000  0.5651720000000  0.4854170000000 1.0
C      1  0.4805080000000  0.5280050000000  0.6058990000000 1.0
C      1  0.3723890000000  0.4683530000000  0.5127560000000 1.0
C      1  0.4528620000000  0.4758010000000  0.5236870000000 1.0
C      1  0.6155340000000  0.5277830000000  0.4441840000000 1.0
C      1  0.4955570000000  0.4772120000000  0.5562030000000 1.0
C      1  0.4944460000000  0.3449850000000  0.4789620000000 1.0
C      1  0.5495820000000  0.4773670000000  0.4615630000000 1.0
C      1  0.5080130000000  0.4090160000000  0.5152080000000 1.0
C      1  0.5587590000000  0.5758820000000  0.5744480000000 1.0
C      1  0.5295160000000  0.5971330000000  0.4299590000000 1.0
C      1  0.4244460000000  0.4238390000000  0.5621960000000 1.0
C      1  0.5071940000000  0.4738340000000  0.4775860000000 1.0
C      1  0.6028480000000  0.5298260000000  0.4694130000000 1.0
C      1  0.4950920000000  0.4235440000000  0.4719020000000 1.0
C      1  0.5444650000000  0.4349560000000  0.4910860000000 1.0
C      1  0.4033660000000  0.4233980000000  0.4544390000000 1.0
C      1  0.5744870000000  0.5320450000000  0.4671720000000 1.0
C      1  0.5867710000000  0.4333080000000  0.4607320000000 1.0
C      1  0.4044720000000  0.5143390000000  0.4849270000000 1.0
C      1  0.4981650000000  0.5500750000000  0.5988390000000 1.0
C      1  0.4550270000000  0.3813530000000  0.4823650000000 1.0
C      1  0.4755050000000  0.5798000000000  0.5027420000000 1.0
C      1  0.5396340000000  0.4524460000000  0.5586010000000 1.0
C      1  0.3872930000000  0.4975370000000  0.5662790000000 1.0
C      1  0.5773980000000  0.6189770000000  0.4788650000000 1.0
C      1  0.4561720000000  0.5307190000000  0.4383180000000 1.0
C      1  0.4396300000000  0.5408180000000  0.5548010000000 1.0
C      1  0.4202050000000  0.4709770000000  0.4172970000000 1.0
C      1  0.4931680000000  0.5997720000000  0.5754420000000 1.0
C      1  0.5937280000000  0.5710960000000  0.4391770000000 1.0
C      1  0.4826970000000  0.5253060000000  0.4442850000000 1.0
C      1  0.4595990000000  0.4502290000000  0.5649390000000 1.0
C      1  0.5181820000000  0.5056670000000  0.3984060000000 1.0
C      1  0.4107450000000  0.5762430000000  0.5677300000000 1.0
C      1  0.4569280000000  0.4146430000000  0.4443340000000 1.0
C      1  0.4162770000000  0.4021840000000  0.4686570000000 1.0
C      1  0.4924100000000  0.4614180000000  0.3946790000000 1.0
C      1  0.5528670000000  0.5545590000000  0.5045650000000 1.0
C      1  0.5048330000000  0.3808870000000  0.5535530000000 1.0
C      1  0.5570160000000  0.3677060000000  0.4210890000000 1.0
C      1  0.4963340000000  0.5200200000000  0.5375980000000 1.0
C      1  0.4391730000000  0.5168880000000  0.4549790000000 1.0
C      1  0.4912620000000  0.5757920000000  0.5902030000000 1.0
C      1  0.5425410000000  0.5985230000000  0.5773610000000 1.0
C      1  0.5654640000000  0.5559210000000  0.4788140000000 1.0
C      1  0.6138310000000  0.4985300000000  0.5011380000000 1.0
C      1  0.4266180000000  0.5857940000000  0.4370240000000 1.0
C      1  0.5882220000000  0.5218750000000  0.5810750000000 1.0
C      1  0.5415110000000  0.4260850000000  0.5431880000000 1.0
C      1  0.5584930000000  0.5199210000000  0.4480940000000 1.0
C      1  0.4463290000000  0.4729740000000  0.4033880000000 1.0
C      1  0.3799310000000  0.4391660000000  0.5154850000000 1.0
C      1  0.5885440000000  0.4653940000000  0.5686600000000 1.0
C      1  0.6122800000000  0.5014810000000  0.4324200000000 1.0
C      1  0.5851110000000  0.4909660000000  0.4920390000000 1.0
C      1  0.5388500000000  0.5676460000000  0.3715220000000 1.0
C      1  0.4922980000000  0.5369170000000  0.4674760000000 1.0
C      1  0.4253770000000  0.5531320000000  0.5763820000000 1.0
C      1  0.4512050000000  0.5239400000000  0.3929250000000 1.0
C      1  0.5589990000000  0.4241640000000  0.4677050000000 1.0
C      1  0.5655440000000  0.4204380000000  0.5821610000000 1.0
C      1  0.4437330000000  0.4589950000000  0.5010270000000 1.0
C      1  0.4181460000000  0.4498730000000  0.4924500000000 1.0
END
