TITL C-627112-676-1989 -2578.93813937608 125000 -678.409631561662 0 0 113 (C1) n - 1
REM
REM in /home/nfs/bkarasulu/CARBON/AIRSS/Generating-Clusters/LCBOP/Only-C1/SD-CG/FIRE-CG
REM
REM
REM
REM
REM
REM ./C.cell (11c1c37f851c82e70ff6c80c92926a4b)
REM AIRSS Version 0.9.1 bugfix July 2018 build 013d7b7c2542+ Fri, 06 Jul 2018 19:26:36 +0100
REM compiler GCC version 9.2.1 20190827 (Red Hat 9.2.1-1)
REM options -cpp -mtune=generic -march=x86-64 -g -O0 -fpre-include=/usr/include/finclude/math-vector-fortran.h
REM seed -1727961484 -1865246660 734816874 -976938591 -769627076 -211695018 337908198 1973270207 2064422719 291887051 36979370 1603342842 -1237708600 2010138063 1226292726 -1481769751 1007793868 466094318 1152597402 173578850 1579872266 -279738809 -800488968 68369184 1227173364 1271066733 741586530 1242660311 -1523047308 1807143077 -1417665394 1951708196 -536717453
REM
CELL 1.54180   50.00000   50.00000   50.00000   90.00000   90.00000   90.00000
LATT -1
SFAC C  
C      1  0.5682100000000  0.5946420000000  0.5360230000000 1.0
C      1  0.4825650000000  0.4641920000000  0.4619790000000 1.0
C      1  0.4353390000000  0.4986060000000  0.5678670000000 1.0
C      1  0.5224760000000  0.5163950000000  0.4140340000000 1.0
C      1  0.4880100000000  0.5108480000000  0.5059160000000 1.0
C      1  0.5786050000000  0.5364600000000  0.4538550000000 1.0
C      1  0.5493330000000  0.6896110000000  0.5216390000000 1.0
C      1  0.5931190000000  0.5484700000000  0.5325720000000 1.0
C      1  0.4836790000000  0.5436230000000  0.5755730000000 1.0
C      1  0.4667060000000  0.4861900000000  0.6054230000000 1.0
C      1  0.4756690000000  0.4469560000000  0.5034870000000 1.0
C      1  0.5548980000000  0.4978140000000  0.5017970000000 1.0
C      1  0.4806930000000  0.5687140000000  0.4708050000000 1.0
C      1  0.5033430000000  0.4862260000000  0.5128160000000 1.0
C      1  0.4538100000000  0.4318730000000  0.5185490000000 1.0
C      1  0.5516220000000  0.5229650000000  0.4545420000000 1.0
C      1  0.4802330000000  0.4695970000000  0.5216360000000 1.0
C      1  0.5335270000000  0.5378370000000  0.4324620000000 1.0
C      1  0.4354550000000  0.5498840000000  0.4804840000000 1.0
C      1  0.4483670000000  0.5843700000000  0.5519390000000 1.0
C      1  0.5471470000000  0.6381670000000  0.5322030000000 1.0
C      1  0.5451860000000  0.4111340000000  0.5456730000000 1.0
C      1  0.4801210000000  0.4671150000000  0.6190710000000 1.0
C      1  0.4969970000000  0.3972040000000  0.5042160000000 1.0
C      1  0.4642150000000  0.5120100000000  0.5202460000000 1.0
C      1  0.4149310000000  0.4943970000000  0.5233450000000 1.0
C      1  0.5384420000000  0.4653530000000  0.5530850000000 1.0
C      1  0.4799220000000  0.4352600000000  0.4296260000000 1.0
C      1  0.5454540000000  0.6110160000000  0.5384570000000 1.0
C      1  0.4229000000000  0.5143600000000  0.5457060000000 1.0
C      1  0.4609540000000  0.5011290000000  0.5816790000000 1.0
C      1  0.5572950000000  0.5821160000000  0.4666820000000 1.0
C      1  0.4304640000000  0.5454610000000  0.3798280000000 1.0
C      1  0.5293100000000  0.4070370000000  0.4695660000000 1.0
C      1  0.5335640000000  0.4794610000000  0.5100570000000 1.0
C      1  0.4787040000000  0.4002110000000  0.4799770000000 1.0
C      1  0.5048900000000  0.4451140000000  0.4951700000000 1.0
C      1  0.5250080000000  0.4331840000000  0.5090720000000 1.0
C      1  0.5135200000000  0.4768630000000  0.5612990000000 1.0
C      1  0.4586690000000  0.4244640000000  0.5644780000000 1.0
C      1  0.4131330000000  0.4425590000000  0.4929510000000 1.0
C      1  0.4370470000000  0.4696960000000  0.4323510000000 1.0
C      1  0.5098510000000  0.4292570000000  0.5750240000000 1.0
C      1  0.5764350000000  0.5640410000000  0.4603430000000 1.0
C      1  0.4647900000000  0.4459790000000  0.4750950000000 1.0
C      1  0.4827530000000  0.4901340000000  0.4530150000000 1.0
C      1  0.4919430000000  0.4036650000000  0.5332800000000 1.0
C      1  0.4790240000000  0.4910930000000  0.4245270000000 1.0
C      1  0.4104380000000  0.4569660000000  0.4705160000000 1.0
C      1  0.5247470000000  0.5328020000000  0.4981790000000 1.0
C      1  0.5211730000000  0.5998990000000  0.5471630000000 1.0
C      1  0.5265710000000  0.4812550000000  0.4627450000000 1.0
C      1  0.4190770000000  0.4668390000000  0.5338420000000 1.0
C      1  0.4938230000000  0.6099110000000  0.5476400000000 1.0
C      1  0.5231250000000  0.4311130000000  0.4534980000000 1.0
C      1  0.5461170000000  0.4934040000000  0.4454250000000 1.0
C      1  0.6030880000000  0.4914500000000  0.4491740000000 1.0
C      1  0.5122100000000  0.5570670000000  0.4366080000000 1.0
C      1  0.4635560000000  0.4655110000000  0.4212120000000 1.0
C      1  0.5089800000000  0.4274340000000  0.6035680000000 1.0
C      1  0.5798790000000  0.4276570000000  0.5090840000000 1.0
C      1  0.5068780000000  0.5772670000000  0.4578200000000 1.0
C      1  0.5187130000000  0.5727550000000  0.5571120000000 1.0
C      1  0.4251540000000  0.4714440000000  0.5619770000000 1.0
C      1  0.4532950000000  0.5731100000000  0.4791200000000 1.0
C      1  0.5311320000000  0.4433640000000  0.4117170000000 1.0
C      1  0.5629640000000  0.4311780000000  0.5319630000000 1.0
C      1  0.5084830000000  0.4330970000000  0.4263030000000 1.0
C      1  0.5548470000000  0.4390150000000  0.4402060000000 1.0
C      1  0.4222870000000  0.4781110000000  0.4557740000000 1.0
C      1  0.4224480000000  0.5039230000000  0.4691620000000 1.0
C      1  0.5808040000000  0.4325370000000  0.4823830000000 1.0
C      1  0.5919010000000  0.5224160000000  0.5269830000000 1.0
C      1  0.5787220000000  0.5017760000000  0.5161630000000 1.0
C      1  0.5766250000000  0.4448180000000  0.4567500000000 1.0
C      1  0.4171900000000  0.5082950000000  0.4978140000000 1.0
C      1  0.4962840000000  0.4550160000000  0.5687150000000 1.0
C      1  0.4749210000000  0.5903260000000  0.5576980000000 1.0
C      1  0.5940340000000  0.4662660000000  0.4502590000000 1.0
C      1  0.5465990000000  0.5205940000000  0.4860360000000 1.0
C      1  0.4998260000000  0.5246920000000  0.4838470000000 1.0
C      1  0.4929300000000  0.5156570000000  0.4177300000000 1.0
C      1  0.4252880000000  0.5405120000000  0.5329160000000 1.0
C      1  0.4315170000000  0.5648920000000  0.5448570000000 1.0
C      1  0.4287670000000  0.5372330000000  0.4316780000000 1.0
C      1  0.4273520000000  0.4446220000000  0.5173410000000 1.0
C      1  0.5241730000000  0.4062600000000  0.4974790000000 1.0
C      1  0.4687740000000  0.4486300000000  0.5716910000000 1.0
C      1  0.5383000000000  0.4926570000000  0.4170320000000 1.0
C      1  0.4288070000000  0.5417700000000  0.4055790000000 1.0
C      1  0.4693190000000  0.4213170000000  0.4610470000000 1.0
C      1  0.5844320000000  0.5735690000000  0.5346860000000 1.0
C      1  0.5054840000000  0.5014200000000  0.4656810000000 1.0
C      1  0.4958520000000  0.4450840000000  0.6197610000000 1.0
C      1  0.4600310000000  0.4870070000000  0.5302010000000 1.0
C      1  0.4441920000000  0.5982100000000  0.4851560000000 1.0
C      1  0.4918760000000  0.5686410000000  0.5670410000000 1.0
C      1  0.4650520000000  0.4147190000000  0.5387410000000 1.0
C      1  0.5996780000000  0.5180940000000  0.4504190000000 1.0
C      1  0.5364970000000  0.4687860000000  0.4027100000000 1.0
C      1  0.5065170000000  0.5050470000000  0.5558930000000 1.0
C      1  0.5482610000000  0.6640730000000  0.5267650000000 1.0
C      1  0.5418220000000  0.4528890000000  0.5254930000000 1.0
C      1  0.5315640000000  0.5502030000000  0.5470570000000 1.0
C      1  0.5309530000000  0.5883770000000  0.4678050000000 1.0
C      1  0.4835430000000  0.5159610000000  0.5706900000000 1.0
C      1  0.4243500000000  0.5370980000000  0.5041920000000 1.0
C      1  0.4299860000000  0.5304210000000  0.4585990000000 1.0
C      1  0.5223550000000  0.5278980000000  0.5334690000000 1.0
C      1  0.4885010000000  0.5384070000000  0.4365400000000 1.0
C      1  0.4823500000000  0.5401350000000  0.4653630000000 1.0
C      1  0.5158440000000  0.4114870000000  0.5523540000000 1.0
C      1  0.5114110000000  0.4548620000000  0.4681550000000 1.0
END
