TITL C-627111-6168-128 -2963.53730419648 125000 -288.938830109134 0 0 49 (C1) n - 1
REM
REM in /home/nfs/bkarasulu/CARBON/AIRSS/Generating-Clusters/LCBOP/Only-C1/SD-CG/FIRE-CG
REM
REM
REM
REM
REM
REM ./C.cell (11c1c37f851c82e70ff6c80c92926a4b)
REM AIRSS Version 0.9.1 bugfix July 2018 build 013d7b7c2542+ Fri, 06 Jul 2018 19:26:36 +0100
REM compiler GCC version 9.2.1 20190827 (Red Hat 9.2.1-1)
REM options -cpp -mtune=generic -march=x86-64 -g -O0 -fpre-include=/usr/include/finclude/math-vector-fortran.h
REM seed 224701545 -858743105 846342548 -851404357 -2077556346 -45414988 -1735327424 1800513355 -872667894 -610757018 -621155256 -1184723198 -1955671875 -1043433380 -1459630341 611222112 -1153975849 648641312 1491438967 -901068228 132913875 -184945739 665272111 882572668 1544516736 370791667 937814822 1865601362 -205127047 312745403 -1554116604 830218567 -727111526
REM
CELL 1.54180   50.00000   50.00000   50.00000   90.00000   90.00000   90.00000
LATT -1
SFAC C  
C      1  0.5045370000000  0.4980260000000  0.4688460000000 1.0
C      1  0.4806280000000  0.4171250000000  0.5641880000000 1.0
C      1  0.4952230000000  0.7284790000000  0.4565790000000 1.0
C      1  0.4816780000000  0.6570250000000  0.4886990000000 1.0
C      1  0.4982120000000  0.5088510000000  0.4090130000000 1.0
C      1  0.4909400000000  0.4833390000000  0.4052280000000 1.0
C      1  0.4689890000000  0.5594000000000  0.5275720000000 1.0
C      1  0.5313940000000  0.5396330000000  0.4972940000000 1.0
C      1  0.5304630000000  0.4785700000000  0.5431120000000 1.0
C      1  0.4707440000000  0.5844240000000  0.5190390000000 1.0
C      1  0.5171580000000  0.5710480000000  0.4632250000000 1.0
C      1  0.4623860000000  0.4348730000000  0.5198220000000 1.0
C      1  0.5423840000000  0.4072040000000  0.4900650000000 1.0
C      1  0.5375280000000  0.5042590000000  0.5348190000000 1.0
C      1  0.5450190000000  0.4154980000000  0.5619810000000 1.0
C      1  0.4862120000000  0.6807540000000  0.4778110000000 1.0
C      1  0.4735690000000  0.6090780000000  0.5097470000000 1.0
C      1  0.4573580000000  0.4252830000000  0.4941990000000 1.0
C      1  0.5258420000000  0.4154910000000  0.5825180000000 1.0
C      1  0.5046610000000  0.4735130000000  0.5541860000000 1.0
C      1  0.4876250000000  0.4611260000000  0.4198380000000 1.0
C      1  0.5044540000000  0.3896740000000  0.4289120000000 1.0
C      1  0.4607900000000  0.4190720000000  0.4671410000000 1.0
C      1  0.5054700000000  0.4063000000000  0.4506110000000 1.0
C      1  0.5195790000000  0.5448250000000  0.4724660000000 1.0
C      1  0.4907280000000  0.7045760000000  0.4671170000000 1.0
C      1  0.5099120000000  0.5230660000000  0.4570840000000 1.0
C      1  0.4694780000000  0.5338580000000  0.5346120000000 1.0
C      1  0.4733650000000  0.5080260000000  0.5389990000000 1.0
C      1  0.5376670000000  0.5253920000000  0.5187810000000 1.0
C      1  0.4853440000000  0.4260140000000  0.4545560000000 1.0
C      1  0.4409170000000  0.4067780000000  0.4529380000000 1.0
C      1  0.5153310000000  0.5952320000000  0.4536840000000 1.0
C      1  0.4976570000000  0.4725140000000  0.4651320000000 1.0
C      1  0.4816100000000  0.4813920000000  0.5393190000000 1.0
C      1  0.5263250000000  0.4043310000000  0.4691590000000 1.0
C      1  0.4661060000000  0.4178000000000  0.5417910000000 1.0
C      1  0.5297530000000  0.4025590000000  0.6062030000000 1.0
C      1  0.5019890000000  0.4300280000000  0.5769900000000 1.0
C      1  0.5057140000000  0.5246900000000  0.4292800000000 1.0
C      1  0.5502680000000  0.4288940000000  0.5378920000000 1.0
C      1  0.4996360000000  0.7520200000000  0.4462850000000 1.0
C      1  0.4900340000000  0.4527400000000  0.4466120000000 1.0
C      1  0.4772840000000  0.6332610000000  0.4995700000000 1.0
C      1  0.5472840000000  0.4567650000000  0.5381480000000 1.0
C      1  0.4992790000000  0.4713730000000  0.6024360000000 1.0
C      1  0.5516250000000  0.4152580000000  0.5136030000000 1.0
C      1  0.5019470000000  0.4585840000000  0.5783990000000 1.0
C      1  0.4679020000000  0.4619770000000  0.5244950000000 1.0
END
