TITL C-627110-360-780 -6119.86344223872 125000 -1009.20466361539 0 0 165 (C1) n - 1
REM
REM in /home/nfs/bkarasulu/CARBON/AIRSS/Generating-Clusters/LCBOP/Only-C1/SD-CG/FIRE-CG
REM
REM
REM
REM
REM
REM ./C.cell (11c1c37f851c82e70ff6c80c92926a4b)
REM AIRSS Version 0.9.1 bugfix July 2018 build 013d7b7c2542+ Fri, 06 Jul 2018 19:26:36 +0100
REM compiler GCC version 9.2.1 20190827 (Red Hat 9.2.1-1)
REM options -cpp -mtune=generic -march=x86-64 -g -O0 -fpre-include=/usr/include/finclude/math-vector-fortran.h
REM seed 505821033 -1517330623 -2061143092 -839847930 1726927023 1800973597 -1154808795 -1598148567 1184424623 -1507987354 -527007716 2128653310 1714519848 -1081310944 963392481 1330014857 -793958254 1702481733 -205169587 1107581288 -903391657 1374627458 452519044 -1354295787 -1392854333 521026867 1470231919 -490621100 1199768134 -1097917816 389441211 345797796 1738827944
REM
CELL 1.54180   50.00000   50.00000   50.00000   90.00000   90.00000   90.00000
LATT -1
SFAC C  
C      1  0.4503290000000  0.5301220000000  0.3908000000000 1.0
C      1  0.5470050000000  0.3920770000000  0.5434740000000 1.0
C      1  0.5883920000000  0.5581370000000  0.5479690000000 1.0
C      1  0.4817680000000  0.4610970000000  0.5166090000000 1.0
C      1  0.4330170000000  0.4849490000000  0.3969400000000 1.0
C      1  0.4864620000000  0.3912940000000  0.4521560000000 1.0
C      1  0.5055280000000  0.3924280000000  0.5612560000000 1.0
C      1  0.5178310000000  0.4841150000000  0.4929670000000 1.0
C      1  0.5738820000000  0.5020750000000  0.4251010000000 1.0
C      1  0.4989600000000  0.4834610000000  0.5143180000000 1.0
C      1  0.4936390000000  0.5263280000000  0.5970530000000 1.0
C      1  0.5053880000000  0.5495080000000  0.5284310000000 1.0
C      1  0.4197310000000  0.5822210000000  0.5386210000000 1.0
C      1  0.5251190000000  0.4429310000000  0.5827090000000 1.0
C      1  0.5577090000000  0.3925380000000  0.4794650000000 1.0
C      1  0.4630780000000  0.6009690000000  0.5358120000000 1.0
C      1  0.5066230000000  0.4340780000000  0.4747830000000 1.0
C      1  0.3966380000000  0.4684140000000  0.4955820000000 1.0
C      1  0.5419920000000  0.4595610000000  0.4380340000000 1.0
C      1  0.4892350000000  0.5011400000000  0.5852090000000 1.0
C      1  0.5050980000000  0.5423650000000  0.4336370000000 1.0
C      1  0.4892270000000  0.5992400000000  0.5239950000000 1.0
C      1  0.6425230000000  0.4869710000000  0.5267260000000 1.0
C      1  0.4610600000000  0.4920900000000  0.4713670000000 1.0
C      1  0.5405810000000  0.4763240000000  0.5486080000000 1.0
C      1  0.3867250000000  0.4728770000000  0.5231130000000 1.0
C      1  0.5560370000000  0.4711770000000  0.5248200000000 1.0
C      1  0.4795030000000  0.4165690000000  0.4415910000000 1.0
C      1  0.4147290000000  0.4786760000000  0.4160590000000 1.0
C      1  0.5362830000000  0.5865100000000  0.5336720000000 1.0
C      1  0.5738280000000  0.4397560000000  0.4676430000000 1.0
C      1  0.4377360000000  0.4313390000000  0.4232320000000 1.0
C      1  0.4446900000000  0.5553570000000  0.5942930000000 1.0
C      1  0.4428160000000  0.4673350000000  0.5386120000000 1.0
C      1  0.5429130000000  0.5613360000000  0.3972880000000 1.0
C      1  0.4881520000000  0.4461430000000  0.5412390000000 1.0
C      1  0.4328250000000  0.4460590000000  0.4470100000000 1.0
C      1  0.4835850000000  0.5025780000000  0.5574590000000 1.0
C      1  0.4392920000000  0.5952940000000  0.5212160000000 1.0
C      1  0.5597110000000  0.5224150000000  0.4678140000000 1.0
C      1  0.6069740000000  0.5184930000000  0.4602880000000 1.0
C      1  0.5177520000000  0.5492470000000  0.4555860000000 1.0
C      1  0.4915320000000  0.3682720000000  0.5006250000000 1.0
C      1  0.4262200000000  0.4562130000000  0.5867830000000 1.0
C      1  0.5437200000000  0.4716970000000  0.4992310000000 1.0
C      1  0.5195200000000  0.6476820000000  0.5700450000000 1.0
C      1  0.6418870000000  0.4346270000000  0.4771140000000 1.0
C      1  0.4120990000000  0.5346010000000  0.5573680000000 1.0
C      1  0.4611620000000  0.5781870000000  0.5840800000000 1.0
C      1  0.4957530000000  0.5123710000000  0.3652850000000 1.0
C      1  0.5774610000000  0.4541640000000  0.5358260000000 1.0
C      1  0.5026110000000  0.4977280000000  0.5380550000000 1.0
C      1  0.4823020000000  0.5327300000000  0.4220650000000 1.0
C      1  0.5515350000000  0.5067310000000  0.4435930000000 1.0
C      1  0.5878450000000  0.4163410000000  0.5069180000000 1.0
C      1  0.5773300000000  0.4137620000000  0.4805610000000 1.0
C      1  0.5171500000000  0.4152510000000  0.5758740000000 1.0
C      1  0.5618560000000  0.5775980000000  0.4386140000000 1.0
C      1  0.5478580000000  0.4590970000000  0.5706590000000 1.0
C      1  0.5653070000000  0.5438650000000  0.3964960000000 1.0
C      1  0.4684330000000  0.5242590000000  0.5472700000000 1.0
C      1  0.5839760000000  0.5101610000000  0.5505480000000 1.0
C      1  0.4093540000000  0.5136170000000  0.4722010000000 1.0
C      1  0.5400060000000  0.5791930000000  0.4200040000000 1.0
C      1  0.4313040000000  0.5329800000000  0.5800920000000 1.0
C      1  0.5626200000000  0.5957260000000  0.5297930000000 1.0
C      1  0.4106770000000  0.4436180000000  0.4956570000000 1.0
C      1  0.4233820000000  0.4744250000000  0.4447510000000 1.0
C      1  0.5775040000000  0.4607230000000  0.5656310000000 1.0
C      1  0.5212180000000  0.5460940000000  0.4829530000000 1.0
C      1  0.4412520000000  0.5183840000000  0.5064200000000 1.0
C      1  0.4618930000000  0.5487230000000  0.4092900000000 1.0
C      1  0.6354040000000  0.4775880000000  0.4558550000000 1.0
C      1  0.5764450000000  0.5208210000000  0.4045350000000 1.0
C      1  0.5041580000000  0.4841710000000  0.4675820000000 1.0
C      1  0.5877660000000  0.4880510000000  0.5662150000000 1.0
C      1  0.5729300000000  0.4279310000000  0.5277340000000 1.0
C      1  0.5891760000000  0.4802830000000  0.4364270000000 1.0
C      1  0.4493030000000  0.5654030000000  0.4284030000000 1.0
C      1  0.5224280000000  0.5550670000000  0.3791240000000 1.0
C      1  0.3927630000000  0.4542820000000  0.5450420000000 1.0
C      1  0.4386710000000  0.4426340000000  0.4949250000000 1.0
C      1  0.5102370000000  0.4250540000000  0.5013040000000 1.0
C      1  0.5800470000000  0.5708240000000  0.5975990000000 1.0
C      1  0.5847490000000  0.5362470000000  0.4621340000000 1.0
C      1  0.5042350000000  0.4571350000000  0.5971470000000 1.0
C      1  0.5529680000000  0.5395650000000  0.5194840000000 1.0
C      1  0.5173510000000  0.3727790000000  0.5122490000000 1.0
C      1  0.4618240000000  0.4194350000000  0.4198450000000 1.0
C      1  0.5085190000000  0.5357100000000  0.3671000000000 1.0
C      1  0.4790840000000  0.5328070000000  0.6207530000000 1.0
C      1  0.4635460000000  0.4561440000000  0.5579830000000 1.0
C      1  0.5856410000000  0.5822520000000  0.5335400000000 1.0
C      1  0.4738920000000  0.5402700000000  0.4860540000000 1.0
C      1  0.5221090000000  0.6668930000000  0.5874750000000 1.0
C      1  0.5729900000000  0.4563310000000  0.4424290000000 1.0
C      1  0.5390500000000  0.3783730000000  0.4934410000000 1.0
C      1  0.5295150000000  0.4454120000000  0.4615630000000 1.0
C      1  0.4621220000000  0.5894060000000  0.4422000000000 1.0
C      1  0.4784190000000  0.3851300000000  0.5603920000000 1.0
C      1  0.4921650000000  0.5835370000000  0.5003940000000 1.0
C      1  0.4879640000000  0.3751410000000  0.4734240000000 1.0
C      1  0.4467200000000  0.4975770000000  0.4460920000000 1.0
C      1  0.4058460000000  0.4511580000000  0.5689700000000 1.0
C      1  0.4306120000000  0.4929810000000  0.5426640000000 1.0
C      1  0.4783600000000  0.4921530000000  0.3744140000000 1.0
C      1  0.5456910000000  0.5332780000000  0.4912530000000 1.0
C      1  0.6557500000000  0.4797830000000  0.4376590000000 1.0
C      1  0.4878920000000  0.5452630000000  0.5502110000000 1.0
C      1  0.6387860000000  0.4617320000000  0.4792100000000 1.0
C      1  0.5759990000000  0.5342340000000  0.5372120000000 1.0
C      1  0.4469600000000  0.5144410000000  0.5328640000000 1.0
C      1  0.5050860000000  0.4916750000000  0.4397690000000 1.0
C      1  0.4889420000000  0.5962990000000  0.4338670000000 1.0
C      1  0.4962910000000  0.5485060000000  0.5781120000000 1.0
C      1  0.3597650000000  0.5131650000000  0.5307780000000 1.0
C      1  0.4800050000000  0.4406580000000  0.3571420000000 1.0
C      1  0.5802590000000  0.5622850000000  0.4514380000000 1.0
C      1  0.5592650000000  0.5825370000000  0.6094460000000 1.0
C      1  0.4339090000000  0.5912850000000  0.4928240000000 1.0
C      1  0.5463920000000  0.4189080000000  0.5343320000000 1.0
C      1  0.4787060000000  0.4398210000000  0.4636330000000 1.0
C      1  0.4793740000000  0.4708280000000  0.4686490000000 1.0
C      1  0.4282490000000  0.5218930000000  0.4509990000000 1.0
C      1  0.3828580000000  0.4990840000000  0.5335460000000 1.0
C      1  0.4037560000000  0.4852280000000  0.4721250000000 1.0
C      1  0.5916340000000  0.5606870000000  0.5758020000000 1.0
C      1  0.4971730000000  0.5535000000000  0.4994590000000 1.0
C      1  0.4531410000000  0.5859730000000  0.4711350000000 1.0
C      1  0.4532290000000  0.4583170000000  0.5130590000000 1.0
C      1  0.4822790000000  0.4755070000000  0.5965400000000 1.0
C      1  0.4691480000000  0.3598020000000  0.5162310000000 1.0
C      1  0.5169330000000  0.6272640000000  0.5533670000000 1.0
C      1  0.5322460000000  0.4870650000000  0.4342970000000 1.0
C      1  0.5337410000000  0.5899890000000  0.6108890000000 1.0
C      1  0.5082260000000  0.5882230000000  0.6034010000000 1.0
C      1  0.4056170000000  0.5076350000000  0.5480730000000 1.0
C      1  0.4802130000000  0.4156510000000  0.3497770000000 1.0
C      1  0.4585110000000  0.5976470000000  0.5638610000000 1.0
C      1  0.5181790000000  0.4293320000000  0.5284120000000 1.0
C      1  0.4538320000000  0.4702200000000  0.5851960000000 1.0
C      1  0.4556340000000  0.5567610000000  0.4725450000000 1.0
C      1  0.4096420000000  0.5555420000000  0.5368600000000 1.0
C      1  0.5219660000000  0.3794090000000  0.5403850000000 1.0
C      1  0.4553230000000  0.5462690000000  0.6196800000000 1.0
C      1  0.5504720000000  0.4511520000000  0.4813430000000 1.0
C      1  0.5327040000000  0.5578310000000  0.5314390000000 1.0
C      1  0.6110960000000  0.4912490000000  0.4516690000000 1.0
C      1  0.4488670000000  0.4374590000000  0.4694660000000 1.0
C      1  0.5140720000000  0.6045320000000  0.5374510000000 1.0
C      1  0.4098710000000  0.5742810000000  0.4915080000000 1.0
C      1  0.4586810000000  0.5002580000000  0.3954010000000 1.0
C      1  0.4397030000000  0.5475640000000  0.4499380000000 1.0
C      1  0.4407570000000  0.5045300000000  0.5867980000000 1.0
C      1  0.5148460000000  0.5922840000000  0.4260540000000 1.0
C      1  0.4649380000000  0.3720340000000  0.5412400000000 1.0
C      1  0.5277920000000  0.5001230000000  0.5483100000000 1.0
C      1  0.4795090000000  0.4659020000000  0.3651580000000 1.0
C      1  0.4524770000000  0.3400620000000  0.5072940000000 1.0
C      1  0.6393970000000  0.4742430000000  0.5042040000000 1.0
C      1  0.4060590000000  0.5505780000000  0.5078510000000 1.0
C      1  0.4156750000000  0.5262880000000  0.4968630000000 1.0
C      1  0.4892410000000  0.5735800000000  0.5893800000000 1.0
C      1  0.4741440000000  0.5031640000000  0.4247230000000 1.0
C      1  0.4629500000000  0.5142200000000  0.4890170000000 1.0
END
