TITL C-627109-622-114 79785.2548938079 125000 -429.156569045567 0 0 73 (C1) n - 1
REM
REM in /home/nfs/bkarasulu/CARBON/AIRSS/Generating-Clusters/LCBOP/Only-C1/SD-CG/FIRE-CG
REM
REM
REM
REM
REM
REM ./C.cell (11c1c37f851c82e70ff6c80c92926a4b)
REM AIRSS Version 0.9.1 bugfix July 2018 build 013d7b7c2542+ Fri, 06 Jul 2018 19:26:36 +0100
REM compiler GCC version 9.2.1 20190827 (Red Hat 9.2.1-1)
REM options -cpp -mtune=generic -march=x86-64 -g -O0 -fpre-include=/usr/include/finclude/math-vector-fortran.h
REM seed -639003772 -2143284542 -984187265 -1167826169 2081386054 1822485410 -2131601470 -111523905 -1189383355 -451173238 -1354752969 2063698833 1921025920 1013039255 -112937489 -1275359326 756578212 -1843670092 59160196 135089992 -1289914985 205773261 -1238021838 -754535776 1790055302 421100845 1058890115 1947911658 -774012473 -2029219657 -411837403 -470002751 344153624
REM
CELL 1.54180   50.00000   50.00000   50.00000   90.00000   90.00000   90.00000
LATT -1
SFAC C  
C      1  0.5197250000000  0.4840080000000  0.4227070000000 1.0
C      1  0.4390390000000  0.4859270000000  0.5600200000000 1.0
C      1  0.5124710000000  0.4706350000000  0.4745440000000 1.0
C      1  0.4637660000000  0.5246770000000  0.4846560000000 1.0
C      1  0.5009740000000  0.4186010000000  0.5227280000000 1.0
C      1  0.4662400000000  0.5310620000000  0.5568680000000 1.0
C      1  0.4749230000000  0.5139310000000  0.5356710000000 1.0
C      1  0.4496080000000  0.5524840000000  0.5482480000000 1.0
C      1  0.5087970000000  0.5888770000000  0.4867060000000 1.0
C      1  0.4328420000000  0.4821450000000  0.5324440000000 1.0
C      1  0.4909060000000  0.5979380000000  0.5062070000000 1.0
C      1  0.5135960000000  0.5371990000000  0.4269750000000 1.0
C      1  0.5349300000000  0.4183040000000  0.4587020000000 1.0
C      1  0.5279060000000  0.5115090000000  0.4280170000000 1.0
C      1  0.4752860000000  0.5252770000000  0.5113590000000 1.0
C      1  0.5162460000000  0.5338040000000  0.4789480000000 1.0
C      1  0.4743940000000  0.5020490000000  0.4684450000000 1.0
C      1  0.4270100000000  0.5453580000000  0.5322990000000 1.0
C      1  0.5141270000000  0.4854710000000  0.5353200000000 1.0
C      1  0.5282850000000  0.5238080000000  0.5651840000000 1.0
C      1  0.4751320000000  0.5933700000000  0.5272390000000 1.0
C      1  0.4855550000000  0.4879870000000  0.5389200000000 1.0
C      1  0.5533820000000  0.5095970000000  0.5686440000000 1.0
C      1  0.4473940000000  0.4637010000000  0.4797840000000 1.0
C      1  0.4648560000000  0.4473310000000  0.5246060000000 1.0
C      1  0.5879610000000  0.5124730000000  0.4713390000000 1.0
C      1  0.4862680000000  0.4491100000000  0.5663810000000 1.0
C      1  0.5229500000000  0.5087170000000  0.5211860000000 1.0
C      1  0.5334610000000  0.5575840000000  0.5195080000000 1.0
C      1  0.5417830000000  0.4437190000000  0.5018290000000 1.0
C      1  0.5772300000000  0.5046670000000  0.4469780000000 1.0
C      1  0.5078560000000  0.4356960000000  0.5493900000000 1.0
C      1  0.5334750000000  0.5744270000000  0.4945740000000 1.0
C      1  0.5620450000000  0.4584470000000  0.5146730000000 1.0
C      1  0.5685840000000  0.5263350000000  0.4857150000000 1.0
C      1  0.5370260000000  0.4385390000000  0.4394160000000 1.0
C      1  0.5149700000000  0.4536730000000  0.4956960000000 1.0
C      1  0.4862340000000  0.4405640000000  0.5056910000000 1.0
C      1  0.4611480000000  0.4899250000000  0.5810960000000 1.0
C      1  0.4614830000000  0.4950760000000  0.4440660000000 1.0
C      1  0.5456690000000  0.5706540000000  0.4668820000000 1.0
C      1  0.4360760000000  0.5133260000000  0.4931520000000 1.0
C      1  0.4701360000000  0.5109580000000  0.4222180000000 1.0
C      1  0.5114870000000  0.5117410000000  0.4958870000000 1.0
C      1  0.4987440000000  0.4934960000000  0.4784330000000 1.0
C      1  0.5435540000000  0.5278850000000  0.4704450000000 1.0
C      1  0.5244570000000  0.4597850000000  0.5436350000000 1.0
C      1  0.4610660000000  0.5777880000000  0.5437460000000 1.0
C      1  0.5246200000000  0.5662470000000  0.4456460000000 1.0
C      1  0.4908680000000  0.4434840000000  0.4358050000000 1.0
C      1  0.5068310000000  0.4864810000000  0.5936760000000 1.0
C      1  0.5499400000000  0.5135550000000  0.4453010000000 1.0
C      1  0.4729090000000  0.4634810000000  0.5450470000000 1.0
C      1  0.4850460000000  0.5355880000000  0.4205740000000 1.0
C      1  0.4836780000000  0.4693260000000  0.5875490000000 1.0
C      1  0.5421110000000  0.4164610000000  0.4935180000000 1.0
C      1  0.5022740000000  0.5822480000000  0.4584050000000 1.0
C      1  0.4710250000000  0.5588000000000  0.4294770000000 1.0
C      1  0.4838990000000  0.4283120000000  0.4594050000000 1.0
C      1  0.5684220000000  0.4922860000000  0.5542580000000 1.0
C      1  0.5162130000000  0.4559570000000  0.4294060000000 1.0
C      1  0.4436220000000  0.4741840000000  0.4523090000000 1.0
C      1  0.4371300000000  0.4841570000000  0.5020890000000 1.0
C      1  0.5713600000000  0.4750460000000  0.5337510000000 1.0
C      1  0.4783480000000  0.5669760000000  0.4554360000000 1.0
C      1  0.4753410000000  0.5169060000000  0.5797770000000 1.0
C      1  0.4826400000000  0.5456740000000  0.4731110000000 1.0
C      1  0.4212340000000  0.5314080000000  0.5098180000000 1.0
C      1  0.5278950000000  0.5334740000000  0.5363560000000 1.0
C      1  0.4693890000000  0.4424750000000  0.4801080000000 1.0
C      1  0.5053590000000  0.5136520000000  0.5820640000000 1.0
C      1  0.5147330000000  0.4048080000000  0.4999670000000 1.0
C      1  0.5040610000000  0.4093780000000  0.4699720000000 1.0
END
