TITL C-627113-6568-1936 77490.2156376357 125000 -1116.39234165126 0 0 181 (C1) n - 1
REM
REM in /home/nfs/bkarasulu/CARBON/AIRSS/Generating-Clusters/LCBOP/Only-C1/SD-CG/FIRE-CG
REM
REM
REM
REM
REM
REM ./C.cell (11c1c37f851c82e70ff6c80c92926a4b)
REM AIRSS Version 0.9.1 bugfix July 2018 build 013d7b7c2542+ Fri, 06 Jul 2018 19:26:36 +0100
REM compiler GCC version 9.2.1 20190827 (Red Hat 9.2.1-1)
REM options -cpp -mtune=generic -march=x86-64 -g -O0 -fpre-include=/usr/include/finclude/math-vector-fortran.h
REM seed 1314443115 267036652 766387492 -132147122 -608346429 -466176600 -199608884 -1767013444 97557060 -1011747359 507819927 -1658658201 -1523858752 -1665990921 -62404659 -4195395 347655345 298087664 1537216067 1256880619 -1762780002 -842777246 2142275291 1533355552 1970799966 -307764413 -1160126754 -384028262 1709972019 664241875 1234865199 1811413186 -717539487
REM
CELL 1.54180   50.00000   50.00000   50.00000   90.00000   90.00000   90.00000
LATT -1
SFAC C  
C      1  0.5428230000000  0.4904760000000  0.4438420000000 1.0
C      1  0.4745990000000  0.5623480000000  0.3925240000000 1.0
C      1  0.4613970000000  0.4568600000000  0.4396600000000 1.0
C      1  0.5455070000000  0.5815010000000  0.5617250000000 1.0
C      1  0.4765960000000  0.5259410000000  0.5239120000000 1.0
C      1  0.3980770000000  0.5246410000000  0.4631490000000 1.0
C      1  0.5236450000000  0.4879050000000  0.5423820000000 1.0
C      1  0.4765290000000  0.3926890000000  0.6793190000000 1.0
C      1  0.5191040000000  0.5105650000000  0.3699550000000 1.0
C      1  0.6030560000000  0.4708540000000  0.5547460000000 1.0
C      1  0.4951790000000  0.4417680000000  0.4731200000000 1.0
C      1  0.4292100000000  0.5559880000000  0.4169290000000 1.0
C      1  0.4378020000000  0.5616450000000  0.5723310000000 1.0
C      1  0.5352600000000  0.5716530000000  0.4432240000000 1.0
C      1  0.4816140000000  0.4437330000000  0.4250380000000 1.0
C      1  0.6040140000000  0.4536470000000  0.5313550000000 1.0
C      1  0.5440400000000  0.5356150000000  0.4015660000000 1.0
C      1  0.5608310000000  0.4556160000000  0.4078920000000 1.0
C      1  0.5094000000000  0.3890690000000  0.4554490000000 1.0
C      1  0.3686650000000  0.4912490000000  0.4880910000000 1.0
C      1  0.5777210000000  0.5596790000000  0.4286700000000 1.0
C      1  0.4727950000000  0.5441390000000  0.6155100000000 1.0
C      1  0.4728480000000  0.5009240000000  0.4573490000000 1.0
C      1  0.3933420000000  0.5255540000000  0.5604640000000 1.0
C      1  0.4970380000000  0.5169950000000  0.5655230000000 1.0
C      1  0.4347450000000  0.4019540000000  0.4483060000000 1.0
C      1  0.6588840000000  0.6044040000000  0.5066390000000 1.0
C      1  0.4867070000000  0.4997110000000  0.5095460000000 1.0
C      1  0.5577780000000  0.5257250000000  0.5516470000000 1.0
C      1  0.4198070000000  0.4150720000000  0.4304470000000 1.0
C      1  0.5814670000000  0.5696160000000  0.4554550000000 1.0
C      1  0.4684300000000  0.5117630000000  0.4102380000000 1.0
C      1  0.6069630000000  0.4604350000000  0.5036510000000 1.0
C      1  0.3806820000000  0.5168090000000  0.4852810000000 1.0
C      1  0.5504650000000  0.5279960000000  0.6119660000000 1.0
C      1  0.5536150000000  0.5541510000000  0.6051950000000 1.0
C      1  0.5325360000000  0.5156770000000  0.4521820000000 1.0
C      1  0.4831890000000  0.3979360000000  0.4459050000000 1.0
C      1  0.4040140000000  0.5785870000000  0.5049820000000 1.0
C      1  0.4787530000000  0.4029100000000  0.5636180000000 1.0
C      1  0.4200850000000  0.4771330000000  0.4876680000000 1.0
C      1  0.4543850000000  0.5817560000000  0.5655800000000 1.0
C      1  0.5039240000000  0.4608820000000  0.4166130000000 1.0
C      1  0.3825060000000  0.4666360000000  0.5581520000000 1.0
C      1  0.5938840000000  0.5122960000000  0.4945600000000 1.0
C      1  0.4319310000000  0.4099010000000  0.6566790000000 1.0
C      1  0.4160280000000  0.5061680000000  0.4187720000000 1.0
C      1  0.3802090000000  0.5312100000000  0.5098130000000 1.0
C      1  0.5414390000000  0.4443150000000  0.5988980000000 1.0
C      1  0.4681290000000  0.6177400000000  0.4171670000000 1.0
C      1  0.4176170000000  0.5322640000000  0.4082680000000 1.0
C      1  0.5542600000000  0.5990130000000  0.4844230000000 1.0
C      1  0.4139450000000  0.4220020000000  0.6414220000000 1.0
C      1  0.4538820000000  0.4800310000000  0.4537590000000 1.0
C      1  0.5169970000000  0.4380010000000  0.5262680000000 1.0
C      1  0.4202870000000  0.5671800000000  0.4423750000000 1.0
C      1  0.4849970000000  0.5095330000000  0.4812240000000 1.0
C      1  0.5915160000000  0.5057240000000  0.4368420000000 1.0
C      1  0.5302410000000  0.5278820000000  0.4791590000000 1.0
C      1  0.5829980000000  0.4189970000000  0.5070690000000 1.0
C      1  0.5339200000000  0.6177850000000  0.4883280000000 1.0
C      1  0.6031850000000  0.5314470000000  0.4755020000000 1.0
C      1  0.4831270000000  0.5136490000000  0.4337530000000 1.0
C      1  0.4734200000000  0.5158260000000  0.5518210000000 1.0
C      1  0.5532630000000  0.4439150000000  0.4726410000000 1.0
C      1  0.5958520000000  0.4980590000000  0.5510390000000 1.0
C      1  0.5154020000000  0.4949640000000  0.5155080000000 1.0
C      1  0.5307940000000  0.4845300000000  0.4936710000000 1.0
C      1  0.3711600000000  0.4669720000000  0.5339430000000 1.0
C      1  0.4926520000000  0.5508750000000  0.5215020000000 1.0
C      1  0.5171860000000  0.3785740000000  0.4814760000000 1.0
C      1  0.5902210000000  0.4538510000000  0.5744410000000 1.0
C      1  0.5496550000000  0.4759360000000  0.5387140000000 1.0
C      1  0.4974510000000  0.4201860000000  0.5756830000000 1.0
C      1  0.5410920000000  0.4227060000000  0.4602900000000 1.0
C      1  0.4911680000000  0.5579200000000  0.4706810000000 1.0
C      1  0.4767750000000  0.4721370000000  0.5180730000000 1.0
C      1  0.5000970000000  0.3861690000000  0.6883610000000 1.0
C      1  0.5687140000000  0.5005160000000  0.5369560000000 1.0
C      1  0.6079990000000  0.4549050000000  0.4228770000000 1.0
C      1  0.6198530000000  0.5761700000000  0.4856240000000 1.0
C      1  0.5496230000000  0.5560420000000  0.4211710000000 1.0
C      1  0.3952330000000  0.4526310000000  0.6031270000000 1.0
C      1  0.4930740000000  0.6211890000000  0.5212050000000 1.0
C      1  0.4354040000000  0.5056810000000  0.5275900000000 1.0
C      1  0.4147430000000  0.4352130000000  0.4136730000000 1.0
C      1  0.5506780000000  0.4814840000000  0.3942450000000 1.0
C      1  0.5252590000000  0.4118730000000  0.5732620000000 1.0
C      1  0.5218460000000  0.5881910000000  0.5440550000000 1.0
C      1  0.4840820000000  0.6379560000000  0.4131810000000 1.0
C      1  0.4983820000000  0.6062230000000  0.5454550000000 1.0
C      1  0.4523060000000  0.5708810000000  0.4072800000000 1.0
C      1  0.5095680000000  0.4602090000000  0.4612960000000 1.0
C      1  0.4462520000000  0.4809400000000  0.5732130000000 1.0
C      1  0.5216690000000  0.4867720000000  0.5926990000000 1.0
C      1  0.5859490000000  0.4293040000000  0.5349790000000 1.0
C      1  0.5018750000000  0.5331790000000  0.4795330000000 1.0
C      1  0.6076990000000  0.4874300000000  0.4960750000000 1.0
C      1  0.4897130000000  0.4462420000000  0.5177380000000 1.0
C      1  0.6093320000000  0.5197800000000  0.4506470000000 1.0
C      1  0.5710960000000  0.4871410000000  0.4405050000000 1.0
C      1  0.5495260000000  0.4296270000000  0.4046830000000 1.0
C      1  0.5208800000000  0.5353790000000  0.3841760000000 1.0
C      1  0.5800820000000  0.4465690000000  0.4632790000000 1.0
C      1  0.4093280000000  0.5515390000000  0.4636370000000 1.0
C      1  0.5246270000000  0.4842880000000  0.3802620000000 1.0
C      1  0.5019550000000  0.4705690000000  0.3901180000000 1.0
C      1  0.4941240000000  0.5551470000000  0.6038950000000 1.0
C      1  0.5441190000000  0.3836030000000  0.4909480000000 1.0
C      1  0.5659000000000  0.3973180000000  0.4996190000000 1.0
C      1  0.5496540000000  0.4261930000000  0.5778160000000 1.0
C      1  0.5380740000000  0.5694510000000  0.5869440000000 1.0
C      1  0.5793690000000  0.5444640000000  0.5573220000000 1.0
C      1  0.5081960000000  0.5716450000000  0.4523720000000 1.0
C      1  0.5952500000000  0.4392260000000  0.4872970000000 1.0
C      1  0.4480500000000  0.5352670000000  0.6102910000000 1.0
C      1  0.5053620000000  0.4078170000000  0.4038500000000 1.0
C      1  0.3924800000000  0.5966660000000  0.5198000000000 1.0
C      1  0.4626590000000  0.4114890000000  0.4877070000000 1.0
C      1  0.4348750000000  0.5926070000000  0.4456060000000 1.0
C      1  0.4377310000000  0.6088400000000  0.4682230000000 1.0
C      1  0.5128360000000  0.5572320000000  0.5832720000000 1.0
C      1  0.4194220000000  0.4890480000000  0.5819330000000 1.0
C      1  0.4672000000000  0.4623320000000  0.5821870000000 1.0
C      1  0.4528170000000  0.5953900000000  0.4229290000000 1.0
C      1  0.4673590000000  0.6225660000000  0.5096330000000 1.0
C      1  0.5799080000000  0.4590310000000  0.4337810000000 1.0
C      1  0.4114570000000  0.5041230000000  0.4472620000000 1.0
C      1  0.5308610000000  0.4038740000000  0.4427990000000 1.0
C      1  0.4476630000000  0.5290780000000  0.5143980000000 1.0
C      1  0.3655750000000  0.4742180000000  0.5087570000000 1.0
C      1  0.4751260000000  0.4754550000000  0.3812620000000 1.0
C      1  0.5740040000000  0.4316270000000  0.5630570000000 1.0
C      1  0.4532780000000  0.4002880000000  0.6691050000000 1.0
C      1  0.4010900000000  0.4364930000000  0.6233230000000 1.0
C      1  0.5691810000000  0.5134900000000  0.5087200000000 1.0
C      1  0.5585660000000  0.5098740000000  0.3996820000000 1.0
C      1  0.5207350000000  0.4107590000000  0.5287120000000 1.0
C      1  0.4654440000000  0.5623160000000  0.4814100000000 1.0
C      1  0.4271610000000  0.4849560000000  0.4617910000000 1.0
C      1  0.5419710000000  0.4527890000000  0.5218330000000 1.0
C      1  0.4982160000000  0.3691170000000  0.5000870000000 1.0
C      1  0.5446330000000  0.5289710000000  0.5045150000000 1.0
C      1  0.5146550000000  0.6270720000000  0.5041740000000 1.0
C      1  0.4835550000000  0.3716290000000  0.5223630000000 1.0
C      1  0.4510020000000  0.4987950000000  0.5513460000000 1.0
C      1  0.4134300000000  0.5177640000000  0.5789340000000 1.0
C      1  0.4314600000000  0.5384270000000  0.5877350000000 1.0
C      1  0.4847610000000  0.4153170000000  0.4222330000000 1.0
C      1  0.4560130000000  0.4913260000000  0.3950960000000 1.0
C      1  0.4437850000000  0.5508980000000  0.4964280000000 1.0
C      1  0.5342220000000  0.5352760000000  0.5399770000000 1.0
C      1  0.5213440000000  0.4708890000000  0.4380620000000 1.0
C      1  0.5170920000000  0.4593860000000  0.5977540000000 1.0
C      1  0.5725870000000  0.5957150000000  0.5055640000000 1.0
C      1  0.5315700000000  0.4100720000000  0.4146670000000 1.0
C      1  0.3833660000000  0.5317160000000  0.5364220000000 1.0
C      1  0.5445620000000  0.4597360000000  0.4940260000000 1.0
C      1  0.6006550000000  0.5597210000000  0.4739030000000 1.0
C      1  0.4184630000000  0.4593980000000  0.4030030000000 1.0
C      1  0.4290010000000  0.4853880000000  0.4033130000000 1.0
C      1  0.5126150000000  0.5684280000000  0.5250380000000 1.0
C      1  0.5713610000000  0.5719430000000  0.5515390000000 1.0
C      1  0.5375700000000  0.5046780000000  0.6078160000000 1.0
C      1  0.4220800000000  0.4864370000000  0.5125530000000 1.0
C      1  0.4987980000000  0.5527970000000  0.3859030000000 1.0
C      1  0.5098290000000  0.5222970000000  0.4354180000000 1.0
C      1  0.5132390000000  0.5395000000000  0.5608360000000 1.0
C      1  0.4495570000000  0.6187630000000  0.4900560000000 1.0
C      1  0.4593630000000  0.4001890000000  0.4617750000000 1.0
C      1  0.6019440000000  0.5257120000000  0.5593730000000 1.0
C      1  0.4755070000000  0.3843470000000  0.5445240000000 1.0
C      1  0.3984020000000  0.4697320000000  0.5812800000000 1.0
C      1  0.6397610000000  0.5903410000000  0.4958640000000 1.0
C      1  0.5558780000000  0.5818120000000  0.4620910000000 1.0
C      1  0.4923790000000  0.4470450000000  0.5865910000000 1.0
C      1  0.4810870000000  0.4313900000000  0.4947920000000 1.0
C      1  0.4180020000000  0.5601150000000  0.4895560000000 1.0
C      1  0.5128250000000  0.4944120000000  0.5671670000000 1.0
C      1  0.4757290000000  0.5972970000000  0.5603550000000 1.0
C      1  0.5806520000000  0.5856000000000  0.5288730000000 1.0
END
