TITL C-627111-6168-1832 -5.23859701972377e-07 125000 -586.009914911041 0 0 95 (C1) n - 1
REM
REM in /home/nfs/bkarasulu/CARBON/AIRSS/Generating-Clusters/LCBOP/Only-C1/SD-CG/FIRE-CG
REM
REM
REM
REM
REM
REM ./C.cell (11c1c37f851c82e70ff6c80c92926a4b)
REM AIRSS Version 0.9.1 bugfix July 2018 build 013d7b7c2542+ Fri, 06 Jul 2018 19:26:36 +0100
REM compiler GCC version 9.2.1 20190827 (Red Hat 9.2.1-1)
REM options -cpp -mtune=generic -march=x86-64 -g -O0 -fpre-include=/usr/include/finclude/math-vector-fortran.h
REM seed -1653129684 115998925 1480974489 1693131047 -940342745 665267279 -688797400 1715122311 -1752044933 -1012092177 -42681858 -1290891634 1868422448 431150809 -1019874513 -324695445 734990209 -1382814544 1420061685 -225185343 -1903378423 599735920 -2032143444 1889000505 -1515578576 -1159719435 -1740951691 333861364 1293824844 -162177933 232672163 -916019552 -802221842
REM
CELL 1.54180   50.00000   50.00000   50.00000   90.00000   90.00000   90.00000
LATT -1
SFAC C  
C      1  0.4681240000000  0.4139320000000  0.4953150000000 1.0
C      1  0.4271410000000  0.4410300000000  0.4971800000000 1.0
C      1  0.5841980000000  0.5870140000000  0.5192300000000 1.0
C      1  0.5037120000000  0.4494310000000  0.4493560000000 1.0
C      1  0.4710400000000  0.4878860000000  0.5342040000000 1.0
C      1  0.5028980000000  0.5347080000000  0.4514470000000 1.0
C      1  0.4587990000000  0.4335590000000  0.4536820000000 1.0
C      1  0.4214520000000  0.4769850000000  0.5286010000000 1.0
C      1  0.4795530000000  0.4976850000000  0.4790500000000 1.0
C      1  0.4372740000000  0.4910620000000  0.4880080000000 1.0
C      1  0.4398420000000  0.5268800000000  0.5468730000000 1.0
C      1  0.5484080000000  0.5841930000000  0.4811410000000 1.0
C      1  0.5008430000000  0.5396600000000  0.5766940000000 1.0
C      1  0.5513830000000  0.5316730000000  0.4344510000000 1.0
C      1  0.4228360000000  0.4640600000000  0.4417180000000 1.0
C      1  0.4407050000000  0.5198500000000  0.4956450000000 1.0
C      1  0.5720480000000  0.4885700000000  0.5394120000000 1.0
C      1  0.5819600000000  0.5762990000000  0.5445930000000 1.0
C      1  0.5003820000000  0.4332240000000  0.5631180000000 1.0
C      1  0.5248900000000  0.5083880000000  0.5212110000000 1.0
C      1  0.4793300000000  0.5239070000000  0.4647460000000 1.0
C      1  0.5636750000000  0.5594520000000  0.5601220000000 1.0
C      1  0.4596900000000  0.5216600000000  0.5663820000000 1.0
C      1  0.4264080000000  0.4692240000000  0.5016890000000 1.0
C      1  0.4537670000000  0.4755660000000  0.4052580000000 1.0
C      1  0.5382370000000  0.4783470000000  0.4582010000000 1.0
C      1  0.4900190000000  0.5649550000000  0.5376940000000 1.0
C      1  0.5656680000000  0.4606980000000  0.5411400000000 1.0
C      1  0.4724750000000  0.5404130000000  0.5842570000000 1.0
C      1  0.3896630000000  0.5232490000000  0.4830920000000 1.0
C      1  0.5741620000000  0.5901030000000  0.4936240000000 1.0
C      1  0.5748370000000  0.5218500000000  0.5020200000000 1.0
C      1  0.4285480000000  0.4726540000000  0.4152530000000 1.0
C      1  0.4801020000000  0.5022150000000  0.5577560000000 1.0
C      1  0.4770930000000  0.4175950000000  0.4685190000000 1.0
C      1  0.5317150000000  0.4157670000000  0.4987410000000 1.0
C      1  0.5534820000000  0.4311340000000  0.4585580000000 1.0
C      1  0.4522130000000  0.5342850000000  0.4714530000000 1.0
C      1  0.5248220000000  0.4468490000000  0.5624770000000 1.0
C      1  0.4641250000000  0.5758920000000  0.5365690000000 1.0
C      1  0.5040170000000  0.4214790000000  0.4585360000000 1.0
C      1  0.5528030000000  0.5602830000000  0.4364110000000 1.0
C      1  0.5403460000000  0.5598520000000  0.5222480000000 1.0
C      1  0.3964940000000  0.4921280000000  0.5235410000000 1.0
C      1  0.5616680000000  0.5423760000000  0.5153540000000 1.0
C      1  0.3870720000000  0.4974560000000  0.4951720000000 1.0
C      1  0.4756050000000  0.4311280000000  0.5534200000000 1.0
C      1  0.5632430000000  0.5169910000000  0.4769860000000 1.0
C      1  0.4489750000000  0.4598770000000  0.4543500000000 1.0
C      1  0.5901950000000  0.4963480000000  0.4474300000000 1.0
C      1  0.5020470000000  0.4699430000000  0.4283770000000 1.0
C      1  0.5313760000000  0.5783310000000  0.5033410000000 1.0
C      1  0.5839600000000  0.4969320000000  0.5137350000000 1.0
C      1  0.5422870000000  0.4445220000000  0.5399390000000 1.0
C      1  0.4012360000000  0.4570830000000  0.4599510000000 1.0
C      1  0.4434200000000  0.5660370000000  0.5194260000000 1.0
C      1  0.6154920000000  0.4602220000000  0.5027520000000 1.0
C      1  0.4800780000000  0.4735550000000  0.4110630000000 1.0
C      1  0.5290050000000  0.4703990000000  0.5774760000000 1.0
C      1  0.5859540000000  0.4738350000000  0.4656260000000 1.0
C      1  0.5163470000000  0.4619700000000  0.4721490000000 1.0
C      1  0.4310430000000  0.5773630000000  0.4722030000000 1.0
C      1  0.4386580000000  0.5369550000000  0.5201190000000 1.0
C      1  0.5223790000000  0.4904650000000  0.4350210000000 1.0
C      1  0.4943350000000  0.5466560000000  0.5165870000000 1.0
C      1  0.4817220000000  0.4994220000000  0.5087620000000 1.0
C      1  0.5236900000000  0.5194040000000  0.4360360000000 1.0
C      1  0.5004110000000  0.5198700000000  0.5155420000000 1.0
C      1  0.5068100000000  0.5118150000000  0.5682440000000 1.0
C      1  0.4559450000000  0.4414200000000  0.5362350000000 1.0
C      1  0.4042300000000  0.5381880000000  0.4658470000000 1.0
C      1  0.4491430000000  0.4285650000000  0.5109710000000 1.0
C      1  0.5687150000000  0.5319450000000  0.5664890000000 1.0
C      1  0.5318150000000  0.4976720000000  0.5698920000000 1.0
C      1  0.3858480000000  0.4764080000000  0.4749690000000 1.0
C      1  0.6339640000000  0.4440550000000  0.5114960000000 1.0
C      1  0.5112580000000  0.5616650000000  0.4575210000000 1.0
C      1  0.5218140000000  0.4623160000000  0.5004150000000 1.0
C      1  0.5093340000000  0.5605600000000  0.5589950000000 1.0
C      1  0.4087940000000  0.4343510000000  0.4765690000000 1.0
C      1  0.4579480000000  0.4812880000000  0.4704220000000 1.0
C      1  0.4611370000000  0.5551700000000  0.6039500000000 1.0
C      1  0.5584100000000  0.5060490000000  0.5594260000000 1.0
C      1  0.5363530000000  0.5630740000000  0.5506160000000 1.0
C      1  0.5618850000000  0.4587990000000  0.4582660000000 1.0
C      1  0.5432640000000  0.4978920000000  0.4796460000000 1.0
C      1  0.5378370000000  0.5732880000000  0.4567490000000 1.0
C      1  0.4342350000000  0.5824640000000  0.4985100000000 1.0
C      1  0.4298450000000  0.5507270000000  0.4628220000000 1.0
C      1  0.5947250000000  0.4770690000000  0.4939460000000 1.0
C      1  0.5307580000000  0.4164250000000  0.4700540000000 1.0
C      1  0.5307590000000  0.4393250000000  0.5145140000000 1.0
C      1  0.5720650000000  0.5185500000000  0.4498350000000 1.0
C      1  0.4484170000000  0.4697780000000  0.5392620000000 1.0
C      1  0.5333130000000  0.4883560000000  0.5043060000000 1.0
END
