TITL C-627106-156-614 -6.34439199643936e-07 125000 -898.304325064949 0 0 145 (C1) n - 1
REM
REM in /home/nfs/bkarasulu/CARBON/AIRSS/Generating-Clusters/LCBOP/Only-C1/SD-CG/FIRE-CG
REM
REM
REM
REM
REM
REM ./C.cell (11c1c37f851c82e70ff6c80c92926a4b)
REM AIRSS Version 0.9.1 bugfix July 2018 build 013d7b7c2542+ Fri, 06 Jul 2018 19:26:36 +0100
REM compiler GCC version 9.2.1 20190827 (Red Hat 9.2.1-1)
REM options -cpp -mtune=generic -march=x86-64 -g -O0 -fpre-include=/usr/include/finclude/math-vector-fortran.h
REM seed 1132595119 -983813353 -148817475 641521560 -1826565477 161377191 1201270725 -1925892708 -798911105 -1781973960 -1011547727 487744624 1742689186 -2102716104 -1024774868 737743846 -662055480 923464940 -1396652459 829752456 1563362588 1507098585 -1264836525 -1630507487 -661311243 1411535700 992124854 462829506 -1922735850 -1007709840 716389969 -1473719924 1326668491
REM
CELL 1.54180   50.00000   50.00000   50.00000   90.00000   90.00000   90.00000
LATT -1
SFAC C  
C      1  0.5723740000000  0.4834410000000  0.5593450000000 1.0
C      1  0.4749980000000  0.4413020000000  0.4296490000000 1.0
C      1  0.4094450000000  0.4390110000000  0.5329940000000 1.0
C      1  0.4215660000000  0.5109050000000  0.4237660000000 1.0
C      1  0.4997740000000  0.4020270000000  0.5237870000000 1.0
C      1  0.4518270000000  0.5038240000000  0.5339220000000 1.0
C      1  0.4052790000000  0.4153680000000  0.4635230000000 1.0
C      1  0.4520670000000  0.4459500000000  0.4141770000000 1.0
C      1  0.3905750000000  0.5092930000000  0.5436950000000 1.0
C      1  0.3966400000000  0.5472270000000  0.5100120000000 1.0
C      1  0.5237140000000  0.5046080000000  0.5405740000000 1.0
C      1  0.4728050000000  0.4034870000000  0.5326310000000 1.0
C      1  0.4955570000000  0.5730600000000  0.4546040000000 1.0
C      1  0.4302050000000  0.5094210000000  0.5135820000000 1.0
C      1  0.5093250000000  0.5630080000000  0.5956820000000 1.0
C      1  0.4761070000000  0.5445810000000  0.5521740000000 1.0
C      1  0.4384350000000  0.6024740000000  0.4925510000000 1.0
C      1  0.5494250000000  0.4051140000000  0.5302680000000 1.0
C      1  0.5545690000000  0.5234110000000  0.5823250000000 1.0
C      1  0.4915990000000  0.4941110000000  0.5784390000000 1.0
C      1  0.5370570000000  0.5920670000000  0.5614670000000 1.0
C      1  0.5555480000000  0.5536470000000  0.4140170000000 1.0
C      1  0.4709520000000  0.4797190000000  0.5909440000000 1.0
C      1  0.5103490000000  0.4256100000000  0.4558370000000 1.0
C      1  0.4891840000000  0.5115200000000  0.4889730000000 1.0
C      1  0.5111300000000  0.5072070000000  0.4255880000000 1.0
C      1  0.4342100000000  0.4664160000000  0.5641250000000 1.0
C      1  0.4406030000000  0.5173830000000  0.4860120000000 1.0
C      1  0.4671470000000  0.4021190000000  0.5600010000000 1.0
C      1  0.5666000000000  0.4238290000000  0.5445920000000 1.0
C      1  0.6164890000000  0.4862260000000  0.4804730000000 1.0
C      1  0.4507700000000  0.4769760000000  0.5433580000000 1.0
C      1  0.5186420000000  0.5990950000000  0.5401680000000 1.0
C      1  0.4239540000000  0.4528250000000  0.5104060000000 1.0
C      1  0.5146720000000  0.5965110000000  0.4933030000000 1.0
C      1  0.4962780000000  0.4959800000000  0.5485680000000 1.0
C      1  0.5984820000000  0.5213570000000  0.5227790000000 1.0
C      1  0.4753390000000  0.4179220000000  0.5818330000000 1.0
C      1  0.5330090000000  0.4549370000000  0.5015710000000 1.0
C      1  0.5315170000000  0.5700010000000  0.5793270000000 1.0
C      1  0.3705950000000  0.5550040000000  0.5132020000000 1.0
C      1  0.4655420000000  0.5088350000000  0.4740730000000 1.0
C      1  0.5984040000000  0.5544720000000  0.5590660000000 1.0
C      1  0.4964120000000  0.5306460000000  0.4183440000000 1.0
C      1  0.4641050000000  0.4451210000000  0.4770310000000 1.0
C      1  0.5970940000000  0.4303900000000  0.5055070000000 1.0
C      1  0.3977420000000  0.4828000000000  0.5374370000000 1.0
C      1  0.4682070000000  0.5410340000000  0.5795390000000 1.0
C      1  0.5522380000000  0.5315560000000  0.4308570000000 1.0
C      1  0.4812090000000  0.4318680000000  0.4571200000000 1.0
C      1  0.6111690000000  0.5378240000000  0.5033900000000 1.0
C      1  0.5617030000000  0.5960240000000  0.5196740000000 1.0
C      1  0.5860830000000  0.4394600000000  0.4825840000000 1.0
C      1  0.5810880000000  0.5881860000000  0.5008500000000 1.0
C      1  0.5948440000000  0.5907350000000  0.4543410000000 1.0
C      1  0.4366090000000  0.3964250000000  0.4984170000000 1.0
C      1  0.5240200000000  0.4252100000000  0.5638520000000 1.0
C      1  0.5028660000000  0.4245050000000  0.5821870000000 1.0
C      1  0.5398750000000  0.5068570000000  0.4238290000000 1.0
C      1  0.5395520000000  0.5227220000000  0.5268900000000 1.0
C      1  0.4236010000000  0.4547550000000  0.3759910000000 1.0
C      1  0.3973010000000  0.4148840000000  0.5345910000000 1.0
C      1  0.5559820000000  0.3949110000000  0.5048950000000 1.0
C      1  0.6033540000000  0.5489770000000  0.4784760000000 1.0
C      1  0.4185240000000  0.5276930000000  0.4444220000000 1.0
C      1  0.4296240000000  0.6254520000000  0.5043650000000 1.0
C      1  0.5794900000000  0.5006750000000  0.5098900000000 1.0
C      1  0.4215410000000  0.5458600000000  0.5554850000000 1.0
C      1  0.4539300000000  0.4127620000000  0.5135270000000 1.0
C      1  0.4848980000000  0.5320840000000  0.3928320000000 1.0
C      1  0.4816760000000  0.5199060000000  0.3693140000000 1.0
C      1  0.5548580000000  0.5172600000000  0.5037860000000 1.0
C      1  0.4657310000000  0.5984990000000  0.4864150000000 1.0
C      1  0.5477760000000  0.4568710000000  0.4280580000000 1.0
C      1  0.5347660000000  0.5066300000000  0.5952240000000 1.0
C      1  0.4955300000000  0.5530990000000  0.4351150000000 1.0
C      1  0.4562590000000  0.4345760000000  0.5940630000000 1.0
C      1  0.4123070000000  0.5718680000000  0.5568240000000 1.0
C      1  0.5163950000000  0.5756430000000  0.4740310000000 1.0
C      1  0.4725580000000  0.5881050000000  0.4608900000000 1.0
C      1  0.5642590000000  0.5322870000000  0.4566600000000 1.0
C      1  0.5928290000000  0.5315370000000  0.4576790000000 1.0
C      1  0.5942410000000  0.5275470000000  0.5510640000000 1.0
C      1  0.4912840000000  0.5933150000000  0.5326340000000 1.0
C      1  0.5066110000000  0.5135000000000  0.5936310000000 1.0
C      1  0.5910600000000  0.4286240000000  0.5317200000000 1.0
C      1  0.5020270000000  0.4618810000000  0.3936020000000 1.0
C      1  0.4149820000000  0.4814410000000  0.5125140000000 1.0
C      1  0.5200850000000  0.4066960000000  0.4744910000000 1.0
C      1  0.5106540000000  0.4698750000000  0.5096490000000 1.0
C      1  0.4677850000000  0.4594690000000  0.5281690000000 1.0
C      1  0.4994180000000  0.4579560000000  0.4226770000000 1.0
C      1  0.5769110000000  0.5107100000000  0.5680870000000 1.0
C      1  0.4785600000000  0.5707370000000  0.5428070000000 1.0
C      1  0.5223620000000  0.4079430000000  0.5400870000000 1.0
C      1  0.5235550000000  0.4424680000000  0.4349300000000 1.0
C      1  0.4207620000000  0.5817090000000  0.4858950000000 1.0
C      1  0.4777980000000  0.5189530000000  0.5368700000000 1.0
C      1  0.4937030000000  0.4701990000000  0.5314330000000 1.0
C      1  0.4232670000000  0.5346440000000  0.4712160000000 1.0
C      1  0.4104160000000  0.5292030000000  0.5304810000000 1.0
C      1  0.4284460000000  0.4891970000000  0.4097160000000 1.0
C      1  0.4239110000000  0.4615540000000  0.4559300000000 1.0
C      1  0.5895390000000  0.4859930000000  0.4861070000000 1.0
C      1  0.5415570000000  0.4786220000000  0.5949500000000 1.0
C      1  0.5453640000000  0.5471390000000  0.5697710000000 1.0
C      1  0.4993440000000  0.4835850000000  0.4405680000000 1.0
C      1  0.4118020000000  0.5552790000000  0.4870920000000 1.0
C      1  0.4347130000000  0.4633350000000  0.4001660000000 1.0
C      1  0.5644090000000  0.5924300000000  0.5487650000000 1.0
C      1  0.4083230000000  0.4603920000000  0.5532930000000 1.0
C      1  0.5731840000000  0.4641940000000  0.4770640000000 1.0
C      1  0.5947040000000  0.5767140000000  0.4787210000000 1.0
C      1  0.5843510000000  0.5913950000000  0.4297880000000 1.0
C      1  0.5684840000000  0.5770570000000  0.4137320000000 1.0
C      1  0.5063740000000  0.4894880000000  0.4890850000000 1.0
C      1  0.5558960000000  0.4651190000000  0.5742560000000 1.0
C      1  0.5465480000000  0.3985340000000  0.4797630000000 1.0
C      1  0.5869300000000  0.5787920000000  0.5588410000000 1.0
C      1  0.4869570000000  0.4956150000000  0.3594050000000 1.0
C      1  0.5030450000000  0.3995990000000  0.4959020000000 1.0
C      1  0.4498720000000  0.4611100000000  0.5872180000000 1.0
C      1  0.5444960000000  0.4653990000000  0.4766830000000 1.0
C      1  0.4395450000000  0.5380980000000  0.5770020000000 1.0
C      1  0.5339190000000  0.6007890000000  0.5142420000000 1.0
C      1  0.4140120000000  0.4470230000000  0.3530250000000 1.0
C      1  0.5502830000000  0.4388340000000  0.5642270000000 1.0
C      1  0.5308420000000  0.5531780000000  0.4813870000000 1.0
C      1  0.5497320000000  0.5328870000000  0.4805580000000 1.0
C      1  0.4678300000000  0.4880360000000  0.4552710000000 1.0
C      1  0.5752090000000  0.4805890000000  0.5316590000000 1.0
C      1  0.3697850000000  0.5167980000000  0.5594460000000 1.0
C      1  0.4961320000000  0.4729220000000  0.3701280000000 1.0
C      1  0.4068970000000  0.4408290000000  0.4553770000000 1.0
C      1  0.5203570000000  0.4806640000000  0.4651190000000 1.0
C      1  0.4177090000000  0.3978510000000  0.4795030000000 1.0
C      1  0.6011070000000  0.5106740000000  0.4396680000000 1.0
C      1  0.4928490000000  0.5393700000000  0.5953510000000 1.0
C      1  0.4538350000000  0.4423720000000  0.5063960000000 1.0
C      1  0.4509230000000  0.4664280000000  0.4619820000000 1.0
C      1  0.4874400000000  0.5997110000000  0.5045380000000 1.0
C      1  0.5856910000000  0.4912230000000  0.4277660000000 1.0
C      1  0.5579700000000  0.4837140000000  0.4243760000000 1.0
C      1  0.5450500000000  0.5455160000000  0.5415590000000 1.0
C      1  0.4883820000000  0.5280980000000  0.5108800000000 1.0
END
