TITL C-627108-131-1005 61.8572901601942 125000 -665.388232884312 0 0 110 (C1) n - 1
REM
REM in /home/nfs/bkarasulu/CARBON/AIRSS/Generating-Clusters/LCBOP/Only-C1/SD-CG/FIRE-CG
REM
REM
REM
REM
REM
REM ./C.cell (11c1c37f851c82e70ff6c80c92926a4b)
REM AIRSS Version 0.9.1 bugfix July 2018 build 013d7b7c2542+ Fri, 06 Jul 2018 19:26:36 +0100
REM compiler GCC version 9.2.1 20190827 (Red Hat 9.2.1-1)
REM options -cpp -mtune=generic -march=x86-64 -g -O0 -fpre-include=/usr/include/finclude/math-vector-fortran.h
REM seed -1569329688 -855923864 1325672771 948654251 -1342074249 237806385 32210058 -293418380 1622358062 -288455522 1029691787 -2121881765 -1286472237 -1993765493 1980458564 -2144287506 -1010707110 1464793985 -2009028404 1522526409 1988576395 -1483567331 1657439434 485843411 -627106346 -894304025 1579742489 -487603843 -1491734930 1342248421 209779864 1594969673 -638836517
REM
CELL 1.54180   50.00000   50.00000   50.00000   90.00000   90.00000   90.00000
LATT -1
SFAC C  
C      1  0.5285930000000  0.4103980000000  0.4718590000000 1.0
C      1  0.5863710000000  0.5361330000000  0.5201560000000 1.0
C      1  0.4096030000000  0.5037180000000  0.5229810000000 1.0
C      1  0.4017810000000  0.4875550000000  0.4996900000000 1.0
C      1  0.5482690000000  0.4283190000000  0.4609000000000 1.0
C      1  0.4752390000000  0.4352000000000  0.4643000000000 1.0
C      1  0.5451870000000  0.4777230000000  0.5686870000000 1.0
C      1  0.6095560000000  0.4405370000000  0.4662580000000 1.0
C      1  0.4538630000000  0.4910660000000  0.5031430000000 1.0
C      1  0.4461640000000  0.5320320000000  0.4188030000000 1.0
C      1  0.5084220000000  0.5073200000000  0.4435590000000 1.0
C      1  0.4182250000000  0.5583220000000  0.4448140000000 1.0
C      1  0.4943300000000  0.5641480000000  0.4413700000000 1.0
C      1  0.5250100000000  0.4450640000000  0.5040600000000 1.0
C      1  0.4510070000000  0.4944190000000  0.5871150000000 1.0
C      1  0.4313220000000  0.4667600000000  0.4706080000000 1.0
C      1  0.5224290000000  0.5607720000000  0.4469080000000 1.0
C      1  0.5193500000000  0.4909530000000  0.5822490000000 1.0
C      1  0.5034590000000  0.5002670000000  0.5233840000000 1.0
C      1  0.4897710000000  0.4122220000000  0.5080740000000 1.0
C      1  0.4401280000000  0.5072240000000  0.4324050000000 1.0
C      1  0.5073640000000  0.4616760000000  0.4885750000000 1.0
C      1  0.5183280000000  0.4860820000000  0.4822020000000 1.0
C      1  0.5452910000000  0.4584390000000  0.5209660000000 1.0
C      1  0.5137350000000  0.4332130000000  0.5572910000000 1.0
C      1  0.5712500000000  0.4998730000000  0.4533670000000 1.0
C      1  0.4056720000000  0.5352720000000  0.4524360000000 1.0
C      1  0.4172130000000  0.5091640000000  0.4511350000000 1.0
C      1  0.4623250000000  0.4324610000000  0.5465960000000 1.0
C      1  0.5181510000000  0.5212670000000  0.5790480000000 1.0
C      1  0.4614200000000  0.5182550000000  0.5025780000000 1.0
C      1  0.5634760000000  0.5396320000000  0.4777060000000 1.0
C      1  0.4609500000000  0.4745380000000  0.5241540000000 1.0
C      1  0.4128550000000  0.4898450000000  0.4714390000000 1.0
C      1  0.4004490000000  0.4580330000000  0.5026690000000 1.0
C      1  0.5043130000000  0.5063190000000  0.4955010000000 1.0
C      1  0.4570360000000  0.4753470000000  0.4796590000000 1.0
C      1  0.4936420000000  0.5428190000000  0.5265720000000 1.0
C      1  0.5464350000000  0.4787740000000  0.4132290000000 1.0
C      1  0.4823760000000  0.5093310000000  0.4537570000000 1.0
C      1  0.4178340000000  0.4893630000000  0.5498720000000 1.0
C      1  0.5712980000000  0.4896960000000  0.5677950000000 1.0
C      1  0.4999090000000  0.4573760000000  0.5419760000000 1.0
C      1  0.5296940000000  0.4084970000000  0.5580620000000 1.0
C      1  0.5171120000000  0.4179690000000  0.4975450000000 1.0
C      1  0.4217630000000  0.4445520000000  0.4876750000000 1.0
C      1  0.4758730000000  0.5832700000000  0.5192620000000 1.0
C      1  0.5587570000000  0.5372290000000  0.5070400000000 1.0
C      1  0.4517680000000  0.4504210000000  0.5676980000000 1.0
C      1  0.5257090000000  0.4888300000000  0.4562540000000 1.0
C      1  0.4968730000000  0.4705590000000  0.5871750000000 1.0
C      1  0.4437570000000  0.4315980000000  0.5008970000000 1.0
C      1  0.4819640000000  0.5179600000000  0.4814410000000 1.0
C      1  0.4525450000000  0.4467540000000  0.5234880000000 1.0
C      1  0.5595650000000  0.4818290000000  0.5109860000000 1.0
C      1  0.5425510000000  0.4561660000000  0.5495780000000 1.0
C      1  0.5407400000000  0.6208200000000  0.4472250000000 1.0
C      1  0.5946980000000  0.5492080000000  0.5444470000000 1.0
C      1  0.5508520000000  0.4780790000000  0.4429790000000 1.0
C      1  0.5069650000000  0.4432310000000  0.5848140000000 1.0
C      1  0.4583040000000  0.5438100000000  0.5781310000000 1.0
C      1  0.5863770000000  0.4886480000000  0.5022540000000 1.0
C      1  0.4597380000000  0.5770010000000  0.4736440000000 1.0
C      1  0.5989910000000  0.5302180000000  0.5640930000000 1.0
C      1  0.4155890000000  0.5334160000000  0.5208940000000 1.0
C      1  0.5156840000000  0.3939910000000  0.4529130000000 1.0
C      1  0.4531090000000  0.5729120000000  0.5014730000000 1.0
C      1  0.4640880000000  0.4927850000000  0.4380460000000 1.0
C      1  0.5279410000000  0.5078530000000  0.5341610000000 1.0
C      1  0.5000020000000  0.5878190000000  0.5033600000000 1.0
C      1  0.5043200000000  0.5470950000000  0.5852340000000 1.0
C      1  0.5605090000000  0.5271260000000  0.4526210000000 1.0
C      1  0.5232840000000  0.4937080000000  0.4046450000000 1.0
C      1  0.4870760000000  0.4797950000000  0.5332970000000 1.0
C      1  0.4673660000000  0.4712440000000  0.5829730000000 1.0
C      1  0.4294540000000  0.5544330000000  0.5045040000000 1.0
C      1  0.4848060000000  0.4169530000000  0.5376260000000 1.0
C      1  0.5504800000000  0.5990350000000  0.4606330000000 1.0
C      1  0.4863870000000  0.4185020000000  0.4209370000000 1.0
C      1  0.5385820000000  0.5383590000000  0.4352710000000 1.0
C      1  0.4809450000000  0.4596360000000  0.4778040000000 1.0
C      1  0.5885400000000  0.4577010000000  0.4648860000000 1.0
C      1  0.5329490000000  0.5777950000000  0.4678780000000 1.0
C      1  0.4444470000000  0.5565790000000  0.4331980000000 1.0
C      1  0.4511830000000  0.5398580000000  0.5513500000000 1.0
C      1  0.4670800000000  0.4186370000000  0.4878940000000 1.0
C      1  0.4836730000000  0.5825280000000  0.5482690000000 1.0
C      1  0.4666790000000  0.5673690000000  0.4478850000000 1.0
C      1  0.4233960000000  0.5422740000000  0.5469470000000 1.0
C      1  0.5219640000000  0.5184040000000  0.4210860000000 1.0
C      1  0.4982930000000  0.4778180000000  0.4056930000000 1.0
C      1  0.5482840000000  0.5081330000000  0.5154660000000 1.0
C      1  0.5949860000000  0.5069640000000  0.5235030000000 1.0
C      1  0.4768580000000  0.4408770000000  0.4354850000000 1.0
C      1  0.4774120000000  0.4693150000000  0.4248730000000 1.0
C      1  0.4783260000000  0.5454360000000  0.5957700000000 1.0
C      1  0.5373950000000  0.5585840000000  0.5153580000000 1.0
C      1  0.5058640000000  0.5678390000000  0.5628080000000 1.0
C      1  0.6024270000000  0.5956760000000  0.4749870000000 1.0
C      1  0.5921190000000  0.5035310000000  0.5540720000000 1.0
C      1  0.5887690000000  0.4855880000000  0.4736310000000 1.0
C      1  0.4672500000000  0.5329450000000  0.5273930000000 1.0
C      1  0.5013220000000  0.3981090000000  0.4304930000000 1.0
C      1  0.4250450000000  0.4613920000000  0.5571580000000 1.0
C      1  0.5622790000000  0.4518720000000  0.4541410000000 1.0
C      1  0.5245170000000  0.5756350000000  0.4953160000000 1.0
C      1  0.5197520000000  0.5525630000000  0.5397200000000 1.0
C      1  0.5289750000000  0.5277090000000  0.5532870000000 1.0
C      1  0.4290650000000  0.5030700000000  0.5730150000000 1.0
C      1  0.5775300000000  0.5975560000000  0.4675160000000 1.0
END
