TITL C-627106-156-501 -1.06256895360227e-06 125000 -338.500837998713 0 0 56 (C1) n - 1
REM
REM in /home/nfs/bkarasulu/CARBON/AIRSS/Generating-Clusters/LCBOP/Only-C1/SD-CG/FIRE-CG
REM
REM
REM
REM
REM
REM ./C.cell (11c1c37f851c82e70ff6c80c92926a4b)
REM AIRSS Version 0.9.1 bugfix July 2018 build 013d7b7c2542+ Fri, 06 Jul 2018 19:26:36 +0100
REM compiler GCC version 9.2.1 20190827 (Red Hat 9.2.1-1)
REM options -cpp -mtune=generic -march=x86-64 -g -O0 -fpre-include=/usr/include/finclude/math-vector-fortran.h
REM seed 1234489190 1587727099 -1520957750 418472602 813198885 -744304374 -1083144837 1977440162 -206847334 416968832 1039024178 -66752928 1756467195 -1592738199 -22231830 1345328396 900086040 -1628828842 -101079222 -969329295 -1674925891 -1009151426 1832443859 -903613341 -1577049738 -1651262737 2073680581 1525143278 -1472353345 1490835947 -810557621 -751584699 -1622277053
REM
CELL 1.54180   50.00000   50.00000   50.00000   90.00000   90.00000   90.00000
LATT -1
SFAC C  
C      1  0.5198250000000  0.5483010000000  0.4775980000000 1.0
C      1  0.5289440000000  0.5044450000000  0.4227200000000 1.0
C      1  0.5055480000000  0.5284080000000  0.4910990000000 1.0
C      1  0.4384030000000  0.4945510000000  0.4826620000000 1.0
C      1  0.5257750000000  0.4293170000000  0.4797260000000 1.0
C      1  0.4884120000000  0.4944050000000  0.4570350000000 1.0
C      1  0.4858370000000  0.5089890000000  0.5673090000000 1.0
C      1  0.4389140000000  0.5244830000000  0.4771490000000 1.0
C      1  0.5021580000000  0.4288100000000  0.4667350000000 1.0
C      1  0.5033230000000  0.5016300000000  0.4803120000000 1.0
C      1  0.4826070000000  0.5377970000000  0.4477890000000 1.0
C      1  0.5094690000000  0.4852050000000  0.5260590000000 1.0
C      1  0.5565770000000  0.5146180000000  0.4589970000000 1.0
C      1  0.5178320000000  0.5453350000000  0.4498940000000 1.0
C      1  0.4653880000000  0.5366790000000  0.4718840000000 1.0
C      1  0.4789890000000  0.5352940000000  0.4984290000000 1.0
C      1  0.4809870000000  0.5751380000000  0.5357500000000 1.0
C      1  0.5162870000000  0.4584380000000  0.4335170000000 1.0
C      1  0.5355210000000  0.4399000000000  0.5247470000000 1.0
C      1  0.4450890000000  0.5120470000000  0.5257320000000 1.0
C      1  0.4690330000000  0.5263510000000  0.5240300000000 1.0
C      1  0.4399760000000  0.4882580000000  0.5110380000000 1.0
C      1  0.4566930000000  0.5763090000000  0.5231090000000 1.0
C      1  0.5622840000000  0.5699710000000  0.5078110000000 1.0
C      1  0.5545520000000  0.5076730000000  0.5284950000000 1.0
C      1  0.5599220000000  0.4891770000000  0.5097200000000 1.0
C      1  0.4729130000000  0.4218630000000  0.5329040000000 1.0
C      1  0.5353020000000  0.4792010000000  0.4367390000000 1.0
C      1  0.5510250000000  0.4850510000000  0.4616070000000 1.0
C      1  0.4569390000000  0.4729080000000  0.5526180000000 1.0
C      1  0.4938390000000  0.4489460000000  0.4489340000000 1.0
C      1  0.4992460000000  0.5547220000000  0.5451520000000 1.0
C      1  0.5738480000000  0.5534890000000  0.4901110000000 1.0
C      1  0.5022560000000  0.5078570000000  0.4136940000000 1.0
C      1  0.5067410000000  0.4699140000000  0.5486880000000 1.0
C      1  0.4361040000000  0.5652640000000  0.5089790000000 1.0
C      1  0.5149230000000  0.4427160000000  0.5441900000000 1.0
C      1  0.5429070000000  0.5719970000000  0.5264120000000 1.0
C      1  0.4861400000000  0.4305920000000  0.5796170000000 1.0
C      1  0.4843660000000  0.5125780000000  0.4349810000000 1.0
C      1  0.5523260000000  0.4717900000000  0.4880800000000 1.0
C      1  0.4479120000000  0.4652940000000  0.5264450000000 1.0
C      1  0.4936710000000  0.4250730000000  0.5523350000000 1.0
C      1  0.4833000000000  0.4785850000000  0.5670010000000 1.0
C      1  0.5275170000000  0.5525360000000  0.5399780000000 1.0
C      1  0.4257890000000  0.5453960000000  0.4929520000000 1.0
C      1  0.5725130000000  0.5318840000000  0.4743350000000 1.0
C      1  0.5375900000000  0.5266090000000  0.4395380000000 1.0
C      1  0.4482350000000  0.4737670000000  0.4651750000000 1.0
C      1  0.4850850000000  0.5297510000000  0.5476720000000 1.0
C      1  0.4749230000000  0.4694370000000  0.4560680000000 1.0
C      1  0.4836590000000  0.4568330000000  0.5880690000000 1.0
C      1  0.5407390000000  0.4459170000000  0.4970030000000 1.0
C      1  0.4553760000000  0.4386130000000  0.5204600000000 1.0
C      1  0.5406500000000  0.5271490000000  0.5408000000000 1.0
C      1  0.5058230000000  0.4827400000000  0.5001140000000 1.0
END
