TITL C-627106-156-1442 5531.64104354763 125000 -692.106103035216 0 0 113 (C1) n - 1
REM
REM in /home/nfs/bkarasulu/CARBON/AIRSS/Generating-Clusters/LCBOP/Only-C1/SD-CG/FIRE-CG
REM
REM
REM
REM
REM
REM ./C.cell (11c1c37f851c82e70ff6c80c92926a4b)
REM AIRSS Version 0.9.1 bugfix July 2018 build 013d7b7c2542+ Fri, 06 Jul 2018 19:26:36 +0100
REM compiler GCC version 9.2.1 20190827 (Red Hat 9.2.1-1)
REM options -cpp -mtune=generic -march=x86-64 -g -O0 -fpre-include=/usr/include/finclude/math-vector-fortran.h
REM seed -848367158 1382902733 507457252 890434819 457296051 1678527767 574056129 -1781565183 -1058201198 300237506 1914166372 362189519 1984014377 -779986535 -984633897 1585400500 -2039617437 275728947 19197632 -1039302195 231652347 -738883383 -1024706908 -1377781186 -1434611796 -1906231761 -127572997 776989271 -746339489 1202475495 -557913012 -2071460309 1658403274
REM
CELL 1.54180   50.00000   50.00000   50.00000   90.00000   90.00000   90.00000
LATT -1
SFAC C  
C      1  0.5323820000000  0.5773270000000  0.5501460000000 1.0
C      1  0.3991540000000  0.4853840000000  0.4413880000000 1.0
C      1  0.4805670000000  0.4881590000000  0.5968740000000 1.0
C      1  0.4993700000000  0.4433360000000  0.4687550000000 1.0
C      1  0.4407370000000  0.5306570000000  0.4349210000000 1.0
C      1  0.5038960000000  0.5784540000000  0.5043120000000 1.0
C      1  0.4775150000000  0.5249190000000  0.4695900000000 1.0
C      1  0.5880350000000  0.4795810000000  0.5075700000000 1.0
C      1  0.4892820000000  0.5343680000000  0.5935720000000 1.0
C      1  0.5711560000000  0.5402460000000  0.4306010000000 1.0
C      1  0.4972240000000  0.5303560000000  0.4003130000000 1.0
C      1  0.4212040000000  0.4717930000000  0.4291500000000 1.0
C      1  0.4657130000000  0.4654510000000  0.4905380000000 1.0
C      1  0.5985740000000  0.5135330000000  0.4748460000000 1.0
C      1  0.4640730000000  0.5645330000000  0.5244210000000 1.0
C      1  0.6217050000000  0.5257560000000  0.4811580000000 1.0
C      1  0.5526820000000  0.5513270000000  0.4744410000000 1.0
C      1  0.4710230000000  0.4151450000000  0.4977610000000 1.0
C      1  0.4201430000000  0.4786020000000  0.5563920000000 1.0
C      1  0.4352390000000  0.5155990000000  0.4133970000000 1.0
C      1  0.4752420000000  0.4847010000000  0.5094040000000 1.0
C      1  0.4892620000000  0.4800180000000  0.3912430000000 1.0
C      1  0.4893430000000  0.4641610000000  0.4511540000000 1.0
C      1  0.4626610000000  0.5003640000000  0.5762810000000 1.0
C      1  0.5314790000000  0.4550750000000  0.4089590000000 1.0
C      1  0.4191330000000  0.4236520000000  0.5083260000000 1.0
C      1  0.3904830000000  0.5619200000000  0.4971010000000 1.0
C      1  0.5221920000000  0.5849850000000  0.5248070000000 1.0
C      1  0.5561610000000  0.5314700000000  0.5461910000000 1.0
C      1  0.5187750000000  0.5162460000000  0.6248860000000 1.0
C      1  0.4477130000000  0.5265400000000  0.4643260000000 1.0
C      1  0.5159340000000  0.3905820000000  0.4962490000000 1.0
C      1  0.5323090000000  0.5385870000000  0.4895270000000 1.0
C      1  0.4612940000000  0.5753300000000  0.4770030000000 1.0
C      1  0.5059640000000  0.4464930000000  0.5227650000000 1.0
C      1  0.4983240000000  0.5065650000000  0.3873800000000 1.0
C      1  0.5318520000000  0.4872620000000  0.5390130000000 1.0
C      1  0.4439010000000  0.4285250000000  0.4391430000000 1.0
C      1  0.5275870000000  0.5430170000000  0.6174220000000 1.0
C      1  0.4431090000000  0.4380430000000  0.5555470000000 1.0
C      1  0.3423290000000  0.5656940000000  0.5178630000000 1.0
C      1  0.3662090000000  0.5638520000000  0.5075670000000 1.0
C      1  0.4741690000000  0.5814820000000  0.5028730000000 1.0
C      1  0.4403330000000  0.5545830000000  0.4768500000000 1.0
C      1  0.5593990000000  0.5595340000000  0.4479850000000 1.0
C      1  0.5308020000000  0.4608890000000  0.5234340000000 1.0
C      1  0.4831360000000  0.4376660000000  0.4127360000000 1.0
C      1  0.5789310000000  0.4965180000000  0.4862760000000 1.0
C      1  0.4449520000000  0.4720350000000  0.4718740000000 1.0
C      1  0.5440800000000  0.5802550000000  0.4366930000000 1.0
C      1  0.5314890000000  0.4550030000000  0.4383000000000 1.0
C      1  0.4893660000000  0.3937150000000  0.4984360000000 1.0
C      1  0.5276480000000  0.4386200000000  0.4627740000000 1.0
C      1  0.5314190000000  0.4995110000000  0.6435970000000 1.0
C      1  0.5054260000000  0.5556280000000  0.6030620000000 1.0
C      1  0.4384200000000  0.4876260000000  0.4115800000000 1.0
C      1  0.4966080000000  0.5231700000000  0.4477710000000 1.0
C      1  0.6089470000000  0.4886690000000  0.5243180000000 1.0
C      1  0.5781090000000  0.4533480000000  0.5107990000000 1.0
C      1  0.4051520000000  0.4992560000000  0.4642860000000 1.0
C      1  0.4749440000000  0.5380130000000  0.5223990000000 1.0
C      1  0.5182490000000  0.5838660000000  0.4304880000000 1.0
C      1  0.4950610000000  0.5097000000000  0.6097440000000 1.0
C      1  0.5503640000000  0.4816430000000  0.6351190000000 1.0
C      1  0.4146940000000  0.5592600000000  0.4867070000000 1.0
C      1  0.4926140000000  0.4428470000000  0.5470070000000 1.0
C      1  0.4887800000000  0.5242070000000  0.5436980000000 1.0
C      1  0.4749270000000  0.5793230000000  0.4523500000000 1.0
C      1  0.5079500000000  0.5039410000000  0.5350580000000 1.0
C      1  0.4354140000000  0.4547940000000  0.4487780000000 1.0
C      1  0.4856550000000  0.5353300000000  0.4950350000000 1.0
C      1  0.4946110000000  0.5419870000000  0.4260780000000 1.0
C      1  0.6297490000000  0.5057470000000  0.5236730000000 1.0
C      1  0.5043270000000  0.5825690000000  0.5952900000000 1.0
C      1  0.5413790000000  0.4018660000000  0.4913420000000 1.0
C      1  0.5027270000000  0.4977300000000  0.5064640000000 1.0
C      1  0.5246330000000  0.5012350000000  0.6700690000000 1.0
C      1  0.4180480000000  0.4506880000000  0.5496430000000 1.0
C      1  0.5515640000000  0.4723770000000  0.3984660000000 1.0
C      1  0.5639290000000  0.3864350000000  0.4914050000000 1.0
C      1  0.5180030000000  0.5045420000000  0.4456900000000 1.0
C      1  0.5460870000000  0.5060680000000  0.4503270000000 1.0
C      1  0.4845200000000  0.4414520000000  0.4940570000000 1.0
C      1  0.5290560000000  0.5091720000000  0.4929490000000 1.0
C      1  0.5946580000000  0.4330080000000  0.5186000000000 1.0
C      1  0.6362720000000  0.5228300000000  0.5037500000000 1.0
C      1  0.5637380000000  0.4950030000000  0.4071520000000 1.0
C      1  0.4941150000000  0.5697030000000  0.4337690000000 1.0
C      1  0.5043130000000  0.4529620000000  0.3968590000000 1.0
C      1  0.5531110000000  0.5510470000000  0.6089200000000 1.0
C      1  0.5184920000000  0.5888650000000  0.5719600000000 1.0
C      1  0.5130410000000  0.4776020000000  0.4442270000000 1.0
C      1  0.5018990000000  0.4462780000000  0.5734800000000 1.0
C      1  0.4429760000000  0.4141520000000  0.5003020000000 1.0
C      1  0.4737940000000  0.4606810000000  0.4287720000000 1.0
C      1  0.5086700000000  0.5524260000000  0.4934950000000 1.0
C      1  0.4464140000000  0.4903140000000  0.5554490000000 1.0
C      1  0.5520960000000  0.4991250000000  0.4776170000000 1.0
C      1  0.4904600000000  0.6012920000000  0.6094290000000 1.0
C      1  0.5534170000000  0.5045040000000  0.5457440000000 1.0
C      1  0.4773820000000  0.5248580000000  0.5695800000000 1.0
C      1  0.5628580000000  0.5133430000000  0.4286640000000 1.0
C      1  0.4632110000000  0.4187500000000  0.4213290000000 1.0
C      1  0.5425640000000  0.4299710000000  0.4854020000000 1.0
C      1  0.4649360000000  0.4786730000000  0.4083320000000 1.0
C      1  0.4330640000000  0.4998260000000  0.4721250000000 1.0
C      1  0.5617510000000  0.5587720000000  0.5845570000000 1.0
C      1  0.4064160000000  0.4390440000000  0.5266620000000 1.0
C      1  0.4658340000000  0.4503020000000  0.5444610000000 1.0
C      1  0.5518050000000  0.5569390000000  0.5578360000000 1.0
C      1  0.4929140000000  0.4631810000000  0.5925710000000 1.0
C      1  0.5506390000000  0.4487180000000  0.5062150000000 1.0
C      1  0.4625610000000  0.4779220000000  0.5349570000000 1.0
END
