TITL C-627111-6168-1151 -6.06520363113457e-09 125000 -121.977528086616 0 0 21 (C1) n - 1
REM
REM in /home/nfs/bkarasulu/CARBON/AIRSS/Generating-Clusters/LCBOP/Only-C1/SD-CG/FIRE-CG
REM
REM
REM
REM
REM
REM ./C.cell (11c1c37f851c82e70ff6c80c92926a4b)
REM AIRSS Version 0.9.1 bugfix July 2018 build 013d7b7c2542+ Fri, 06 Jul 2018 19:26:36 +0100
REM compiler GCC version 9.2.1 20190827 (Red Hat 9.2.1-1)
REM options -cpp -mtune=generic -march=x86-64 -g -O0 -fpre-include=/usr/include/finclude/math-vector-fortran.h
REM seed -1175841279 709708749 -885752541 -470011020 2051975825 -1645858892 372745705 413581466 -1698864851 1339099843 -408599885 -44633716 -698849714 268274735 -460974908 -836911653 1094755029 480334378 -1115281717 -349466097 -1081024353 819487523 949689701 -1018769328 -734253427 1670078769 601423469 -466675946 -471971788 1635598978 -1739897308 1239045951 -1971209916
REM
CELL 1.54180   50.00000   50.00000   50.00000   90.00000   90.00000   90.00000
LATT -1
SFAC C  
C      1  0.4817360000000  0.4725290000000  0.5469160000000 1.0
C      1  0.4677740000000  0.4996890000000  0.4402840000000 1.0
C      1  0.5592360000000  0.4834090000000  0.5334980000000 1.0
C      1  0.4729110000000  0.5523410000000  0.4886710000000 1.0
C      1  0.4822430000000  0.4701790000000  0.5200210000000 1.0
C      1  0.4978900000000  0.4865280000000  0.5635900000000 1.0
C      1  0.5153890000000  0.5151380000000  0.5293510000000 1.0
C      1  0.5204800000000  0.4965730000000  0.5075000000000 1.0
C      1  0.4840120000000  0.4552930000000  0.4286340000000 1.0
C      1  0.4888450000000  0.5508560000000  0.5098230000000 1.0
C      1  0.4606700000000  0.5242470000000  0.4476120000000 1.0
C      1  0.4816690000000  0.4762710000000  0.4468170000000 1.0
C      1  0.5469420000000  0.4857330000000  0.5091230000000 1.0
C      1  0.4862150000000  0.4356300000000  0.4116710000000 1.0
C      1  0.5093790000000  0.5425680000000  0.5269080000000 1.0
C      1  0.5200490000000  0.5018800000000  0.5549130000000 1.0
C      1  0.4625590000000  0.5434890000000  0.4658650000000 1.0
C      1  0.4984330000000  0.4803570000000  0.4990520000000 1.0
C      1  0.4931220000000  0.4747260000000  0.4723280000000 1.0
C      1  0.5238050000000  0.5611150000000  0.5409550000000 1.0
C      1  0.5466400000000  0.4914500000000  0.5564670000000 1.0
END
