TITL C-627109-622-1420 1.86614057402192e-06 125000 -976.271344329227 0 0 157 (C1) n - 1
REM
REM in /home/nfs/bkarasulu/CARBON/AIRSS/Generating-Clusters/LCBOP/Only-C1/SD-CG/FIRE-CG
REM
REM
REM
REM
REM
REM ./C.cell (11c1c37f851c82e70ff6c80c92926a4b)
REM AIRSS Version 0.9.1 bugfix July 2018 build 013d7b7c2542+ Fri, 06 Jul 2018 19:26:36 +0100
REM compiler GCC version 9.2.1 20190827 (Red Hat 9.2.1-1)
REM options -cpp -mtune=generic -march=x86-64 -g -O0 -fpre-include=/usr/include/finclude/math-vector-fortran.h
REM seed 1444560077 -314830789 -596172035 -1092423478 1892751339 4284721 210217031 193661010 562076949 -1101096500 -907716754 -1282044374 -631046099 100768118 564795604 -1569065663 -979938 -1985148960 1832104908 -1932810941 -1457703891 -136115511 1615701571 -730309790 -1021142018 -286070311 -1498368134 426714998 -97217319 -209908241 -246651087 -1313715647 1356105082
REM
CELL 1.54180   50.00000   50.00000   50.00000   90.00000   90.00000   90.00000
LATT -1
SFAC C  
C      1  0.5423170000000  0.5030620000000  0.4841140000000 1.0
C      1  0.5447480000000  0.4632480000000  0.5121480000000 1.0
C      1  0.5498720000000  0.5355340000000  0.5504430000000 1.0
C      1  0.4809430000000  0.5415180000000  0.5547440000000 1.0
C      1  0.5865540000000  0.5154330000000  0.4189440000000 1.0
C      1  0.6547550000000  0.4731120000000  0.5596780000000 1.0
C      1  0.4104410000000  0.4912460000000  0.5353920000000 1.0
C      1  0.5196560000000  0.5202300000000  0.5940400000000 1.0
C      1  0.5098830000000  0.4396790000000  0.5914520000000 1.0
C      1  0.5624660000000  0.4975290000000  0.4251750000000 1.0
C      1  0.5278560000000  0.4950550000000  0.4601940000000 1.0
C      1  0.5360380000000  0.3941400000000  0.5192750000000 1.0
C      1  0.5580240000000  0.4933410000000  0.5836980000000 1.0
C      1  0.4729630000000  0.4796470000000  0.5993250000000 1.0
C      1  0.5604250000000  0.5767610000000  0.4823420000000 1.0
C      1  0.5291150000000  0.4833320000000  0.5257330000000 1.0
C      1  0.6366490000000  0.4870170000000  0.5174390000000 1.0
C      1  0.4928730000000  0.5009290000000  0.3924000000000 1.0
C      1  0.3886560000000  0.5139400000000  0.5660810000000 1.0
C      1  0.5220820000000  0.6098400000000  0.4518070000000 1.0
C      1  0.5746440000000  0.5622010000000  0.4361720000000 1.0
C      1  0.5121940000000  0.5548100000000  0.4865850000000 1.0
C      1  0.4611450000000  0.4896200000000  0.4394990000000 1.0
C      1  0.5230250000000  0.5941030000000  0.5436730000000 1.0
C      1  0.4647970000000  0.5794230000000  0.4375590000000 1.0
C      1  0.3510290000000  0.5303090000000  0.4926590000000 1.0
C      1  0.5683030000000  0.5800420000000  0.5442640000000 1.0
C      1  0.5161120000000  0.4855530000000  0.5513210000000 1.0
C      1  0.5540530000000  0.5617010000000  0.5616310000000 1.0
C      1  0.4539900000000  0.4710240000000  0.5406850000000 1.0
C      1  0.4061010000000  0.5348660000000  0.4533650000000 1.0
C      1  0.5076990000000  0.4066690000000  0.3922850000000 1.0
C      1  0.5713720000000  0.4887270000000  0.4523230000000 1.0
C      1  0.3780030000000  0.5271370000000  0.4941430000000 1.0
C      1  0.5231080000000  0.4113360000000  0.5010370000000 1.0
C      1  0.5431470000000  0.5079390000000  0.6035550000000 1.0
C      1  0.3873620000000  0.4729850000000  0.5384480000000 1.0
C      1  0.4616820000000  0.5059550000000  0.5866360000000 1.0
C      1  0.4618190000000  0.4114690000000  0.4512320000000 1.0
C      1  0.4555840000000  0.4612140000000  0.4942460000000 1.0
C      1  0.5688330000000  0.5057370000000  0.4758920000000 1.0
C      1  0.5619570000000  0.5114890000000  0.5611240000000 1.0
C      1  0.5296960000000  0.5368320000000  0.5299160000000 1.0
C      1  0.4611820000000  0.5929080000000  0.4622640000000 1.0
C      1  0.4376800000000  0.5287900000000  0.5006860000000 1.0
C      1  0.4838670000000  0.4476130000000  0.4200040000000 1.0
C      1  0.5018180000000  0.4263930000000  0.5119660000000 1.0
C      1  0.5398130000000  0.4256750000000  0.4827470000000 1.0
C      1  0.4982380000000  0.5128760000000  0.4990500000000 1.0
C      1  0.4788750000000  0.4336490000000  0.5264760000000 1.0
C      1  0.5709730000000  0.4607330000000  0.5209810000000 1.0
C      1  0.4374840000000  0.5081320000000  0.4800860000000 1.0
C      1  0.4653690000000  0.4950230000000  0.3925970000000 1.0
C      1  0.4596830000000  0.4795640000000  0.5143450000000 1.0
C      1  0.4478660000000  0.4950390000000  0.4147770000000 1.0
C      1  0.4728930000000  0.3910330000000  0.5363140000000 1.0
C      1  0.6091840000000  0.4620900000000  0.5495000000000 1.0
C      1  0.5569180000000  0.5762930000000  0.4535320000000 1.0
C      1  0.6433330000000  0.5075260000000  0.4690840000000 1.0
C      1  0.5631060000000  0.4456900000000  0.5647650000000 1.0
C      1  0.4312830000000  0.4460430000000  0.4932380000000 1.0
C      1  0.4369780000000  0.5670840000000  0.5561890000000 1.0
C      1  0.4886100000000  0.5694040000000  0.4242810000000 1.0
C      1  0.4823700000000  0.5481020000000  0.4051060000000 1.0
C      1  0.4741750000000  0.5024340000000  0.5122750000000 1.0
C      1  0.4344250000000  0.4999350000000  0.5754030000000 1.0
C      1  0.4845160000000  0.5215470000000  0.4705810000000 1.0
C      1  0.4884550000000  0.4006130000000  0.4105260000000 1.0
C      1  0.5059970000000  0.4543870000000  0.4018560000000 1.0
C      1  0.5532260000000  0.5434470000000  0.3978820000000 1.0
C      1  0.5758830000000  0.5424990000000  0.4156360000000 1.0
C      1  0.5105490000000  0.5645800000000  0.4409120000000 1.0
C      1  0.5442550000000  0.5934750000000  0.5002920000000 1.0
C      1  0.5494460000000  0.5947840000000  0.5286610000000 1.0
C      1  0.3963640000000  0.5167400000000  0.5381200000000 1.0
C      1  0.4291760000000  0.5677120000000  0.5268810000000 1.0
C      1  0.4119070000000  0.4933290000000  0.4794380000000 1.0
C      1  0.5288650000000  0.5767290000000  0.5672300000000 1.0
C      1  0.5205540000000  0.4682940000000  0.4660100000000 1.0
C      1  0.4434840000000  0.5789170000000  0.4800990000000 1.0
C      1  0.3938980000000  0.5163940000000  0.4730690000000 1.0
C      1  0.5761680000000  0.5547300000000  0.4912740000000 1.0
C      1  0.4631930000000  0.5824430000000  0.5556450000000 1.0
C      1  0.5816630000000  0.5289840000000  0.4851800000000 1.0
C      1  0.5560310000000  0.4055810000000  0.5359190000000 1.0
C      1  0.3871170000000  0.4607900000000  0.5122930000000 1.0
C      1  0.5061960000000  0.5450820000000  0.6018730000000 1.0
C      1  0.5142660000000  0.4818910000000  0.3999400000000 1.0
C      1  0.5357870000000  0.4537660000000  0.4859230000000 1.0
C      1  0.4754700000000  0.4534160000000  0.5458550000000 1.0
C      1  0.5310000000000  0.5259830000000  0.3986860000000 1.0
C      1  0.4539670000000  0.4016350000000  0.4773290000000 1.0
C      1  0.6429170000000  0.4988400000000  0.4943570000000 1.0
C      1  0.4712370000000  0.5923290000000  0.5279120000000 1.0
C      1  0.4480410000000  0.5830720000000  0.5096080000000 1.0
C      1  0.5804170000000  0.4103000000000  0.5210650000000 1.0
C      1  0.5075220000000  0.5671120000000  0.5828370000000 1.0
C      1  0.5065730000000  0.5410420000000  0.4595870000000 1.0
C      1  0.5161440000000  0.4190730000000  0.5693680000000 1.0
C      1  0.4142770000000  0.5214400000000  0.5788550000000 1.0
C      1  0.5972520000000  0.4766690000000  0.4476030000000 1.0
C      1  0.4556210000000  0.5347340000000  0.5994290000000 1.0
C      1  0.5164880000000  0.4320450000000  0.3880110000000 1.0
C      1  0.4782280000000  0.4518700000000  0.4819480000000 1.0
C      1  0.4793490000000  0.5435030000000  0.6132270000000 1.0
C      1  0.5055720000000  0.6136230000000  0.4744810000000 1.0
C      1  0.4938360000000  0.4620960000000  0.4622080000000 1.0
C      1  0.4604800000000  0.5073580000000  0.4622270000000 1.0
C      1  0.5661270000000  0.4192790000000  0.4739640000000 1.0
C      1  0.4532450000000  0.5457030000000  0.4093760000000 1.0
C      1  0.3753490000000  0.4859970000000  0.5636680000000 1.0
C      1  0.4265320000000  0.5566510000000  0.4565400000000 1.0
C      1  0.5237380000000  0.5005320000000  0.5045260000000 1.0
C      1  0.5311110000000  0.5840030000000  0.4445730000000 1.0
C      1  0.4798690000000  0.5436760000000  0.5271200000000 1.0
C      1  0.5052020000000  0.5406920000000  0.5118260000000 1.0
C      1  0.5693150000000  0.4254360000000  0.4242480000000 1.0
C      1  0.4779280000000  0.6137430000000  0.4701180000000 1.0
C      1  0.4580410000000  0.4142440000000  0.5242540000000 1.0
C      1  0.3566290000000  0.4750640000000  0.5807680000000 1.0
C      1  0.4601070000000  0.5267860000000  0.5165370000000 1.0
C      1  0.4217730000000  0.5051900000000  0.4144740000000 1.0
C      1  0.6336170000000  0.4740630000000  0.5422880000000 1.0
C      1  0.4860370000000  0.4553790000000  0.5982840000000 1.0
C      1  0.6067210000000  0.4387150000000  0.4834870000000 1.0
C      1  0.4429890000000  0.5605170000000  0.4324950000000 1.0
C      1  0.4181150000000  0.5463220000000  0.5118800000000 1.0
C      1  0.5228560000000  0.5193910000000  0.4468710000000 1.0
C      1  0.6328510000000  0.5093630000000  0.4444070000000 1.0
C      1  0.4079220000000  0.4648400000000  0.4917200000000 1.0
C      1  0.4657920000000  0.3777600000000  0.4887470000000 1.0
C      1  0.5988500000000  0.4498220000000  0.4572750000000 1.0
C      1  0.4948070000000  0.4001860000000  0.5565200000000 1.0
C      1  0.5090260000000  0.5068730000000  0.5699350000000 1.0
C      1  0.5385140000000  0.4979320000000  0.4078270000000 1.0
C      1  0.5016890000000  0.5286400000000  0.3959660000000 1.0
C      1  0.5457470000000  0.4220420000000  0.5581590000000 1.0
C      1  0.4326520000000  0.4846800000000  0.5518020000000 1.0
C      1  0.4761030000000  0.4199880000000  0.4274660000000 1.0
C      1  0.5872250000000  0.4198220000000  0.4950420000000 1.0
C      1  0.4823090000000  0.5158940000000  0.5664270000000 1.0
C      1  0.5544170000000  0.4643600000000  0.5846470000000 1.0
C      1  0.4736490000000  0.3719920000000  0.5145330000000 1.0
C      1  0.5338430000000  0.4530000000000  0.6006860000000 1.0
C      1  0.5770500000000  0.4311070000000  0.4496900000000 1.0
C      1  0.3390480000000  0.4647150000000  0.5969830000000 1.0
C      1  0.4325620000000  0.5461790000000  0.5801490000000 1.0
C      1  0.5156810000000  0.6028610000000  0.4986010000000 1.0
C      1  0.4417330000000  0.4181480000000  0.4989250000000 1.0
C      1  0.3936080000000  0.5340330000000  0.5169020000000 1.0
C      1  0.5824030000000  0.4551410000000  0.5458890000000 1.0
C      1  0.6094890000000  0.4993860000000  0.4321980000000 1.0
C      1  0.5004650000000  0.5982010000000  0.5240630000000 1.0
C      1  0.4062040000000  0.5228800000000  0.4273540000000 1.0
C      1  0.4791310000000  0.4675840000000  0.4392350000000 1.0
C      1  0.4990090000000  0.4639380000000  0.5553810000000 1.0
C      1  0.4834490000000  0.5666320000000  0.5679980000000 1.0
END
