TITL C-627109-622-1392 16.340462060892 125000 -971.084463178288 0 0 157 (C1) n - 1
REM
REM in /home/nfs/bkarasulu/CARBON/AIRSS/Generating-Clusters/LCBOP/Only-C1/SD-CG/FIRE-CG
REM
REM
REM
REM
REM
REM ./C.cell (11c1c37f851c82e70ff6c80c92926a4b)
REM AIRSS Version 0.9.1 bugfix July 2018 build 013d7b7c2542+ Fri, 06 Jul 2018 19:26:36 +0100
REM compiler GCC version 9.2.1 20190827 (Red Hat 9.2.1-1)
REM options -cpp -mtune=generic -march=x86-64 -g -O0 -fpre-include=/usr/include/finclude/math-vector-fortran.h
REM seed 1642250016 114472607 1910048923 -1149380852 1367253436 -2109911223 -613958957 507097891 1727322252 -270096854 -1590299238 -1544517537 233972116 -2047041796 2088603475 208927264 1096555486 1449499490 1653606949 522205424 164011341 815231431 1142903654 -143359925 1098166545 -545313295 2119193505 2028931453 37283979 -749445556 10244730 -770086866 951418102
REM
CELL 1.54180   50.00000   50.00000   50.00000   90.00000   90.00000   90.00000
LATT -1
SFAC C  
C      1  0.5292730000000  0.5364590000000  0.6095790000000 1.0
C      1  0.5255600000000  0.5345210000000  0.4567800000000 1.0
C      1  0.5617850000000  0.5039430000000  0.5598630000000 1.0
C      1  0.4804000000000  0.4438620000000  0.4650380000000 1.0
C      1  0.4926140000000  0.4269940000000  0.4085790000000 1.0
C      1  0.4944470000000  0.4860480000000  0.6109190000000 1.0
C      1  0.5558080000000  0.4986460000000  0.5326070000000 1.0
C      1  0.4807640000000  0.5494230000000  0.3983590000000 1.0
C      1  0.4885150000000  0.4997930000000  0.3839970000000 1.0
C      1  0.4500580000000  0.4144710000000  0.4234030000000 1.0
C      1  0.5501110000000  0.5230710000000  0.5193850000000 1.0
C      1  0.6024240000000  0.5338020000000  0.5023340000000 1.0
C      1  0.4630540000000  0.5460530000000  0.4519520000000 1.0
C      1  0.5423690000000  0.4956500000000  0.5784340000000 1.0
C      1  0.5330060000000  0.4908900000000  0.4757750000000 1.0
C      1  0.5188970000000  0.5780250000000  0.5749110000000 1.0
C      1  0.6050090000000  0.4446200000000  0.4695220000000 1.0
C      1  0.3426780000000  0.4777150000000  0.5346250000000 1.0
C      1  0.5981000000000  0.4579380000000  0.4930390000000 1.0
C      1  0.5023010000000  0.4892630000000  0.4373880000000 1.0
C      1  0.5919370000000  0.5401520000000  0.5479940000000 1.0
C      1  0.5479030000000  0.5831600000000  0.4793690000000 1.0
C      1  0.5377020000000  0.4120500000000  0.5610500000000 1.0
C      1  0.4447810000000  0.5846030000000  0.4213380000000 1.0
C      1  0.4730540000000  0.5209380000000  0.3975880000000 1.0
C      1  0.4483890000000  0.4659440000000  0.5301510000000 1.0
C      1  0.5447160000000  0.4747400000000  0.5230710000000 1.0
C      1  0.4442510000000  0.5769030000000  0.5351990000000 1.0
C      1  0.6024060000000  0.4865000000000  0.4962350000000 1.0
C      1  0.5399000000000  0.5181140000000  0.4744330000000 1.0
C      1  0.3716500000000  0.4919690000000  0.5691740000000 1.0
C      1  0.4525750000000  0.4945810000000  0.5299840000000 1.0
C      1  0.4867320000000  0.5317580000000  0.5983810000000 1.0
C      1  0.5706550000000  0.5305640000000  0.5638900000000 1.0
C      1  0.5130740000000  0.4026200000000  0.5727080000000 1.0
C      1  0.4546750000000  0.4502470000000  0.5049880000000 1.0
C      1  0.5660000000000  0.4215710000000  0.5153650000000 1.0
C      1  0.4827670000000  0.5595540000000  0.5504460000000 1.0
C      1  0.4839070000000  0.5814890000000  0.5008270000000 1.0
C      1  0.5001940000000  0.5576550000000  0.4975920000000 1.0
C      1  0.4226980000000  0.5886830000000  0.4060240000000 1.0
C      1  0.4716780000000  0.5060900000000  0.5113660000000 1.0
C      1  0.5086760000000  0.5589890000000  0.3964640000000 1.0
C      1  0.4489420000000  0.4520030000000  0.5564460000000 1.0
C      1  0.6044070000000  0.5206400000000  0.5297110000000 1.0
C      1  0.5777270000000  0.5120830000000  0.4358790000000 1.0
C      1  0.4299960000000  0.5150740000000  0.4189640000000 1.0
C      1  0.5123240000000  0.3866970000000  0.4457020000000 1.0
C      1  0.4633600000000  0.4601500000000  0.5807660000000 1.0
C      1  0.4477660000000  0.5931030000000  0.4496740000000 1.0
C      1  0.4388560000000  0.5535140000000  0.4930990000000 1.0
C      1  0.4576830000000  0.5094610000000  0.4192030000000 1.0
C      1  0.5598760000000  0.5257050000000  0.3918470000000 1.0
C      1  0.4155490000000  0.5606000000000  0.4773040000000 1.0
C      1  0.5900700000000  0.4382870000000  0.4481890000000 1.0
C      1  0.4084780000000  0.5197700000000  0.4344540000000 1.0
C      1  0.5653540000000  0.5836440000000  0.5451160000000 1.0
C      1  0.5628480000000  0.5604600000000  0.4907720000000 1.0
C      1  0.4608810000000  0.4592150000000  0.4775480000000 1.0
C      1  0.4462350000000  0.3990440000000  0.4729890000000 1.0
C      1  0.5092510000000  0.5417420000000  0.5188230000000 1.0
C      1  0.5394290000000  0.4404200000000  0.5652170000000 1.0
C      1  0.5284830000000  0.4779470000000  0.4996880000000 1.0
C      1  0.5365380000000  0.4519590000000  0.5386530000000 1.0
C      1  0.6201410000000  0.5333470000000  0.4430620000000 1.0
C      1  0.4089580000000  0.5265700000000  0.5563240000000 1.0
C      1  0.4641260000000  0.3999360000000  0.4947360000000 1.0
C      1  0.3507410000000  0.4767260000000  0.5606490000000 1.0
C      1  0.5099330000000  0.3768210000000  0.5093560000000 1.0
C      1  0.5171260000000  0.4354460000000  0.5249530000000 1.0
C      1  0.5852570000000  0.5657930000000  0.5342990000000 1.0
C      1  0.5269110000000  0.6006300000000  0.5215870000000 1.0
C      1  0.4763190000000  0.4040060000000  0.4175220000000 1.0
C      1  0.5515670000000  0.5881000000000  0.4517010000000 1.0
C      1  0.5076330000000  0.5506860000000  0.4708310000000 1.0
C      1  0.4711850000000  0.4922310000000  0.4399070000000 1.0
C      1  0.5265740000000  0.4110390000000  0.4443000000000 1.0
C      1  0.5175810000000  0.4273800000000  0.4219230000000 1.0
C      1  0.4790160000000  0.5970660000000  0.4547710000000 1.0
C      1  0.4428720000000  0.5038500000000  0.5950710000000 1.0
C      1  0.5331780000000  0.3836860000000  0.5213570000000 1.0
C      1  0.4895560000000  0.3831890000000  0.4312450000000 1.0
C      1  0.5991960000000  0.5190060000000  0.4538720000000 1.0
C      1  0.4329140000000  0.5558090000000  0.5204460000000 1.0
C      1  0.3772810000000  0.5104990000000  0.5237350000000 1.0
C      1  0.4392620000000  0.4064020000000  0.4480650000000 1.0
C      1  0.5594090000000  0.5282730000000  0.4204080000000 1.0
C      1  0.5508040000000  0.4661400000000  0.4401690000000 1.0
C      1  0.4652110000000  0.5894320000000  0.5204640000000 1.0
C      1  0.4903040000000  0.5863710000000  0.4290790000000 1.0
C      1  0.5706280000000  0.4850310000000  0.4333640000000 1.0
C      1  0.5152730000000  0.5792920000000  0.4162840000000 1.0
C      1  0.4732300000000  0.5566970000000  0.5937020000000 1.0
C      1  0.5017370000000  0.4730430000000  0.5058920000000 1.0
C      1  0.5334100000000  0.4533900000000  0.5906140000000 1.0
C      1  0.5939530000000  0.4624710000000  0.5670440000000 1.0
C      1  0.5320390000000  0.5282670000000  0.4304030000000 1.0
C      1  0.4925860000000  0.4258350000000  0.5221320000000 1.0
C      1  0.5254300000000  0.5984780000000  0.4917960000000 1.0
C      1  0.5332790000000  0.5405700000000  0.5351190000000 1.0
C      1  0.4572450000000  0.5393100000000  0.4774230000000 1.0
C      1  0.5155850000000  0.5080030000000  0.4190010000000 1.0
C      1  0.3554320000000  0.4939610000000  0.5168590000000 1.0
C      1  0.4795610000000  0.5295050000000  0.5508960000000 1.0
C      1  0.3998710000000  0.5352860000000  0.4807940000000 1.0
C      1  0.5454020000000  0.5444920000000  0.5618860000000 1.0
C      1  0.5068480000000  0.4587470000000  0.6013010000000 1.0
C      1  0.3937330000000  0.5288310000000  0.5088430000000 1.0
C      1  0.4689050000000  0.5721760000000  0.4128670000000 1.0
C      1  0.5398620000000  0.5129150000000  0.3782100000000 1.0
C      1  0.5261690000000  0.4773620000000  0.4514340000000 1.0
C      1  0.4937910000000  0.4723610000000  0.5314680000000 1.0
C      1  0.5620960000000  0.4410360000000  0.4468950000000 1.0
C      1  0.3861670000000  0.5093570000000  0.5523010000000 1.0
C      1  0.4448390000000  0.4235760000000  0.5568250000000 1.0
C      1  0.5031790000000  0.4788730000000  0.5552330000000 1.0
C      1  0.4534390000000  0.5145590000000  0.5511220000000 1.0
C      1  0.5334770000000  0.5548410000000  0.5858510000000 1.0
C      1  0.5055830000000  0.5188400000000  0.6155850000000 1.0
C      1  0.5144970000000  0.4993140000000  0.5704900000000 1.0
C      1  0.4523560000000  0.4814180000000  0.4614210000000 1.0
C      1  0.4390980000000  0.5750830000000  0.5632590000000 1.0
C      1  0.4119930000000  0.5396880000000  0.5297100000000 1.0
C      1  0.4643280000000  0.4844640000000  0.5976600000000 1.0
C      1  0.5370380000000  0.5908680000000  0.5470050000000 1.0
C      1  0.5159700000000  0.5041840000000  0.3904170000000 1.0
C      1  0.4859750000000  0.4424770000000  0.5887840000000 1.0
C      1  0.6037750000000  0.4913280000000  0.5261600000000 1.0
C      1  0.4955240000000  0.5202710000000  0.5732840000000 1.0
C      1  0.6012830000000  0.5122890000000  0.4819520000000 1.0
C      1  0.5533330000000  0.5327990000000  0.4934790000000 1.0
C      1  0.4242140000000  0.5849000000000  0.4644480000000 1.0
C      1  0.4906790000000  0.5217570000000  0.5249550000000 1.0
C      1  0.4660740000000  0.5149160000000  0.4863480000000 1.0
C      1  0.4961280000000  0.5986640000000  0.4801860000000 1.0
C      1  0.4850600000000  0.3809930000000  0.4995380000000 1.0
C      1  0.4080910000000  0.5143040000000  0.4622530000000 1.0
C      1  0.4268790000000  0.4933760000000  0.4681120000000 1.0
C      1  0.4905260000000  0.5726950000000  0.5747820000000 1.0
C      1  0.4477070000000  0.4394620000000  0.4086130000000 1.0
C      1  0.5868600000000  0.4449570000000  0.5178480000000 1.0
C      1  0.5470630000000  0.4214700000000  0.4607890000000 1.0
C      1  0.4242970000000  0.4524290000000  0.4036200000000 1.0
C      1  0.4675420000000  0.4243280000000  0.5094800000000 1.0
C      1  0.5958220000000  0.4652940000000  0.5389810000000 1.0
C      1  0.5796480000000  0.4671280000000  0.5895340000000 1.0
C      1  0.5494590000000  0.4037390000000  0.5348200000000 1.0
C      1  0.4456340000000  0.5537790000000  0.5819390000000 1.0
C      1  0.5555220000000  0.4176740000000  0.4878110000000 1.0
C      1  0.4349950000000  0.5245190000000  0.5732700000000 1.0
C      1  0.5524330000000  0.4740270000000  0.5942450000000 1.0
C      1  0.5878610000000  0.5595780000000  0.5054870000000 1.0
C      1  0.4879860000000  0.4153320000000  0.5787290000000 1.0
C      1  0.4796670000000  0.4723950000000  0.3853060000000 1.0
C      1  0.5394950000000  0.5864570000000  0.4279010000000 1.0
C      1  0.4634320000000  0.4064570000000  0.5671980000000 1.0
C      1  0.4744090000000  0.4480680000000  0.3990440000000 1.0
END
