TITL C-627106-156-963 -0.0111738049553893 125000 -258.613424554315 0 0 45 (C1) n - 1
REM
REM in /home/nfs/bkarasulu/CARBON/AIRSS/Generating-Clusters/LCBOP/Only-C1/SD-CG/FIRE-CG
REM
REM
REM
REM
REM
REM ./C.cell (11c1c37f851c82e70ff6c80c92926a4b)
REM AIRSS Version 0.9.1 bugfix July 2018 build 013d7b7c2542+ Fri, 06 Jul 2018 19:26:36 +0100
REM compiler GCC version 9.2.1 20190827 (Red Hat 9.2.1-1)
REM options -cpp -mtune=generic -march=x86-64 -g -O0 -fpre-include=/usr/include/finclude/math-vector-fortran.h
REM seed -61111213 865552414 1365911667 1545658607 1994545409 -389682279 774287557 -948119002 1826117015 -1098183004 -213691259 2031407847 2135682308 -816130553 -2126744038 -1652323081 1178866875 658061724 145034148 1903211581 752032523 1850712822 1937774410 1781233900 1131754555 -676816802 1712439377 1149628939 1833798993 -2144885595 -893409646 -1033553656 1753689397
REM
CELL 1.54180   50.00000   50.00000   50.00000   90.00000   90.00000   90.00000
LATT -1
SFAC C  
C      1  0.5499820000000  0.5295250000000  0.4984330000000 1.0
C      1  0.5028730000000  0.4372140000000  0.4834450000000 1.0
C      1  0.4762830000000  0.4487790000000  0.4873230000000 1.0
C      1  0.4903630000000  0.4956890000000  0.5283110000000 1.0
C      1  0.5522220000000  0.5030470000000  0.5426410000000 1.0
C      1  0.4668230000000  0.5071730000000  0.4721650000000 1.0
C      1  0.4407580000000  0.5297910000000  0.5075030000000 1.0
C      1  0.4677020000000  0.4567390000000  0.5167520000000 1.0
C      1  0.4501580000000  0.5455280000000  0.4564360000000 1.0
C      1  0.4438610000000  0.5666740000000  0.4395900000000 1.0
C      1  0.5301520000000  0.5451260000000  0.5621080000000 1.0
C      1  0.5322810000000  0.4736110000000  0.4719910000000 1.0
C      1  0.4933020000000  0.5058290000000  0.4811600000000 1.0
C      1  0.4794290000000  0.4762190000000  0.4389780000000 1.0
C      1  0.5149290000000  0.4898140000000  0.4882900000000 1.0
C      1  0.5066040000000  0.4523910000000  0.5503910000000 1.0
C      1  0.4651220000000  0.5223660000000  0.4479430000000 1.0
C      1  0.5597010000000  0.4752170000000  0.4786840000000 1.0
C      1  0.4636490000000  0.4862060000000  0.5233840000000 1.0
C      1  0.5288910000000  0.5281760000000  0.4495940000000 1.0
C      1  0.4408470000000  0.5016810000000  0.5142080000000 1.0
C      1  0.5143110000000  0.5589010000000  0.5436310000000 1.0
C      1  0.5196030000000  0.4495280000000  0.4637090000000 1.0
C      1  0.4383070000000  0.5865550000000  0.4236840000000 1.0
C      1  0.5295980000000  0.4084770000000  0.5131010000000 1.0
C      1  0.5165260000000  0.4973760000000  0.5738640000000 1.0
C      1  0.5107690000000  0.5166460000000  0.4329120000000 1.0
C      1  0.4792420000000  0.4454790000000  0.5423080000000 1.0
C      1  0.5234240000000  0.4700170000000  0.5662000000000 1.0
C      1  0.4926520000000  0.5829970000000  0.5023360000000 1.0
C      1  0.4294400000000  0.4864120000000  0.4925960000000 1.0
C      1  0.4840450000000  0.5059090000000  0.4320960000000 1.0
C      1  0.5176760000000  0.4322100000000  0.5072750000000 1.0
C      1  0.5711740000000  0.4874550000000  0.4999980000000 1.0
C      1  0.5125730000000  0.4822030000000  0.5152510000000 1.0
C      1  0.4660850000000  0.4634660000000  0.4634730000000 1.0
C      1  0.4485370000000  0.4845680000000  0.4722720000000 1.0
C      1  0.5407630000000  0.5340570000000  0.4732540000000 1.0
C      1  0.5600370000000  0.5087360000000  0.5155220000000 1.0
C      1  0.5430150000000  0.5586240000000  0.5821210000000 1.0
C      1  0.5503450000000  0.4753820000000  0.5536020000000 1.0
C      1  0.4423490000000  0.5447950000000  0.4845210000000 1.0
C      1  0.5187210000000  0.4552650000000  0.5237440000000 1.0
C      1  0.5327710000000  0.5172520000000  0.5598020000000 1.0
C      1  0.5021100000000  0.5708930000000  0.5233980000000 1.0
END
