TITL C-627109-622-42 0.328798602140393 125000 -414.860530758076 0 0 69 (C1) n - 1
REM
REM in /home/nfs/bkarasulu/CARBON/AIRSS/Generating-Clusters/LCBOP/Only-C1/SD-CG/FIRE-CG
REM
REM
REM
REM
REM
REM ./C.cell (11c1c37f851c82e70ff6c80c92926a4b)
REM AIRSS Version 0.9.1 bugfix July 2018 build 013d7b7c2542+ Fri, 06 Jul 2018 19:26:36 +0100
REM compiler GCC version 9.2.1 20190827 (Red Hat 9.2.1-1)
REM options -cpp -mtune=generic -march=x86-64 -g -O0 -fpre-include=/usr/include/finclude/math-vector-fortran.h
REM seed 141752182 900203804 -1536921816 561881575 966833648 -288021029 11486199 1494286212 1754348152 1974440486 100246215 -683367662 -23933915 -1831587896 -9254507 -980291871 -1543601436 415718510 -294916024 758265948 2126099692 9451783 2004331375 -767348467 1949420724 2032119504 -1541685847 923692714 1424707089 -854040484 1198281138 312537783 11740294
REM
CELL 1.54180   50.00000   50.00000   50.00000   90.00000   90.00000   90.00000
LATT -1
SFAC C  
C      1  0.5700260000000  0.3863920000000  0.5453340000000 1.0
C      1  0.5138030000000  0.5690510000000  0.5367160000000 1.0
C      1  0.3780880000000  0.5506330000000  0.4440080000000 1.0
C      1  0.4827270000000  0.4459320000000  0.5217310000000 1.0
C      1  0.5796710000000  0.5458740000000  0.5139970000000 1.0
C      1  0.5180170000000  0.3981140000000  0.4777450000000 1.0
C      1  0.4727790000000  0.5253390000000  0.5175550000000 1.0
C      1  0.4995790000000  0.5269010000000  0.5602510000000 1.0
C      1  0.4341190000000  0.5238570000000  0.4822000000000 1.0
C      1  0.5580610000000  0.5222590000000  0.4094260000000 1.0
C      1  0.4543990000000  0.4567250000000  0.5860030000000 1.0
C      1  0.5433580000000  0.4684810000000  0.5449190000000 1.0
C      1  0.5567990000000  0.4249410000000  0.4681190000000 1.0
C      1  0.5599630000000  0.5660680000000  0.5130090000000 1.0
C      1  0.5167030000000  0.5067990000000  0.5695800000000 1.0
C      1  0.4563630000000  0.4468750000000  0.5192950000000 1.0
C      1  0.5848010000000  0.4893340000000  0.4509390000000 1.0
C      1  0.5290780000000  0.4451060000000  0.5374110000000 1.0
C      1  0.5308770000000  0.4222360000000  0.4782300000000 1.0
C      1  0.5726370000000  0.5584610000000  0.4373440000000 1.0
C      1  0.4282720000000  0.5368630000000  0.4581040000000 1.0
C      1  0.4903370000000  0.5704160000000  0.5190980000000 1.0
C      1  0.4982740000000  0.4652550000000  0.4482300000000 1.0
C      1  0.4309310000000  0.4522760000000  0.5141580000000 1.0
C      1  0.4596880000000  0.5224500000000  0.4241950000000 1.0
C      1  0.4589300000000  0.5006100000000  0.5579470000000 1.0
C      1  0.5192660000000  0.5384980000000  0.5009400000000 1.0
C      1  0.5667770000000  0.4770340000000  0.5321250000000 1.0
C      1  0.4522910000000  0.4796680000000  0.5728490000000 1.0
C      1  0.5624980000000  0.5885840000000  0.4964080000000 1.0
C      1  0.4638090000000  0.4324360000000  0.5962930000000 1.0
C      1  0.3230500000000  0.5185500000000  0.4783160000000 1.0
C      1  0.4764740000000  0.5183450000000  0.5451830000000 1.0
C      1  0.5337000000000  0.5575600000000  0.5185680000000 1.0
C      1  0.5180790000000  0.4452930000000  0.4888950000000 1.0
C      1  0.4907550000000  0.5440810000000  0.5059960000000 1.0
C      1  0.4493500000000  0.4187400000000  0.6150230000000 1.0
C      1  0.5672670000000  0.5312810000000  0.4335770000000 1.0
C      1  0.5508530000000  0.4032960000000  0.5504140000000 1.0
C      1  0.4708210000000  0.4986100000000  0.4204450000000 1.0
C      1  0.3643910000000  0.4895290000000  0.4929060000000 1.0
C      1  0.5281080000000  0.6031790000000  0.4649250000000 1.0
C      1  0.5797720000000  0.4965480000000  0.5193740000000 1.0
C      1  0.4071110000000  0.4620580000000  0.5078980000000 1.0
C      1  0.5765650000000  0.5197010000000  0.5039630000000 1.0
C      1  0.5596130000000  0.5177010000000  0.4809180000000 1.0
C      1  0.5707640000000  0.5131820000000  0.4552090000000 1.0
C      1  0.5106370000000  0.4184530000000  0.5733570000000 1.0
C      1  0.5770330000000  0.4393100000000  0.4587280000000 1.0
C      1  0.5179240000000  0.4936360000000  0.4812490000000 1.0
C      1  0.4840250000000  0.4772730000000  0.4292470000000 1.0
C      1  0.4882740000000  0.4224080000000  0.5870580000000 1.0
C      1  0.5304630000000  0.4219690000000  0.5539230000000 1.0
C      1  0.5314820000000  0.5175150000000  0.4864280000000 1.0
C      1  0.4021350000000  0.5436680000000  0.4512450000000 1.0
C      1  0.4811660000000  0.5861030000000  0.4491980000000 1.0
C      1  0.4499850000000  0.5429080000000  0.4406630000000 1.0
C      1  0.5872570000000  0.4629500000000  0.4522880000000 1.0
C      1  0.3851470000000  0.4749690000000  0.5006120000000 1.0
C      1  0.5118270000000  0.4677140000000  0.4725940000000 1.0
C      1  0.5101470000000  0.4455840000000  0.5161880000000 1.0
C      1  0.5029730000000  0.5990090000000  0.4572540000000 1.0
C      1  0.5682920000000  0.5817520000000  0.4493640000000 1.0
C      1  0.4634980000000  0.5673180000000  0.4427920000000 1.0
C      1  0.5085580000000  0.5538460000000  0.5599900000000 1.0
C      1  0.4501690000000  0.5184620000000  0.5026850000000 1.0
C      1  0.5541280000000  0.5941750000000  0.4701100000000 1.0
C      1  0.5317200000000  0.4856900000000  0.5637490000000 1.0
C      1  0.3435680000000  0.5041660000000  0.4855100000000 1.0
END
