TITL C-627106-156-891 -1.11890818583655e-06 125000 -390.354095903773 0 0 66 (C1) n - 1
REM
REM in /home/nfs/bkarasulu/CARBON/AIRSS/Generating-Clusters/LCBOP/Only-C1/SD-CG/FIRE-CG
REM
REM
REM
REM
REM
REM ./C.cell (11c1c37f851c82e70ff6c80c92926a4b)
REM AIRSS Version 0.9.1 bugfix July 2018 build 013d7b7c2542+ Fri, 06 Jul 2018 19:26:36 +0100
REM compiler GCC version 9.2.1 20190827 (Red Hat 9.2.1-1)
REM options -cpp -mtune=generic -march=x86-64 -g -O0 -fpre-include=/usr/include/finclude/math-vector-fortran.h
REM seed -852757066 1233600584 -1998628269 -259664900 2123183421 2034170550 1963879621 584367380 622578933 898135156 -1569392926 475002253 -1165278760 2129484764 2133370987 -458208485 -1364342500 251433361 -644206356 -1084382994 1086719492 -358759733 -1043937741 1298588516 -1239397633 -1928482498 -1374074737 1938360364 -336453250 882814918 385704439 -1393425932 827824981
REM
CELL 1.54180   50.00000   50.00000   50.00000   90.00000   90.00000   90.00000
LATT -1
SFAC C  
C      1  0.5241230000000  0.4446720000000  0.5104770000000 1.0
C      1  0.5389650000000  0.4826490000000  0.4403950000000 1.0
C      1  0.4652910000000  0.4344440000000  0.4220730000000 1.0
C      1  0.4855550000000  0.4905060000000  0.5661470000000 1.0
C      1  0.5265400000000  0.5564180000000  0.4558070000000 1.0
C      1  0.4655120000000  0.5411440000000  0.5271450000000 1.0
C      1  0.5171610000000  0.5246520000000  0.5963250000000 1.0
C      1  0.4933010000000  0.5161750000000  0.6064060000000 1.0
C      1  0.4454370000000  0.4848550000000  0.5314820000000 1.0
C      1  0.4779850000000  0.5153970000000  0.5246500000000 1.0
C      1  0.4898160000000  0.5233650000000  0.4796120000000 1.0
C      1  0.5169250000000  0.4424210000000  0.4600010000000 1.0
C      1  0.4777590000000  0.4987190000000  0.5923480000000 1.0
C      1  0.4435370000000  0.4947820000000  0.5013800000000 1.0
C      1  0.4508930000000  0.5532120000000  0.4548230000000 1.0
C      1  0.5649840000000  0.4721530000000  0.5238630000000 1.0
C      1  0.5050460000000  0.5784580000000  0.5106500000000 1.0
C      1  0.4827770000000  0.4773380000000  0.4813310000000 1.0
C      1  0.5738190000000  0.4883520000000  0.5466560000000 1.0
C      1  0.5142010000000  0.4901420000000  0.5625690000000 1.0
C      1  0.4794290000000  0.4321890000000  0.5334330000000 1.0
C      1  0.4715610000000  0.4214570000000  0.4469350000000 1.0
C      1  0.4690630000000  0.4860720000000  0.4348400000000 1.0
C      1  0.4199700000000  0.4775520000000  0.4628250000000 1.0
C      1  0.5156060000000  0.4684060000000  0.4471730000000 1.0
C      1  0.4449660000000  0.5451420000000  0.4817710000000 1.0
C      1  0.5463540000000  0.5066560000000  0.4860000000000 1.0
C      1  0.4326560000000  0.5185860000000  0.4827230000000 1.0
C      1  0.5506130000000  0.5588360000000  0.5648390000000 1.0
C      1  0.4628630000000  0.4196320000000  0.3991500000000 1.0
C      1  0.5273880000000  0.5148790000000  0.5715550000000 1.0
C      1  0.4692030000000  0.4961080000000  0.5441370000000 1.0
C      1  0.4504260000000  0.5079330000000  0.4376550000000 1.0
C      1  0.4559660000000  0.5356340000000  0.4344850000000 1.0
C      1  0.4906030000000  0.4818070000000  0.4534610000000 1.0
C      1  0.5378920000000  0.5778990000000  0.5493740000000 1.0
C      1  0.5729050000000  0.5569220000000  0.4842670000000 1.0
C      1  0.5590690000000  0.4750410000000  0.5681770000000 1.0
C      1  0.4608620000000  0.5561150000000  0.5031930000000 1.0
C      1  0.5463960000000  0.5304860000000  0.5541780000000 1.0
C      1  0.5515540000000  0.5597310000000  0.4684420000000 1.0
C      1  0.4594660000000  0.3976640000000  0.4532050000000 1.0
C      1  0.4895740000000  0.4331050000000  0.4652110000000 1.0
C      1  0.4286360000000  0.5039950000000  0.4563180000000 1.0
C      1  0.5211480000000  0.5703680000000  0.4328540000000 1.0
C      1  0.5492690000000  0.4829160000000  0.4151900000000 1.0
C      1  0.5723260000000  0.5168240000000  0.5452600000000 1.0
C      1  0.5348680000000  0.5199190000000  0.5059670000000 1.0
C      1  0.4955930000000  0.4416100000000  0.5126690000000 1.0
C      1  0.4825160000000  0.4495860000000  0.4884110000000 1.0
C      1  0.4583570000000  0.5513240000000  0.5515210000000 1.0
C      1  0.4751130000000  0.5020770000000  0.4970080000000 1.0
C      1  0.4292690000000  0.4709460000000  0.4876920000000 1.0
C      1  0.5389070000000  0.4596790000000  0.5290380000000 1.0
C      1  0.4621830000000  0.4624760000000  0.4209900000000 1.0
C      1  0.5879990000000  0.5318680000000  0.5270200000000 1.0
C      1  0.5069240000000  0.5390390000000  0.4662930000000 1.0
C      1  0.4384500000000  0.4589430000000  0.5399400000000 1.0
C      1  0.5244740000000  0.5664240000000  0.5266820000000 1.0
C      1  0.5318960000000  0.5379680000000  0.5268780000000 1.0
C      1  0.5505240000000  0.4966290000000  0.4617460000000 1.0
C      1  0.4803050000000  0.5765230000000  0.5001000000000 1.0
C      1  0.5334430000000  0.4396900000000  0.4835090000000 1.0
C      1  0.4546500000000  0.4375250000000  0.5424200000000 1.0
C      1  0.5867760000000  0.5468100000000  0.5047950000000 1.0
C      1  0.5323620000000  0.4691570000000  0.5565270000000 1.0
END
