TITL C-627106-156-1080 3102.09247056073 125000 -566.566546519397 0 0 95 (C1) n - 1
REM
REM in /home/nfs/bkarasulu/CARBON/AIRSS/Generating-Clusters/LCBOP/Only-C1/SD-CG/FIRE-CG
REM
REM
REM
REM
REM
REM ./C.cell (11c1c37f851c82e70ff6c80c92926a4b)
REM AIRSS Version 0.9.1 bugfix July 2018 build 013d7b7c2542+ Fri, 06 Jul 2018 19:26:36 +0100
REM compiler GCC version 9.2.1 20190827 (Red Hat 9.2.1-1)
REM options -cpp -mtune=generic -march=x86-64 -g -O0 -fpre-include=/usr/include/finclude/math-vector-fortran.h
REM seed 1211684293 -24200197 1134695846 2030239863 -1627060161 -1738723513 1551058036 -22342745 -1318007045 62070437 121175104 -469397155 -603181944 604552996 -1420693218 1099770760 177570553 -470486095 -1827439398 -762151795 -1514974296 -2105126894 1699822588 1904980935 1815600739 -1633656775 -1383995646 1823478204 1607457598 1688633779 61656588 -464337972 -52789119
REM
CELL 1.54180   50.00000   50.00000   50.00000   90.00000   90.00000   90.00000
LATT -1
SFAC C  
C      1  0.4280640000000  0.4711740000000  0.5621670000000 1.0
C      1  0.5416380000000  0.4776890000000  0.4836020000000 1.0
C      1  0.5336950000000  0.5327860000000  0.5304090000000 1.0
C      1  0.5862710000000  0.4742270000000  0.4826090000000 1.0
C      1  0.4494530000000  0.4218510000000  0.5188010000000 1.0
C      1  0.5156980000000  0.4190030000000  0.3550020000000 1.0
C      1  0.4816580000000  0.5814490000000  0.5245270000000 1.0
C      1  0.4447640000000  0.5525900000000  0.4454410000000 1.0
C      1  0.4465010000000  0.5825990000000  0.4841310000000 1.0
C      1  0.5553500000000  0.5143640000000  0.5336830000000 1.0
C      1  0.4092040000000  0.5292450000000  0.4652800000000 1.0
C      1  0.5115050000000  0.4871430000000  0.5687300000000 1.0
C      1  0.4937450000000  0.5867790000000  0.4994360000000 1.0
C      1  0.5874100000000  0.5479170000000  0.4323860000000 1.0
C      1  0.4824580000000  0.5806300000000  0.4515760000000 1.0
C      1  0.5140930000000  0.4912790000000  0.3474290000000 1.0
C      1  0.5140790000000  0.4417700000000  0.3700690000000 1.0
C      1  0.5156370000000  0.4699390000000  0.6178220000000 1.0
C      1  0.5749170000000  0.4669020000000  0.4581740000000 1.0
C      1  0.5475300000000  0.4139860000000  0.5238600000000 1.0
C      1  0.5463080000000  0.4018830000000  0.4991180000000 1.0
C      1  0.4703940000000  0.5609990000000  0.4367720000000 1.0
C      1  0.5641600000000  0.5608190000000  0.4739460000000 1.0
C      1  0.5089890000000  0.5240720000000  0.5182150000000 1.0
C      1  0.4746650000000  0.5875750000000  0.4782920000000 1.0
C      1  0.5122790000000  0.4402080000000  0.3979130000000 1.0
C      1  0.6187510000000  0.5389660000000  0.5182430000000 1.0
C      1  0.5209690000000  0.5483730000000  0.4598510000000 1.0
C      1  0.4686220000000  0.4421460000000  0.5241490000000 1.0
C      1  0.4418320000000  0.4871570000000  0.5816020000000 1.0
C      1  0.4556790000000  0.5073740000000  0.5166060000000 1.0
C      1  0.4359030000000  0.5271490000000  0.4551340000000 1.0
C      1  0.5250990000000  0.5530090000000  0.5722310000000 1.0
C      1  0.5019200000000  0.4630890000000  0.5552260000000 1.0
C      1  0.5927690000000  0.5372900000000  0.5099600000000 1.0
C      1  0.4355650000000  0.5391340000000  0.5688830000000 1.0
C      1  0.5362630000000  0.5560940000000  0.5466350000000 1.0
C      1  0.5151570000000  0.5230360000000  0.4712320000000 1.0
C      1  0.4302980000000  0.5143030000000  0.5253710000000 1.0
C      1  0.5403400000000  0.4415750000000  0.5214040000000 1.0
C      1  0.5494100000000  0.5788460000000  0.5395630000000 1.0
C      1  0.5576510000000  0.4905710000000  0.5518150000000 1.0
C      1  0.5363970000000  0.5678060000000  0.4741190000000 1.0
C      1  0.4996220000000  0.4698930000000  0.4623110000000 1.0
C      1  0.5390530000000  0.4758400000000  0.6015510000000 1.0
C      1  0.5138990000000  0.5154030000000  0.3375480000000 1.0
C      1  0.4557730000000  0.5708070000000  0.5318010000000 1.0
C      1  0.5210590000000  0.4574510000000  0.5338280000000 1.0
C      1  0.5004570000000  0.4658760000000  0.4910720000000 1.0
C      1  0.5714180000000  0.5416610000000  0.4535310000000 1.0
C      1  0.4533820000000  0.5080820000000  0.4678050000000 1.0
C      1  0.4366480000000  0.5719710000000  0.5094530000000 1.0
C      1  0.5401380000000  0.4851830000000  0.5743860000000 1.0
C      1  0.5142020000000  0.4669030000000  0.3578110000000 1.0
C      1  0.4129800000000  0.5551530000000  0.5081400000000 1.0
C      1  0.5199510000000  0.4607650000000  0.6434180000000 1.0
C      1  0.4725670000000  0.4917410000000  0.5328070000000 1.0
C      1  0.4450660000000  0.4123280000000  0.4935470000000 1.0
C      1  0.4500200000000  0.4791520000000  0.4663900000000 1.0
C      1  0.5369060000000  0.4208340000000  0.4790420000000 1.0
C      1  0.4971110000000  0.4235920000000  0.4432810000000 1.0
C      1  0.4124620000000  0.5341100000000  0.5267060000000 1.0
C      1  0.4709390000000  0.4330520000000  0.4523220000000 1.0
C      1  0.5603160000000  0.5159930000000  0.4577350000000 1.0
C      1  0.4679550000000  0.5165040000000  0.4914280000000 1.0
C      1  0.4998750000000  0.5119400000000  0.5760800000000 1.0
C      1  0.5419640000000  0.4483740000000  0.4917490000000 1.0
C      1  0.4960610000000  0.5250810000000  0.4920850000000 1.0
C      1  0.4203830000000  0.4654910000000  0.5099010000000 1.0
C      1  0.5378790000000  0.5043150000000  0.4712530000000 1.0
C      1  0.5844030000000  0.4855960000000  0.5093330000000 1.0
C      1  0.5803620000000  0.5589280000000  0.4967400000000 1.0
C      1  0.5006350000000  0.5401690000000  0.5772500000000 1.0
C      1  0.4308070000000  0.4687950000000  0.4851170000000 1.0
C      1  0.4849440000000  0.4443620000000  0.5009000000000 1.0
C      1  0.4535290000000  0.4172580000000  0.4682680000000 1.0
C      1  0.4196270000000  0.4656490000000  0.5370110000000 1.0
C      1  0.4354000000000  0.5148830000000  0.5807320000000 1.0
C      1  0.5105390000000  0.4419360000000  0.4254070000000 1.0
C      1  0.4327120000000  0.5744570000000  0.4603810000000 1.0
C      1  0.5215690000000  0.4630540000000  0.4422430000000 1.0
C      1  0.5120100000000  0.4772250000000  0.5145720000000 1.0
C      1  0.4543080000000  0.5571540000000  0.5575450000000 1.0
C      1  0.4711630000000  0.4623890000000  0.4556750000000 1.0
C      1  0.4782430000000  0.5561500000000  0.5724750000000 1.0
C      1  0.5157860000000  0.4129780000000  0.4619290000000 1.0
C      1  0.4636860000000  0.4778230000000  0.5979700000000 1.0
C      1  0.5511880000000  0.4645220000000  0.4435320000000 1.0
C      1  0.4881310000000  0.4730020000000  0.6090980000000 1.0
C      1  0.5774680000000  0.5138920000000  0.5144780000000 1.0
C      1  0.4005510000000  0.5472590000000  0.4837680000000 1.0
C      1  0.5209920000000  0.5839600000000  0.4916840000000 1.0
C      1  0.5764660000000  0.4736610000000  0.5357020000000 1.0
C      1  0.4997510000000  0.4990150000000  0.5268280000000 1.0
C      1  0.4745580000000  0.4635880000000  0.5429660000000 1.0
END
