TITL C-627107-135-973 -1.28251453630692e-06 125000 -691.41031489684 0 0 115 (C1) n - 1
REM
REM in /home/nfs/bkarasulu/CARBON/AIRSS/Generating-Clusters/LCBOP/Only-C1/SD-CG/FIRE-CG
REM
REM
REM
REM
REM
REM ./C.cell (11c1c37f851c82e70ff6c80c92926a4b)
REM AIRSS Version 0.9.1 bugfix July 2018 build 013d7b7c2542+ Fri, 06 Jul 2018 19:26:36 +0100
REM compiler GCC version 9.2.1 20190827 (Red Hat 9.2.1-1)
REM options -cpp -mtune=generic -march=x86-64 -g -O0 -fpre-include=/usr/include/finclude/math-vector-fortran.h
REM seed -1375458423 -1459607115 1841379052 1103785882 1376435063 -2048507986 -582306377 -187712809 993885440 -537214457 1000824151 -401110721 -903339464 1673744794 518948915 -205939362 32577404 1138493373 -66251330 657621366 1056628704 -852465462 -959388508 -1536276698 2073628190 -919472590 -104342725 -138200569 -654313715 1204732661 -219824087 -1514790834 -459115530
REM
CELL 1.54180   50.00000   50.00000   50.00000   90.00000   90.00000   90.00000
LATT -1
SFAC C  
C      1  0.5133640000000  0.5394470000000  0.4809690000000 1.0
C      1  0.4820060000000  0.5574220000000  0.4206010000000 1.0
C      1  0.4437690000000  0.4444780000000  0.5090080000000 1.0
C      1  0.5107160000000  0.5363640000000  0.5942910000000 1.0
C      1  0.4043310000000  0.4692120000000  0.5011810000000 1.0
C      1  0.4934780000000  0.4261240000000  0.4481880000000 1.0
C      1  0.4452010000000  0.5148250000000  0.4151990000000 1.0
C      1  0.4580670000000  0.5385330000000  0.5855210000000 1.0
C      1  0.5382410000000  0.5262990000000  0.4731560000000 1.0
C      1  0.4301810000000  0.5557750000000  0.5368820000000 1.0
C      1  0.5354320000000  0.5388910000000  0.5785940000000 1.0
C      1  0.5951010000000  0.5135650000000  0.5382930000000 1.0
C      1  0.5396810000000  0.5521790000000  0.4215120000000 1.0
C      1  0.4485470000000  0.4434590000000  0.4270920000000 1.0
C      1  0.5586850000000  0.5489810000000  0.4675380000000 1.0
C      1  0.5250020000000  0.4978400000000  0.5087590000000 1.0
C      1  0.4019860000000  0.5108450000000  0.4789060000000 1.0
C      1  0.4943370000000  0.5562390000000  0.4679710000000 1.0
C      1  0.5226620000000  0.4552390000000  0.4929530000000 1.0
C      1  0.6014150000000  0.5357150000000  0.4920080000000 1.0
C      1  0.4477550000000  0.5424360000000  0.5156290000000 1.0
C      1  0.5299720000000  0.5875750000000  0.4913320000000 1.0
C      1  0.4818620000000  0.5328500000000  0.5473150000000 1.0
C      1  0.4408710000000  0.5470030000000  0.4609490000000 1.0
C      1  0.4896400000000  0.3916040000000  0.4868740000000 1.0
C      1  0.5133850000000  0.3973740000000  0.5390490000000 1.0
C      1  0.4600930000000  0.4012110000000  0.5919700000000 1.0
C      1  0.5563870000000  0.5170410000000  0.5733920000000 1.0
C      1  0.5323400000000  0.5826780000000  0.5420980000000 1.0
C      1  0.5842240000000  0.4261530000000  0.5441810000000 1.0
C      1  0.5483310000000  0.4949410000000  0.4159830000000 1.0
C      1  0.4903620000000  0.4835380000000  0.4725000000000 1.0
C      1  0.4770900000000  0.4081120000000  0.5719110000000 1.0
C      1  0.4232860000000  0.4450190000000  0.4414720000000 1.0
C      1  0.5413410000000  0.4995470000000  0.4841890000000 1.0
C      1  0.5146100000000  0.4743500000000  0.4518390000000 1.0
C      1  0.5095570000000  0.4309440000000  0.4941470000000 1.0
C      1  0.5102080000000  0.5999790000000  0.5454110000000 1.0
C      1  0.5092070000000  0.4929640000000  0.5629720000000 1.0
C      1  0.6083440000000  0.4169460000000  0.5356470000000 1.0
C      1  0.5035480000000  0.4134110000000  0.4720550000000 1.0
C      1  0.5032900000000  0.4779760000000  0.5021000000000 1.0
C      1  0.5119230000000  0.4504700000000  0.4087450000000 1.0
C      1  0.5082300000000  0.4481450000000  0.4369780000000 1.0
C      1  0.4080390000000  0.5100870000000  0.4526030000000 1.0
C      1  0.5320830000000  0.4489800000000  0.5643800000000 1.0
C      1  0.4889880000000  0.4288980000000  0.5145650000000 1.0
C      1  0.5656460000000  0.5509070000000  0.5422440000000 1.0
C      1  0.5264600000000  0.5720820000000  0.4390860000000 1.0
C      1  0.5047930000000  0.5164640000000  0.5481180000000 1.0
C      1  0.5207360000000  0.5364070000000  0.4058900000000 1.0
C      1  0.5748480000000  0.5262470000000  0.5527490000000 1.0
C      1  0.4344840000000  0.5240910000000  0.5709230000000 1.0
C      1  0.4023520000000  0.4980850000000  0.5045710000000 1.0
C      1  0.4914680000000  0.5330660000000  0.4075700000000 1.0
C      1  0.4884170000000  0.4460810000000  0.5369310000000 1.0
C      1  0.4690260000000  0.5543780000000  0.5631420000000 1.0
C      1  0.4649820000000  0.4240070000000  0.4424240000000 1.0
C      1  0.4774130000000  0.4334010000000  0.5594710000000 1.0
C      1  0.5110520000000  0.4665630000000  0.5737530000000 1.0
C      1  0.4570290000000  0.4636010000000  0.4094880000000 1.0
C      1  0.5577650000000  0.4623000000000  0.5687810000000 1.0
C      1  0.4822010000000  0.5738420000000  0.4859330000000 1.0
C      1  0.4232050000000  0.5107530000000  0.4302990000000 1.0
C      1  0.4771390000000  0.5098780000000  0.4697450000000 1.0
C      1  0.6051590000000  0.5182900000000  0.5138490000000 1.0
C      1  0.4622400000000  0.5661090000000  0.5050060000000 1.0
C      1  0.5006880000000  0.4696370000000  0.3931090000000 1.0
C      1  0.5575450000000  0.4891760000000  0.5784100000000 1.0
C      1  0.4475670000000  0.5029570000000  0.5546290000000 1.0
C      1  0.4656960000000  0.5858930000000  0.5276910000000 1.0
C      1  0.5073880000000  0.6165660000000  0.5668290000000 1.0
C      1  0.4618460000000  0.4221370000000  0.5075300000000 1.0
C      1  0.4152040000000  0.5342880000000  0.5496720000000 1.0
C      1  0.5695820000000  0.4925720000000  0.4003100000000 1.0
C      1  0.4722210000000  0.5104990000000  0.4060080000000 1.0
C      1  0.4832370000000  0.4712440000000  0.5234210000000 1.0
C      1  0.4561250000000  0.5262840000000  0.4687040000000 1.0
C      1  0.4599180000000  0.5199610000000  0.5321670000000 1.0
C      1  0.4910010000000  0.4614640000000  0.5929820000000 1.0
C      1  0.5330540000000  0.4189220000000  0.5460610000000 1.0
C      1  0.6375380000000  0.5405640000000  0.4523180000000 1.0
C      1  0.5016280000000  0.5927750000000  0.4972430000000 1.0
C      1  0.5596980000000  0.4137110000000  0.5381100000000 1.0
C      1  0.4555150000000  0.4694010000000  0.5168900000000 1.0
C      1  0.4515140000000  0.4796020000000  0.5694390000000 1.0
C      1  0.4516620000000  0.5726260000000  0.5492020000000 1.0
C      1  0.4206240000000  0.4468530000000  0.4926480000000 1.0
C      1  0.5422390000000  0.5606260000000  0.5584330000000 1.0
C      1  0.4988970000000  0.5657400000000  0.4419440000000 1.0
C      1  0.5664210000000  0.5622980000000  0.5155380000000 1.0
C      1  0.5402340000000  0.5756330000000  0.4658940000000 1.0
C      1  0.4668460000000  0.4650760000000  0.4680610000000 1.0
C      1  0.4765830000000  0.4824740000000  0.4001790000000 1.0
C      1  0.5272880000000  0.4929420000000  0.4322850000000 1.0
C      1  0.4912820000000  0.5986580000000  0.5242740000000 1.0
C      1  0.4383420000000  0.5645030000000  0.4406670000000 1.0
C      1  0.4240810000000  0.4322380000000  0.4676370000000 1.0
C      1  0.4613290000000  0.4020100000000  0.4871120000000 1.0
C      1  0.6205950000000  0.5382470000000  0.4719830000000 1.0
C      1  0.5810200000000  0.4492240000000  0.5600390000000 1.0
C      1  0.5373800000000  0.4715630000000  0.4731830000000 1.0
C      1  0.5128120000000  0.5416270000000  0.5091660000000 1.0
C      1  0.5193370000000  0.5195600000000  0.5246900000000 1.0
C      1  0.4962250000000  0.3906090000000  0.5608760000000 1.0
C      1  0.4477600000000  0.4131020000000  0.4643540000000 1.0
C      1  0.5772200000000  0.5508800000000  0.4913690000000 1.0
C      1  0.5906540000000  0.4910270000000  0.3850440000000 1.0
C      1  0.4650360000000  0.4682900000000  0.5897150000000 1.0
C      1  0.4559310000000  0.5678620000000  0.4204490000000 1.0
C      1  0.4834420000000  0.5329630000000  0.6000080000000 1.0
C      1  0.5042320000000  0.3862180000000  0.5127450000000 1.0
C      1  0.5451480000000  0.5820390000000  0.5152440000000 1.0
C      1  0.4035760000000  0.5143640000000  0.5296570000000 1.0
C      1  0.5632550000000  0.5448770000000  0.4371990000000 1.0
END
