TITL C-627111-6168-1020 -0.0268597883809003 125000 -415.16349173127 0 0 69 (C1) n - 1
REM
REM in /home/nfs/bkarasulu/CARBON/AIRSS/Generating-Clusters/LCBOP/Only-C1/SD-CG/FIRE-CG
REM
REM
REM
REM
REM
REM ./C.cell (11c1c37f851c82e70ff6c80c92926a4b)
REM AIRSS Version 0.9.1 bugfix July 2018 build 013d7b7c2542+ Fri, 06 Jul 2018 19:26:36 +0100
REM compiler GCC version 9.2.1 20190827 (Red Hat 9.2.1-1)
REM options -cpp -mtune=generic -march=x86-64 -g -O0 -fpre-include=/usr/include/finclude/math-vector-fortran.h
REM seed 365299896 1664369663 744077844 1189693362 -618308115 407301342 -898916992 -1556348726 -395684704 915286692 1024117286 -1441352153 -146144469 796091791 1884757835 -1568015522 958657470 2080021521 -1389393975 909605007 -1311828679 -1349293902 -481050006 -743398067 904110724 309898385 -674809856 -9593524 860438085 587033187 -200662533 -1221123791 -1844245006
REM
CELL 1.54180   50.00000   50.00000   50.00000   90.00000   90.00000   90.00000
LATT -1
SFAC C  
C      1  0.5057970000000  0.5471810000000  0.4282570000000 1.0
C      1  0.4377800000000  0.4821620000000  0.4134440000000 1.0
C      1  0.3973050000000  0.5039770000000  0.5419130000000 1.0
C      1  0.5675670000000  0.5100200000000  0.5192710000000 1.0
C      1  0.5694210000000  0.5319680000000  0.4698780000000 1.0
C      1  0.4545720000000  0.5026190000000  0.4172810000000 1.0
C      1  0.4926170000000  0.4881650000000  0.4892070000000 1.0
C      1  0.4872690000000  0.5236880000000  0.5666520000000 1.0
C      1  0.4588740000000  0.4703170000000  0.5405300000000 1.0
C      1  0.4814390000000  0.5141080000000  0.4837220000000 1.0
C      1  0.4400890000000  0.5203260000000  0.6216670000000 1.0
C      1  0.5714130000000  0.5100180000000  0.4905770000000 1.0
C      1  0.4397250000000  0.4458580000000  0.4474380000000 1.0
C      1  0.4406050000000  0.5309110000000  0.5496810000000 1.0
C      1  0.5031580000000  0.5470720000000  0.5686060000000 1.0
C      1  0.4873100000000  0.4440040000000  0.4511670000000 1.0
C      1  0.5277920000000  0.5242500000000  0.4852640000000 1.0
C      1  0.4985240000000  0.5203260000000  0.4338070000000 1.0
C      1  0.5601660000000  0.5697910000000  0.5342130000000 1.0
C      1  0.5071350000000  0.4487690000000  0.4334480000000 1.0
C      1  0.4483790000000  0.5401100000000  0.5238480000000 1.0
C      1  0.4575880000000  0.4504300000000  0.4923490000000 1.0
C      1  0.5818770000000  0.4398150000000  0.5068550000000 1.0
C      1  0.5173750000000  0.5670260000000  0.4425390000000 1.0
C      1  0.3991200000000  0.4827910000000  0.5256610000000 1.0
C      1  0.5736190000000  0.4408620000000  0.4793340000000 1.0
C      1  0.5000550000000  0.5017220000000  0.5538440000000 1.0
C      1  0.4139240000000  0.5221870000000  0.5523140000000 1.0
C      1  0.5545780000000  0.4895130000000  0.4778220000000 1.0
C      1  0.4942230000000  0.5674460000000  0.5272340000000 1.0
C      1  0.5448420000000  0.5464560000000  0.4762100000000 1.0
C      1  0.4454190000000  0.4655810000000  0.5640820000000 1.0
C      1  0.5247570000000  0.5657510000000  0.4698780000000 1.0
C      1  0.5368380000000  0.4892830000000  0.4251340000000 1.0
C      1  0.4364250000000  0.5241400000000  0.4754710000000 1.0
C      1  0.4182700000000  0.4677870000000  0.5145830000000 1.0
C      1  0.5055130000000  0.4647050000000  0.4994290000000 1.0
C      1  0.5627630000000  0.5022540000000  0.4227680000000 1.0
C      1  0.5466760000000  0.4416680000000  0.4736830000000 1.0
C      1  0.4858430000000  0.4794380000000  0.5422110000000 1.0
C      1  0.4308720000000  0.4597500000000  0.4263460000000 1.0
C      1  0.5699290000000  0.4832270000000  0.5316160000000 1.0
C      1  0.4591900000000  0.5260020000000  0.5709770000000 1.0
C      1  0.5403430000000  0.5512830000000  0.5378210000000 1.0
C      1  0.5034240000000  0.4629340000000  0.5283060000000 1.0
C      1  0.5266550000000  0.4443120000000  0.4939220000000 1.0
C      1  0.5031280000000  0.5626850000000  0.4880210000000 1.0
C      1  0.5369410000000  0.4342280000000  0.5205550000000 1.0
C      1  0.4621420000000  0.4453370000000  0.4646260000000 1.0
C      1  0.4306020000000  0.5167940000000  0.6456900000000 1.0
C      1  0.5448010000000  0.4773660000000  0.5456280000000 1.0
C      1  0.5875770000000  0.4638900000000  0.5208270000000 1.0
C      1  0.4607050000000  0.5151910000000  0.4639210000000 1.0
C      1  0.5714610000000  0.5217070000000  0.4426240000000 1.0
C      1  0.5791990000000  0.4962230000000  0.4016520000000 1.0
C      1  0.5293760000000  0.5007560000000  0.4695760000000 1.0
C      1  0.4495800000000  0.5237340000000  0.5971690000000 1.0
C      1  0.4866030000000  0.5404530000000  0.4937390000000 1.0
C      1  0.4707110000000  0.5136420000000  0.4372500000000 1.0
C      1  0.4742620000000  0.5497130000000  0.5186500000000 1.0
C      1  0.5140030000000  0.5595700000000  0.5455830000000 1.0
C      1  0.4460590000000  0.4625020000000  0.5154970000000 1.0
C      1  0.5196090000000  0.5030460000000  0.4430650000000 1.0
C      1  0.5286310000000  0.4546680000000  0.5393270000000 1.0
C      1  0.5631070000000  0.4236400000000  0.5212800000000 1.0
C      1  0.5291200000000  0.5026340000000  0.5483860000000 1.0
C      1  0.5455340000000  0.5233450000000  0.5347990000000 1.0
C      1  0.4327910000000  0.5340220000000  0.5005630000000 1.0
C      1  0.5270060000000  0.4628540000000  0.4213150000000 1.0
END
