TITL C-627107-135-259 1.93058138373979 125000 -956.001443603343 0 0 156 (C1) n - 1
REM
REM in /home/nfs/bkarasulu/CARBON/AIRSS/Generating-Clusters/LCBOP/Only-C1/SD-CG/FIRE-CG
REM
REM
REM
REM
REM
REM ./C.cell (11c1c37f851c82e70ff6c80c92926a4b)
REM AIRSS Version 0.9.1 bugfix July 2018 build 013d7b7c2542+ Fri, 06 Jul 2018 19:26:36 +0100
REM compiler GCC version 9.2.1 20190827 (Red Hat 9.2.1-1)
REM options -cpp -mtune=generic -march=x86-64 -g -O0 -fpre-include=/usr/include/finclude/math-vector-fortran.h
REM seed 2108328050 -164539494 -2096670962 -862476286 -1425133373 128637111 2123788027 1070138425 -1936817823 859440106 916842562 1037545120 -721760148 1189816779 -2074694087 1195577458 -2144960729 889255077 -274938766 1993662849 1917131141 -2140236511 -1759472644 79541535 2004483380 -2063760624 -1172652171 540616251 -1330458167 -200944025 -303668691 -2060680877 1493784357
REM
CELL 1.54180   50.00000   50.00000   50.00000   90.00000   90.00000   90.00000
LATT -1
SFAC C  
C      1  0.4633020000000  0.4974060000000  0.3877260000000 1.0
C      1  0.4653540000000  0.6279240000000  0.5621770000000 1.0
C      1  0.4614690000000  0.5116120000000  0.5814840000000 1.0
C      1  0.6091490000000  0.4969490000000  0.4780900000000 1.0
C      1  0.5244150000000  0.4732310000000  0.5946950000000 1.0
C      1  0.4526470000000  0.4515740000000  0.3755630000000 1.0
C      1  0.5197590000000  0.4460500000000  0.5273700000000 1.0
C      1  0.3945070000000  0.4998460000000  0.6090230000000 1.0
C      1  0.4261940000000  0.4110390000000  0.5261980000000 1.0
C      1  0.5787760000000  0.4628330000000  0.5752830000000 1.0
C      1  0.6480380000000  0.5191060000000  0.5033010000000 1.0
C      1  0.5211550000000  0.5868370000000  0.5314080000000 1.0
C      1  0.3873210000000  0.4972280000000  0.4692830000000 1.0
C      1  0.4201640000000  0.4973160000000  0.5998620000000 1.0
C      1  0.6046400000000  0.4350130000000  0.4596360000000 1.0
C      1  0.5681770000000  0.6127650000000  0.5169080000000 1.0
C      1  0.4717680000000  0.4561430000000  0.4726740000000 1.0
C      1  0.5148580000000  0.5366490000000  0.5824210000000 1.0
C      1  0.5283530000000  0.5219740000000  0.4279120000000 1.0
C      1  0.4394670000000  0.5616860000000  0.5595490000000 1.0
C      1  0.4464060000000  0.4734510000000  0.5480810000000 1.0
C      1  0.5258190000000  0.4486440000000  0.6085930000000 1.0
C      1  0.4952070000000  0.4068420000000  0.5722490000000 1.0
C      1  0.5020690000000  0.5648820000000  0.4076810000000 1.0
C      1  0.4662360000000  0.5691020000000  0.4590240000000 1.0
C      1  0.5527180000000  0.5573780000000  0.5590390000000 1.0
C      1  0.5598220000000  0.5499230000000  0.4850260000000 1.0
C      1  0.4482920000000  0.4394180000000  0.4621800000000 1.0
C      1  0.5329980000000  0.5453510000000  0.4922720000000 1.0
C      1  0.5060470000000  0.5337330000000  0.4076730000000 1.0
C      1  0.5244160000000  0.5804510000000  0.4169390000000 1.0
C      1  0.5941690000000  0.4765000000000  0.4943330000000 1.0
C      1  0.4259850000000  0.4578990000000  0.5363960000000 1.0
C      1  0.5179370000000  0.4219370000000  0.4329540000000 1.0
C      1  0.4597900000000  0.6126910000000  0.4479740000000 1.0
C      1  0.5158470000000  0.4730050000000  0.5669810000000 1.0
C      1  0.5353880000000  0.5684630000000  0.4409070000000 1.0
C      1  0.5589800000000  0.4190790000000  0.5199670000000 1.0
C      1  0.4102980000000  0.4680840000000  0.4352810000000 1.0
C      1  0.5296850000000  0.4944320000000  0.4406070000000 1.0
C      1  0.4427050000000  0.5834280000000  0.5412760000000 1.0
C      1  0.5154890000000  0.4972430000000  0.5531330000000 1.0
C      1  0.5473380000000  0.5749420000000  0.5374530000000 1.0
C      1  0.5108220000000  0.3784160000000  0.4837800000000 1.0
C      1  0.4783020000000  0.4440330000000  0.5942850000000 1.0
C      1  0.4686120000000  0.4184350000000  0.5037710000000 1.0
C      1  0.6321790000000  0.4064810000000  0.4251230000000 1.0
C      1  0.4400720000000  0.4166340000000  0.5024170000000 1.0
C      1  0.5936390000000  0.5322760000000  0.4554300000000 1.0
C      1  0.4340850000000  0.4718940000000  0.6018830000000 1.0
C      1  0.4863740000000  0.4343110000000  0.5664680000000 1.0
C      1  0.5275880000000  0.4580910000000  0.4787780000000 1.0
C      1  0.5724810000000  0.4805650000000  0.5543420000000 1.0
C      1  0.5070650000000  0.5192660000000  0.6034540000000 1.0
C      1  0.4947640000000  0.5203330000000  0.5125000000000 1.0
C      1  0.3784560000000  0.4962730000000  0.4963250000000 1.0
C      1  0.5117240000000  0.5231710000000  0.5578360000000 1.0
C      1  0.5541670000000  0.3967420000000  0.5030480000000 1.0
C      1  0.4697320000000  0.5023520000000  0.5103350000000 1.0
C      1  0.3833120000000  0.5447440000000  0.5026690000000 1.0
C      1  0.5225310000000  0.6153190000000  0.5297560000000 1.0
C      1  0.3925330000000  0.5480970000000  0.4759990000000 1.0
C      1  0.6253080000000  0.5193340000000  0.4874550000000 1.0
C      1  0.4133120000000  0.5139150000000  0.5255060000000 1.0
C      1  0.5984980000000  0.5040460000000  0.4519820000000 1.0
C      1  0.5252800000000  0.4718580000000  0.4230630000000 1.0
C      1  0.4366960000000  0.5164680000000  0.4230510000000 1.0
C      1  0.5445530000000  0.4397760000000  0.4664060000000 1.0
C      1  0.4601850000000  0.5024140000000  0.4660310000000 1.0
C      1  0.5091810000000  0.4058670000000  0.5976750000000 1.0
C      1  0.4520640000000  0.4223590000000  0.4401410000000 1.0
C      1  0.6544420000000  0.4838050000000  0.5364160000000 1.0
C      1  0.4680360000000  0.4738950000000  0.3725640000000 1.0
C      1  0.5457810000000  0.6274810000000  0.5221610000000 1.0
C      1  0.4525960000000  0.5928090000000  0.4683560000000 1.0
C      1  0.4316920000000  0.4497190000000  0.3929220000000 1.0
C      1  0.4390140000000  0.5335310000000  0.4934640000000 1.0
C      1  0.5234110000000  0.6086440000000  0.4248620000000 1.0
C      1  0.4812500000000  0.5172680000000  0.4011750000000 1.0
C      1  0.4419200000000  0.5165850000000  0.5167250000000 1.0
C      1  0.3972030000000  0.5472720000000  0.5753170000000 1.0
C      1  0.5715270000000  0.4434390000000  0.5922570000000 1.0
C      1  0.4849050000000  0.4392290000000  0.4936680000000 1.0
C      1  0.5777080000000  0.5669690000000  0.4994570000000 1.0
C      1  0.5954450000000  0.4892310000000  0.4295740000000 1.0
C      1  0.5256510000000  0.4980870000000  0.6083110000000 1.0
C      1  0.5235460000000  0.5194700000000  0.5018190000000 1.0
C      1  0.6607840000000  0.5061800000000  0.5229520000000 1.0
C      1  0.5275810000000  0.5848620000000  0.4649700000000 1.0
C      1  0.4367570000000  0.4959200000000  0.4030960000000 1.0
C      1  0.4305820000000  0.5863590000000  0.4856620000000 1.0
C      1  0.4022020000000  0.4725690000000  0.4625240000000 1.0
C      1  0.5320260000000  0.4855180000000  0.4694450000000 1.0
C      1  0.5344710000000  0.5566480000000  0.5809510000000 1.0
C      1  0.5696810000000  0.5348140000000  0.5564470000000 1.0
C      1  0.5683160000000  0.3922480000000  0.4786820000000 1.0
C      1  0.5031650000000  0.5720630000000  0.5148720000000 1.0
C      1  0.5379140000000  0.4051860000000  0.6002260000000 1.0
C      1  0.4613610000000  0.4640090000000  0.6061510000000 1.0
C      1  0.5241210000000  0.6109820000000  0.4527330000000 1.0
C      1  0.5288030000000  0.3840160000000  0.5029720000000 1.0
C      1  0.4782470000000  0.5138000000000  0.4487850000000 1.0
C      1  0.4349890000000  0.5197410000000  0.5884050000000 1.0
C      1  0.4895050000000  0.5477170000000  0.5224970000000 1.0
C      1  0.4897690000000  0.5575840000000  0.4697750000000 1.0
C      1  0.4773290000000  0.5790260000000  0.4143600000000 1.0
C      1  0.5668870000000  0.5399910000000  0.4588470000000 1.0
C      1  0.4086210000000  0.5718630000000  0.4736610000000 1.0
C      1  0.4609610000000  0.4924980000000  0.5603470000000 1.0
C      1  0.5056720000000  0.4505400000000  0.5521720000000 1.0
C      1  0.4387660000000  0.5198810000000  0.4693810000000 1.0
C      1  0.5599410000000  0.3978790000000  0.4533340000000 1.0
C      1  0.4656400000000  0.5211940000000  0.4251710000000 1.0
C      1  0.5490420000000  0.4315320000000  0.6037480000000 1.0
C      1  0.3843040000000  0.5444900000000  0.5519290000000 1.0
C      1  0.4802070000000  0.5094980000000  0.6032920000000 1.0
C      1  0.5089740000000  0.4496790000000  0.4302050000000 1.0
C      1  0.4115440000000  0.4668370000000  0.5132820000000 1.0
C      1  0.4328280000000  0.5640180000000  0.4221710000000 1.0
C      1  0.4714630000000  0.4067990000000  0.4301310000000 1.0
C      1  0.4252070000000  0.5442440000000  0.5772740000000 1.0
C      1  0.4216740000000  0.5218910000000  0.4466890000000 1.0
C      1  0.5657730000000  0.4846890000000  0.5052540000000 1.0
C      1  0.6188680000000  0.4208260000000  0.4423450000000 1.0
C      1  0.4552980000000  0.6063840000000  0.5514960000000 1.0
C      1  0.4290690000000  0.4341260000000  0.4821450000000 1.0
C      1  0.4755450000000  0.4857440000000  0.6184050000000 1.0
C      1  0.3944050000000  0.5361600000000  0.5271960000000 1.0
C      1  0.5126740000000  0.5683180000000  0.4862430000000 1.0
C      1  0.5484950000000  0.4440730000000  0.5285580000000 1.0
C      1  0.5751700000000  0.5085960000000  0.5567660000000 1.0
C      1  0.4676170000000  0.4839840000000  0.4861960000000 1.0
C      1  0.5618050000000  0.4695290000000  0.5301710000000 1.0
C      1  0.6114140000000  0.4674310000000  0.5176530000000 1.0
C      1  0.5010320000000  0.4328200000000  0.6097210000000 1.0
C      1  0.5457400000000  0.5422980000000  0.4402320000000 1.0
C      1  0.5418460000000  0.4984490000000  0.4933500000000 1.0
C      1  0.5105530000000  0.4484270000000  0.5004960000000 1.0
C      1  0.4587450000000  0.5650620000000  0.4311740000000 1.0
C      1  0.6045230000000  0.5643390000000  0.4912180000000 1.0
C      1  0.5679930000000  0.5843450000000  0.5194000000000 1.0
C      1  0.4238970000000  0.4709120000000  0.4102230000000 1.0
C      1  0.6128240000000  0.5425990000000  0.4754300000000 1.0
C      1  0.5933070000000  0.4521750000000  0.4764040000000 1.0
C      1  0.4980620000000  0.4016420000000  0.4377350000000 1.0
C      1  0.4953960000000  0.5318430000000  0.4602840000000 1.0
C      1  0.4115700000000  0.4562330000000  0.4861790000000 1.0
C      1  0.4215340000000  0.4310180000000  0.5438040000000 1.0
C      1  0.4879830000000  0.4576800000000  0.4474230000000 1.0
C      1  0.3984630000000  0.4913380000000  0.5159880000000 1.0
C      1  0.5023690000000  0.3833520000000  0.4588600000000 1.0
C      1  0.6329800000000  0.4680090000000  0.5333180000000 1.0
C      1  0.4341920000000  0.5847720000000  0.5140420000000 1.0
C      1  0.3956520000000  0.5236370000000  0.4591270000000 1.0
C      1  0.4724560000000  0.6068100000000  0.4235740000000 1.0
C      1  0.5426190000000  0.4193380000000  0.4473110000000 1.0
END
