TITL C-627109-622-1061 -7.3460684096292e-07 125000 -354.970564531763 0 0 58 (C1) n - 1
REM
REM in /home/nfs/bkarasulu/CARBON/AIRSS/Generating-Clusters/LCBOP/Only-C1/SD-CG/FIRE-CG
REM
REM
REM
REM
REM
REM ./C.cell (11c1c37f851c82e70ff6c80c92926a4b)
REM AIRSS Version 0.9.1 bugfix July 2018 build 013d7b7c2542+ Fri, 06 Jul 2018 19:26:36 +0100
REM compiler GCC version 9.2.1 20190827 (Red Hat 9.2.1-1)
REM options -cpp -mtune=generic -march=x86-64 -g -O0 -fpre-include=/usr/include/finclude/math-vector-fortran.h
REM seed -2109482092 -1912202977 -871835542 604365691 1800532360 1416972003 1090470615 -263756774 1019953420 709665983 1299492079 1579305433 163779104 -95536113 -863725336 -498443542 -1176331564 1931976532 -1023227349 270244193 383558024 342344516 387837800 -1588443281 -1798526779 -1505805713 -1379725775 -403787642 169483013 -422978888 1615518341 -2130835926 1510799822
REM
CELL 1.54180   50.00000   50.00000   50.00000   90.00000   90.00000   90.00000
LATT -1
SFAC C  
C      1  0.5552420000000  0.4710900000000  0.5177570000000 1.0
C      1  0.4871490000000  0.4034650000000  0.4526470000000 1.0
C      1  0.5415960000000  0.5059850000000  0.4312850000000 1.0
C      1  0.5241000000000  0.5731720000000  0.5436350000000 1.0
C      1  0.4609590000000  0.4213040000000  0.5397820000000 1.0
C      1  0.4676400000000  0.4109790000000  0.5143950000000 1.0
C      1  0.4661960000000  0.5092880000000  0.4409800000000 1.0
C      1  0.4642370000000  0.5437480000000  0.4728450000000 1.0
C      1  0.4303340000000  0.5946290000000  0.4936910000000 1.0
C      1  0.5121920000000  0.4091230000000  0.4610760000000 1.0
C      1  0.4149030000000  0.5739530000000  0.5058760000000 1.0
C      1  0.5576990000000  0.5370030000000  0.4983750000000 1.0
C      1  0.5697830000000  0.4935030000000  0.5099030000000 1.0
C      1  0.5764310000000  0.4970880000000  0.4819530000000 1.0
C      1  0.5583500000000  0.5440700000000  0.5691420000000 1.0
C      1  0.4627230000000  0.4249450000000  0.4898190000000 1.0
C      1  0.5395980000000  0.5579620000000  0.5010950000000 1.0
C      1  0.4669930000000  0.4533620000000  0.4877830000000 1.0
C      1  0.4567890000000  0.5971690000000  0.4998750000000 1.0
C      1  0.5591190000000  0.4854880000000  0.4227780000000 1.0
C      1  0.4496740000000  0.5252700000000  0.4573550000000 1.0
C      1  0.4933090000000  0.4655790000000  0.4841440000000 1.0
C      1  0.5007230000000  0.5076440000000  0.5237980000000 1.0
C      1  0.5072160000000  0.4706800000000  0.5587560000000 1.0
C      1  0.5646900000000  0.5229380000000  0.4742050000000 1.0
C      1  0.4256310000000  0.5149270000000  0.4686470000000 1.0
C      1  0.5048190000000  0.4433580000000  0.5521390000000 1.0
C      1  0.4274800000000  0.4887950000000  0.4787180000000 1.0
C      1  0.5855340000000  0.4787390000000  0.4629740000000 1.0
C      1  0.5161980000000  0.4119290000000  0.5118510000000 1.0
C      1  0.4845240000000  0.5406020000000  0.4921130000000 1.0
C      1  0.4255860000000  0.5666560000000  0.5313210000000 1.0
C      1  0.4054930000000  0.5327880000000  0.4763770000000 1.0
C      1  0.5393040000000  0.5639670000000  0.5635700000000 1.0
C      1  0.4914350000000  0.5629590000000  0.5085190000000 1.0
C      1  0.5178980000000  0.4515430000000  0.4887140000000 1.0
C      1  0.4795360000000  0.4314960000000  0.5565910000000 1.0
C      1  0.5782870000000  0.4735080000000  0.4375600000000 1.0
C      1  0.4620640000000  0.5637400000000  0.5639740000000 1.0
C      1  0.4925240000000  0.3967720000000  0.5150020000000 1.0
C      1  0.5197220000000  0.4225260000000  0.4844600000000 1.0
C      1  0.4643890000000  0.4101890000000  0.4656350000000 1.0
C      1  0.5045490000000  0.4942520000000  0.5464560000000 1.0
C      1  0.4698630000000  0.5790310000000  0.5176180000000 1.0
C      1  0.5689680000000  0.5407880000000  0.5940400000000 1.0
C      1  0.4438760000000  0.4693750000000  0.4866810000000 1.0
C      1  0.5140240000000  0.5018600000000  0.4325230000000 1.0
C      1  0.5647140000000  0.5198060000000  0.5209780000000 1.0
C      1  0.4916430000000  0.5000070000000  0.4490440000000 1.0
C      1  0.4943510000000  0.4933840000000  0.4769280000000 1.0
C      1  0.5329050000000  0.4551960000000  0.5137360000000 1.0
C      1  0.4529150000000  0.5694340000000  0.5389530000000 1.0
C      1  0.5181270000000  0.5670310000000  0.5168830000000 1.0
C      1  0.4011780000000  0.5551090000000  0.4904470000000 1.0
C      1  0.5218800000000  0.4339460000000  0.5309840000000 1.0
C      1  0.4941980000000  0.5140040000000  0.4972210000000 1.0
C      1  0.5529820000000  0.5251150000000  0.4488690000000 1.0
C      1  0.5657580000000  0.5277280000000  0.5475240000000 1.0
END
