TITL C-627111-6168-1549 37223.8522689587 125000 -1102.45215265806 0 0 181 (C1) n - 1
REM
REM in /home/nfs/bkarasulu/CARBON/AIRSS/Generating-Clusters/LCBOP/Only-C1/SD-CG/FIRE-CG
REM
REM
REM
REM
REM
REM ./C.cell (11c1c37f851c82e70ff6c80c92926a4b)
REM AIRSS Version 0.9.1 bugfix July 2018 build 013d7b7c2542+ Fri, 06 Jul 2018 19:26:36 +0100
REM compiler GCC version 9.2.1 20190827 (Red Hat 9.2.1-1)
REM options -cpp -mtune=generic -march=x86-64 -g -O0 -fpre-include=/usr/include/finclude/math-vector-fortran.h
REM seed -1955656973 457984963 1346674752 -891243770 -29487278 -787559165 155769928 -439548278 -1746200763 -1884817364 1576255123 -920249198 136305315 -1514899869 -550069683 -49627771 -823468766 -1889350129 487373828 -2109364047 -833987578 -1312252760 1633647565 335099478 340410234 -203166356 30596089 55704775 -112777930 842681310 -391105863 225201299 580748914
REM
CELL 1.54180   50.00000   50.00000   50.00000   90.00000   90.00000   90.00000
LATT -1
SFAC C  
C      1  0.5348560000000  0.4938220000000  0.3951620000000 1.0
C      1  0.4830100000000  0.5089590000000  0.5435830000000 1.0
C      1  0.4947560000000  0.4226380000000  0.4181810000000 1.0
C      1  0.5276600000000  0.4722830000000  0.6184000000000 1.0
C      1  0.5332240000000  0.5168930000000  0.4359940000000 1.0
C      1  0.5099380000000  0.5320910000000  0.4278380000000 1.0
C      1  0.4520670000000  0.5971850000000  0.4774120000000 1.0
C      1  0.4167400000000  0.5012610000000  0.5184450000000 1.0
C      1  0.4464970000000  0.4124050000000  0.4144940000000 1.0
C      1  0.5159750000000  0.5529650000000  0.4715960000000 1.0
C      1  0.4857630000000  0.5523480000000  0.6229870000000 1.0
C      1  0.5124360000000  0.4759590000000  0.5218490000000 1.0
C      1  0.5119540000000  0.4491450000000  0.5127510000000 1.0
C      1  0.4931620000000  0.6125240000000  0.5329970000000 1.0
C      1  0.5988960000000  0.5620330000000  0.5292230000000 1.0
C      1  0.4446910000000  0.5369250000000  0.4143020000000 1.0
C      1  0.4152530000000  0.5790860000000  0.5118160000000 1.0
C      1  0.4770470000000  0.6105990000000  0.4829580000000 1.0
C      1  0.4152100000000  0.5963640000000  0.5339850000000 1.0
C      1  0.4515450000000  0.5688150000000  0.4826330000000 1.0
C      1  0.4651400000000  0.4580600000000  0.4069300000000 1.0
C      1  0.5277900000000  0.5736790000000  0.4869200000000 1.0
C      1  0.5759900000000  0.5710130000000  0.5436780000000 1.0
C      1  0.4645660000000  0.4832850000000  0.5032600000000 1.0
C      1  0.5029160000000  0.5309040000000  0.6177510000000 1.0
C      1  0.5566680000000  0.5292340000000  0.5559050000000 1.0
C      1  0.5769290000000  0.5164530000000  0.4200520000000 1.0
C      1  0.4648170000000  0.3979520000000  0.5623110000000 1.0
C      1  0.5880270000000  0.5315520000000  0.4419790000000 1.0
C      1  0.4524000000000  0.4622470000000  0.5873950000000 1.0
C      1  0.4846050000000  0.5894340000000  0.5541430000000 1.0
C      1  0.4368490000000  0.5087750000000  0.4488810000000 1.0
C      1  0.3903700000000  0.4943420000000  0.5042790000000 1.0
C      1  0.5684800000000  0.5149630000000  0.5082760000000 1.0
C      1  0.4521310000000  0.5596050000000  0.4314920000000 1.0
C      1  0.5051430000000  0.5530600000000  0.4456670000000 1.0
C      1  0.5236510000000  0.5334850000000  0.5124810000000 1.0
C      1  0.4628590000000  0.4645130000000  0.5600990000000 1.0
C      1  0.4846110000000  0.4139230000000  0.5019230000000 1.0
C      1  0.5057010000000  0.4944660000000  0.3990170000000 1.0
C      1  0.5064150000000  0.4188140000000  0.5791540000000 1.0
C      1  0.4689550000000  0.5322920000000  0.3971420000000 1.0
C      1  0.4462620000000  0.4506440000000  0.5417710000000 1.0
C      1  0.5218190000000  0.4600550000000  0.3393870000000 1.0
C      1  0.4213930000000  0.4096170000000  0.5303510000000 1.0
C      1  0.5026430000000  0.5507830000000  0.5195350000000 1.0
C      1  0.5157600000000  0.6270700000000  0.5378340000000 1.0
C      1  0.4637070000000  0.3891750000000  0.5347330000000 1.0
C      1  0.5325630000000  0.4207020000000  0.5676940000000 1.0
C      1  0.5607400000000  0.4259950000000  0.5770640000000 1.0
C      1  0.4452400000000  0.6014880000000  0.6186440000000 1.0
C      1  0.5764740000000  0.4498630000000  0.5764520000000 1.0
C      1  0.5294790000000  0.5682700000000  0.5444680000000 1.0
C      1  0.4548720000000  0.5234780000000  0.5394260000000 1.0
C      1  0.5954450000000  0.4536180000000  0.5020840000000 1.0
C      1  0.5943380000000  0.4668790000000  0.5649680000000 1.0
C      1  0.5173210000000  0.5501070000000  0.5580370000000 1.0
C      1  0.5008080000000  0.5040340000000  0.4857670000000 1.0
C      1  0.5661190000000  0.3987620000000  0.5386260000000 1.0
C      1  0.5513270000000  0.5783570000000  0.5301680000000 1.0
C      1  0.5528740000000  0.4556970000000  0.5310650000000 1.0
C      1  0.3975010000000  0.5040840000000  0.4260200000000 1.0
C      1  0.5799080000000  0.4460830000000  0.4045850000000 1.0
C      1  0.4714630000000  0.5792200000000  0.3920440000000 1.0
C      1  0.4358830000000  0.6261930000000  0.6127190000000 1.0
C      1  0.5078130000000  0.4481540000000  0.4273100000000 1.0
C      1  0.4608060000000  0.5568220000000  0.6104520000000 1.0
C      1  0.5067710000000  0.5864750000000  0.5748360000000 1.0
C      1  0.4098960000000  0.4029860000000  0.4774950000000 1.0
C      1  0.5631850000000  0.4887540000000  0.4990540000000 1.0
C      1  0.5429150000000  0.4608620000000  0.4636850000000 1.0
C      1  0.4665090000000  0.5820370000000  0.4199210000000 1.0
C      1  0.4361010000000  0.4899340000000  0.4975440000000 1.0
C      1  0.5979150000000  0.4260460000000  0.5075130000000 1.0
C      1  0.5814650000000  0.5594940000000  0.4441800000000 1.0
C      1  0.5986570000000  0.5728990000000  0.5025820000000 1.0
C      1  0.6049500000000  0.5214060000000  0.5859880000000 1.0
C      1  0.5360890000000  0.4094540000000  0.5380510000000 1.0
C      1  0.4810930000000  0.5629620000000  0.5313780000000 1.0
C      1  0.4833250000000  0.3851810000000  0.4553190000000 1.0
C      1  0.6093380000000  0.4920550000000  0.4679010000000 1.0
C      1  0.4366490000000  0.4865240000000  0.5911830000000 1.0
C      1  0.4962640000000  0.4795610000000  0.4661750000000 1.0
C      1  0.3847840000000  0.4674630000000  0.5138470000000 1.0
C      1  0.5236900000000  0.6092080000000  0.4562930000000 1.0
C      1  0.5716100000000  0.4217880000000  0.4508540000000 1.0
C      1  0.4228680000000  0.5201340000000  0.4259910000000 1.0
C      1  0.5804290000000  0.5130090000000  0.5947350000000 1.0
C      1  0.4761440000000  0.6192640000000  0.5109220000000 1.0
C      1  0.4942700000000  0.3968180000000  0.4305590000000 1.0
C      1  0.5755380000000  0.5807320000000  0.4874300000000 1.0
C      1  0.3883500000000  0.4842450000000  0.4474860000000 1.0
C      1  0.5870120000000  0.5274260000000  0.4909360000000 1.0
C      1  0.5295360000000  0.5842310000000  0.5890360000000 1.0
C      1  0.5485400000000  0.5986240000000  0.4513360000000 1.0
C      1  0.4298410000000  0.5089920000000  0.5425040000000 1.0
C      1  0.4241580000000  0.4963100000000  0.5671280000000 1.0
C      1  0.4772810000000  0.4622730000000  0.4845510000000 1.0
C      1  0.5508170000000  0.4864480000000  0.4735400000000 1.0
C      1  0.4080980000000  0.4512780000000  0.5116710000000 1.0
C      1  0.4776520000000  0.4163360000000  0.5806580000000 1.0
C      1  0.5506890000000  0.5808380000000  0.5020860000000 1.0
C      1  0.4601380000000  0.5939680000000  0.5728490000000 1.0
C      1  0.4254530000000  0.6065510000000  0.4738010000000 1.0
C      1  0.4857480000000  0.4814920000000  0.5591860000000 1.0
C      1  0.6120700000000  0.5385430000000  0.5401380000000 1.0
C      1  0.5708000000000  0.5814570000000  0.4589350000000 1.0
C      1  0.6073340000000  0.4881360000000  0.5537360000000 1.0
C      1  0.5723990000000  0.4665080000000  0.5134120000000 1.0
C      1  0.4528640000000  0.5543310000000  0.4591050000000 1.0
C      1  0.5392920000000  0.5109740000000  0.4632900000000 1.0
C      1  0.5405800000000  0.4194790000000  0.4895440000000 1.0
C      1  0.4806890000000  0.6007790000000  0.4356750000000 1.0
C      1  0.5849870000000  0.4051820000000  0.5186590000000 1.0
C      1  0.4361530000000  0.3914280000000  0.4874570000000 1.0
C      1  0.5517400000000  0.4964820000000  0.3322880000000 1.0
C      1  0.4724860000000  0.5542150000000  0.3785880000000 1.0
C      1  0.5673880000000  0.4596670000000  0.3855150000000 1.0
C      1  0.5316170000000  0.3928250000000  0.4800740000000 1.0
C      1  0.6093660000000  0.4691900000000  0.4825780000000 1.0
C      1  0.4556000000000  0.5825910000000  0.5997430000000 1.0
C      1  0.5269570000000  0.4913860000000  0.6371160000000 1.0
C      1  0.5051110000000  0.3831690000000  0.4742940000000 1.0
C      1  0.4063600000000  0.5927140000000  0.4879400000000 1.0
C      1  0.5363640000000  0.4325090000000  0.5177270000000 1.0
C      1  0.4559250000000  0.5502750000000  0.5278850000000 1.0
C      1  0.4229610000000  0.4376270000000  0.5313940000000 1.0
C      1  0.5476310000000  0.4771900000000  0.3762400000000 1.0
C      1  0.5315360000000  0.4733910000000  0.5440520000000 1.0
C      1  0.4334550000000  0.6170110000000  0.5400020000000 1.0
C      1  0.4761830000000  0.5510910000000  0.3518330000000 1.0
C      1  0.5403040000000  0.4779170000000  0.3488510000000 1.0
C      1  0.5530850000000  0.3794210000000  0.4668240000000 1.0
C      1  0.4434120000000  0.6167590000000  0.5661390000000 1.0
C      1  0.4389340000000  0.5622140000000  0.5078490000000 1.0
C      1  0.4900820000000  0.4969420000000  0.5138700000000 1.0
C      1  0.5140260000000  0.3902130000000  0.5317120000000 1.0
C      1  0.4554670000000  0.4911620000000  0.4386240000000 1.0
C      1  0.4734320000000  0.4271940000000  0.4549760000000 1.0
C      1  0.4941870000000  0.5205010000000  0.4064210000000 1.0
C      1  0.5019040000000  0.5281370000000  0.5640200000000 1.0
C      1  0.4439960000000  0.5341130000000  0.6105560000000 1.0
C      1  0.4081840000000  0.4143130000000  0.4505600000000 1.0
C      1  0.3996980000000  0.4495860000000  0.4414860000000 1.0
C      1  0.4610000000000  0.4465350000000  0.4675500000000 1.0
C      1  0.5017130000000  0.5215200000000  0.5912390000000 1.0
C      1  0.4248220000000  0.4615520000000  0.4909880000000 1.0
C      1  0.4406560000000  0.5073860000000  0.6097440000000 1.0
C      1  0.4682450000000  0.4293910000000  0.4069240000000 1.0
C      1  0.5501560000000  0.5081090000000  0.4151620000000 1.0
C      1  0.5212040000000  0.5253620000000  0.4830340000000 1.0
C      1  0.5660100000000  0.5557230000000  0.5656410000000 1.0
C      1  0.5594680000000  0.5107400000000  0.5773440000000 1.0
C      1  0.4503540000000  0.6279680000000  0.5200840000000 1.0
C      1  0.5529010000000  0.5702340000000  0.5866900000000 1.0
C      1  0.5168770000000  0.4599020000000  0.4531030000000 1.0
C      1  0.4244560000000  0.5045280000000  0.4732120000000 1.0
C      1  0.4880340000000  0.3938930000000  0.5211860000000 1.0
C      1  0.5490340000000  0.5259130000000  0.5267470000000 1.0
C      1  0.4826190000000  0.4880510000000  0.4409350000000 1.0
C      1  0.5213660000000  0.4684070000000  0.5928280000000 1.0
C      1  0.4401300000000  0.3924720000000  0.5172510000000 1.0
C      1  0.4257000000000  0.4564160000000  0.4398980000000 1.0
C      1  0.5820380000000  0.4343220000000  0.4282880000000 1.0
C      1  0.6119660000000  0.5162250000000  0.5585410000000 1.0
C      1  0.4900690000000  0.4407390000000  0.4997240000000 1.0
C      1  0.5541280000000  0.4354390000000  0.4691540000000 1.0
C      1  0.4921980000000  0.4721020000000  0.4143470000000 1.0
C      1  0.3950540000000  0.4962510000000  0.4742600000000 1.0
C      1  0.4949380000000  0.6092120000000  0.4593940000000 1.0
C      1  0.5135620000000  0.4743690000000  0.5667420000000 1.0
C      1  0.5745280000000  0.4029930000000  0.5659490000000 1.0
C      1  0.5974480000000  0.5179880000000  0.4659230000000 1.0
C      1  0.4529660000000  0.3889860000000  0.4610730000000 1.0
C      1  0.4442110000000  0.4693850000000  0.4233980000000 1.0
C      1  0.5171560000000  0.5163380000000  0.6368560000000 1.0
C      1  0.4352960000000  0.6341060000000  0.5868270000000 1.0
C      1  0.4348620000000  0.4525730000000  0.4666830000000 1.0
C      1  0.5720470000000  0.3935450000000  0.4535260000000 1.0
C      1  0.4619030000000  0.4361340000000  0.5952960000000 1.0
C      1  0.4343110000000  0.4030100000000  0.4386060000000 1.0
END
