TITL C-627110-360-1744 24809.3341574885 125000 -1166.85705623568 0 0 190 (C1) n - 1
REM
REM in /home/nfs/bkarasulu/CARBON/AIRSS/Generating-Clusters/LCBOP/Only-C1/SD-CG/FIRE-CG
REM
REM
REM
REM
REM
REM ./C.cell (11c1c37f851c82e70ff6c80c92926a4b)
REM AIRSS Version 0.9.1 bugfix July 2018 build 013d7b7c2542+ Fri, 06 Jul 2018 19:26:36 +0100
REM compiler GCC version 9.2.1 20190827 (Red Hat 9.2.1-1)
REM options -cpp -mtune=generic -march=x86-64 -g -O0 -fpre-include=/usr/include/finclude/math-vector-fortran.h
REM seed 45212530 464740955 -1707305358 244922477 1151535588 -1300256267 -815978738 901764057 -929295950 1985179075 -126146523 -677787565 -976339166 1535119741 1376791127 1643333540 -436105853 -115018958 1674365757 -709082268 1874463193 189437094 -449871841 921236244 925671707 1435453302 483569118 1024956033 1971971466 -1973918229 -1715037809 -607192399 1990095336
REM
CELL 1.54180   50.00000   50.00000   50.00000   90.00000   90.00000   90.00000
LATT -1
SFAC C  
C      1  0.5009090000000  0.4123580000000  0.5065350000000 1.0
C      1  0.3821710000000  0.4731580000000  0.5190160000000 1.0
C      1  0.3900220000000  0.4202890000000  0.4783280000000 1.0
C      1  0.5669990000000  0.5069960000000  0.5457150000000 1.0
C      1  0.4834180000000  0.4597330000000  0.5970570000000 1.0
C      1  0.5811590000000  0.5750080000000  0.5402200000000 1.0
C      1  0.4679400000000  0.3896040000000  0.4757220000000 1.0
C      1  0.5213460000000  0.4252870000000  0.5713000000000 1.0
C      1  0.3799760000000  0.5519120000000  0.5145440000000 1.0
C      1  0.4715720000000  0.4134530000000  0.5153970000000 1.0
C      1  0.4460850000000  0.4232590000000  0.5591780000000 1.0
C      1  0.4423250000000  0.4431310000000  0.4064570000000 1.0
C      1  0.4141950000000  0.4619440000000  0.4682360000000 1.0
C      1  0.4636920000000  0.5958030000000  0.4452430000000 1.0
C      1  0.5166970000000  0.6168030000000  0.5061580000000 1.0
C      1  0.4680000000000  0.4025020000000  0.4278610000000 1.0
C      1  0.4024330000000  0.5057700000000  0.4235170000000 1.0
C      1  0.5608890000000  0.4659110000000  0.4607190000000 1.0
C      1  0.5137500000000  0.3990230000000  0.5311620000000 1.0
C      1  0.4757270000000  0.5792210000000  0.3980330000000 1.0
C      1  0.4553530000000  0.4018810000000  0.4534620000000 1.0
C      1  0.5738340000000  0.4710400000000  0.5065050000000 1.0
C      1  0.5335740000000  0.5357650000000  0.5948270000000 1.0
C      1  0.4526660000000  0.5455020000000  0.4327700000000 1.0
C      1  0.6180800000000  0.4636570000000  0.4583960000000 1.0
C      1  0.6152670000000  0.5443550000000  0.5573530000000 1.0
C      1  0.4189990000000  0.4726750000000  0.5598730000000 1.0
C      1  0.6162290000000  0.4523410000000  0.4851820000000 1.0
C      1  0.6211860000000  0.4103690000000  0.5727780000000 1.0
C      1  0.4207940000000  0.5136200000000  0.4745200000000 1.0
C      1  0.4465380000000  0.5369590000000  0.6179000000000 1.0
C      1  0.5589730000000  0.5934930000000  0.5322650000000 1.0
C      1  0.4735420000000  0.5741660000000  0.5090910000000 1.0
C      1  0.3772550000000  0.5303580000000  0.5306270000000 1.0
C      1  0.5537280000000  0.4790310000000  0.6139540000000 1.0
C      1  0.5085240000000  0.4343440000000  0.4400470000000 1.0
C      1  0.5306980000000  0.5405600000000  0.4463860000000 1.0
C      1  0.4370600000000  0.5349380000000  0.5631220000000 1.0
C      1  0.5537500000000  0.4923780000000  0.4539590000000 1.0
C      1  0.4973060000000  0.5340060000000  0.3821980000000 1.0
C      1  0.6210550000000  0.5295590000000  0.4612960000000 1.0
C      1  0.6281050000000  0.5367130000000  0.5328300000000 1.0
C      1  0.4131950000000  0.5750240000000  0.5621530000000 1.0
C      1  0.4814050000000  0.5031440000000  0.6346740000000 1.0
C      1  0.4683750000000  0.4825590000000  0.5892920000000 1.0
C      1  0.5894630000000  0.4883410000000  0.5487710000000 1.0
C      1  0.4908680000000  0.4615210000000  0.5333360000000 1.0
C      1  0.5438440000000  0.4699230000000  0.3865540000000 1.0
C      1  0.4931700000000  0.4644330000000  0.3964730000000 1.0
C      1  0.5421360000000  0.5951810000000  0.4397460000000 1.0
C      1  0.4550940000000  0.5093660000000  0.6239350000000 1.0
C      1  0.4649840000000  0.5796480000000  0.5965830000000 1.0
C      1  0.4261270000000  0.4422000000000  0.5621660000000 1.0
C      1  0.5685800000000  0.4786110000000  0.3995340000000 1.0
C      1  0.5339180000000  0.5732880000000  0.3985410000000 1.0
C      1  0.4248390000000  0.4957660000000  0.4055220000000 1.0
C      1  0.4407910000000  0.4254090000000  0.4595480000000 1.0
C      1  0.4658670000000  0.4279490000000  0.4140370000000 1.0
C      1  0.6047460000000  0.4085080000000  0.5270820000000 1.0
C      1  0.5800470000000  0.4338120000000  0.5598470000000 1.0
C      1  0.4593230000000  0.4704620000000  0.4969410000000 1.0
C      1  0.5249670000000  0.4818450000000  0.6168690000000 1.0
C      1  0.4066630000000  0.5133980000000  0.5993220000000 1.0
C      1  0.4208970000000  0.4898280000000  0.5905740000000 1.0
C      1  0.4975080000000  0.4853360000000  0.4427870000000 1.0
C      1  0.4318360000000  0.5344460000000  0.4905790000000 1.0
C      1  0.4765160000000  0.5515210000000  0.3920770000000 1.0
C      1  0.4677570000000  0.5568980000000  0.6135400000000 1.0
C      1  0.5041780000000  0.5705480000000  0.4657730000000 1.0
C      1  0.4779970000000  0.5045590000000  0.5734830000000 1.0
C      1  0.5438650000000  0.4894600000000  0.5410830000000 1.0
C      1  0.4454800000000  0.5713880000000  0.4457870000000 1.0
C      1  0.3986670000000  0.5346290000000  0.4254310000000 1.0
C      1  0.4542780000000  0.5394200000000  0.4049530000000 1.0
C      1  0.4782150000000  0.5981980000000  0.4194940000000 1.0
C      1  0.4195680000000  0.5604370000000  0.4876580000000 1.0
C      1  0.5034080000000  0.6106040000000  0.4170790000000 1.0
C      1  0.4835930000000  0.5270630000000  0.4636590000000 1.0
C      1  0.6234400000000  0.5437610000000  0.4837620000000 1.0
C      1  0.4755250000000  0.6037170000000  0.4732680000000 1.0
C      1  0.5483340000000  0.5372490000000  0.4679220000000 1.0
C      1  0.6167640000000  0.5504620000000  0.5101880000000 1.0
C      1  0.4005460000000  0.5562160000000  0.4418760000000 1.0
C      1  0.4705030000000  0.6035370000000  0.5492750000000 1.0
C      1  0.5695860000000  0.5875130000000  0.4357170000000 1.0
C      1  0.5530260000000  0.5527740000000  0.4071410000000 1.0
C      1  0.4230980000000  0.5218090000000  0.5429800000000 1.0
C      1  0.5479450000000  0.5425110000000  0.5238620000000 1.0
C      1  0.5806350000000  0.4518560000000  0.5822700000000 1.0
C      1  0.4204660000000  0.5391280000000  0.6036180000000 1.0
C      1  0.4407270000000  0.5023890000000  0.4569510000000 1.0
C      1  0.4941240000000  0.3909180000000  0.4267190000000 1.0
C      1  0.5272310000000  0.5957790000000  0.4155200000000 1.0
C      1  0.3962350000000  0.5129460000000  0.5419080000000 1.0
C      1  0.5588050000000  0.5232280000000  0.5889610000000 1.0
C      1  0.4755800000000  0.4947780000000  0.3668740000000 1.0
C      1  0.4756910000000  0.4331100000000  0.5920410000000 1.0
C      1  0.5686870000000  0.5497260000000  0.5065750000000 1.0
C      1  0.5959400000000  0.4756800000000  0.5237090000000 1.0
C      1  0.5922340000000  0.4338860000000  0.4875090000000 1.0
C      1  0.5111690000000  0.4631330000000  0.6002110000000 1.0
C      1  0.4457440000000  0.4893930000000  0.6044610000000 1.0
C      1  0.5091270000000  0.5045760000000  0.6258570000000 1.0
C      1  0.5480490000000  0.5099480000000  0.4760420000000 1.0
C      1  0.5115730000000  0.4626850000000  0.5151760000000 1.0
C      1  0.5425480000000  0.5024900000000  0.4287780000000 1.0
C      1  0.4738530000000  0.4177360000000  0.5672770000000 1.0
C      1  0.4966690000000  0.3940740000000  0.4817350000000 1.0
C      1  0.5014080000000  0.5065370000000  0.3744970000000 1.0
C      1  0.4908540000000  0.4439360000000  0.4167070000000 1.0
C      1  0.3875810000000  0.4933050000000  0.4450410000000 1.0
C      1  0.4197830000000  0.5685810000000  0.4594340000000 1.0
C      1  0.5278740000000  0.5873790000000  0.4633420000000 1.0
C      1  0.4530140000000  0.4507170000000  0.4511990000000 1.0
C      1  0.5256930000000  0.4521500000000  0.5782660000000 1.0
C      1  0.4420500000000  0.5069900000000  0.5271490000000 1.0
C      1  0.5402580000000  0.3884920000000  0.5232580000000 1.0
C      1  0.4374900000000  0.4741080000000  0.4553150000000 1.0
C      1  0.5201570000000  0.5397160000000  0.5249960000000 1.0
C      1  0.5452360000000  0.4422840000000  0.3798650000000 1.0
C      1  0.5875420000000  0.4100130000000  0.5043410000000 1.0
C      1  0.4116510000000  0.5800870000000  0.5352800000000 1.0
C      1  0.4031980000000  0.5681140000000  0.5105470000000 1.0
C      1  0.4596460000000  0.5229300000000  0.4489680000000 1.0
C      1  0.6083210000000  0.4825430000000  0.4387850000000 1.0
C      1  0.5661600000000  0.4527360000000  0.6077330000000 1.0
C      1  0.5694000000000  0.5303730000000  0.5632610000000 1.0
C      1  0.5918520000000  0.5626200000000  0.5157930000000 1.0
C      1  0.4677710000000  0.5502740000000  0.5222340000000 1.0
C      1  0.4800560000000  0.4848470000000  0.4869070000000 1.0
C      1  0.5037130000000  0.5020970000000  0.5647580000000 1.0
C      1  0.4676700000000  0.5951200000000  0.5747000000000 1.0
C      1  0.5168600000000  0.4076360000000  0.4313150000000 1.0
C      1  0.3709790000000  0.4475720000000  0.5153000000000 1.0
C      1  0.6420340000000  0.5126750000000  0.5276540000000 1.0
C      1  0.5299770000000  0.5036700000000  0.4969370000000 1.0
C      1  0.3947270000000  0.4838120000000  0.5427770000000 1.0
C      1  0.4646970000000  0.5288380000000  0.5652000000000 1.0
C      1  0.5164890000000  0.4928100000000  0.4261020000000 1.0
C      1  0.4413180000000  0.4712180000000  0.3992050000000 1.0
C      1  0.5582910000000  0.5584420000000  0.4828850000000 1.0
C      1  0.5376570000000  0.4709500000000  0.5614310000000 1.0
C      1  0.4823270000000  0.5762870000000  0.4822480000000 1.0
C      1  0.4563240000000  0.5261110000000  0.5075670000000 1.0
C      1  0.5901130000000  0.4779140000000  0.4165860000000 1.0
C      1  0.5709590000000  0.4537590000000  0.4838950000000 1.0
C      1  0.4743490000000  0.6006960000000  0.5215820000000 1.0
C      1  0.4961100000000  0.4720930000000  0.4671650000000 1.0
C      1  0.3948510000000  0.5014040000000  0.4723450000000 1.0
C      1  0.5165040000000  0.4814960000000  0.3850850000000 1.0
C      1  0.4436870000000  0.4819230000000  0.5405010000000 1.0
C      1  0.5597370000000  0.4344940000000  0.5392380000000 1.0
C      1  0.4224180000000  0.5537540000000  0.5785590000000 1.0
C      1  0.5390590000000  0.4058040000000  0.4142990000000 1.0
C      1  0.4796830000000  0.5452240000000  0.5476330000000 1.0
C      1  0.3831850000000  0.4897930000000  0.4955030000000 1.0
C      1  0.5862760000000  0.4804360000000  0.5769180000000 1.0
C      1  0.5407280000000  0.5996240000000  0.5092380000000 1.0
C      1  0.4253750000000  0.4328670000000  0.5063390000000 1.0
C      1  0.5450210000000  0.4321480000000  0.5163320000000 1.0
C      1  0.5874010000000  0.5528120000000  0.5594860000000 1.0
C      1  0.4672520000000  0.4754270000000  0.3860120000000 1.0
C      1  0.4821870000000  0.5153470000000  0.4919790000000 1.0
C      1  0.5074830000000  0.5476760000000  0.5488720000000 1.0
C      1  0.4945390000000  0.5500000000000  0.6205940000000 1.0
C      1  0.3717790000000  0.4275660000000  0.4971980000000 1.0
C      1  0.5043510000000  0.5447640000000  0.4546850000000 1.0
C      1  0.5429030000000  0.5309150000000  0.4225890000000 1.0
C      1  0.5451750000000  0.5836250000000  0.4852990000000 1.0
C      1  0.5308090000000  0.4836990000000  0.5164100000000 1.0
C      1  0.5092630000000  0.5224100000000  0.5047500000000 1.0
C      1  0.4873050000000  0.6176110000000  0.4991990000000 1.0
C      1  0.5086990000000  0.4463850000000  0.4671740000000 1.0
C      1  0.5690370000000  0.4972330000000  0.5965270000000 1.0
C      1  0.4665240000000  0.4668600000000  0.5412680000000 1.0
C      1  0.4168600000000  0.4328280000000  0.4769590000000 1.0
C      1  0.3666820000000  0.4763790000000  0.4398840000000 1.0
C      1  0.6410250000000  0.4883830000000  0.5158010000000 1.0
C      1  0.6149640000000  0.5094340000000  0.4448670000000 1.0
C      1  0.5627950000000  0.3947390000000  0.5083930000000 1.0
C      1  0.5155450000000  0.5310310000000  0.6164310000000 1.0
C      1  0.5016320000000  0.4102100000000  0.5565230000000 1.0
C      1  0.5755540000000  0.5663590000000  0.4191620000000 1.0
C      1  0.5470990000000  0.4186160000000  0.3922050000000 1.0
C      1  0.6027190000000  0.4172360000000  0.5539080000000 1.0
C      1  0.4378010000000  0.5193380000000  0.3947660000000 1.0
C      1  0.4558690000000  0.3956060000000  0.5013230000000 1.0
C      1  0.5218550000000  0.5500440000000  0.5729330000000 1.0
C      1  0.5183810000000  0.4374510000000  0.5005340000000 1.0
C      1  0.6205560000000  0.4700080000000  0.5092550000000 1.0
END
