TITL C-627107-135-2090 0.0263586750571951 125000 -149.352487248317 0 0 26 (C1) n - 1
REM
REM in /home/nfs/bkarasulu/CARBON/AIRSS/Generating-Clusters/LCBOP/Only-C1/SD-CG/FIRE-CG
REM
REM
REM
REM
REM
REM ./C.cell (11c1c37f851c82e70ff6c80c92926a4b)
REM AIRSS Version 0.9.1 bugfix July 2018 build 013d7b7c2542+ Fri, 06 Jul 2018 19:26:36 +0100
REM compiler GCC version 9.2.1 20190827 (Red Hat 9.2.1-1)
REM options -cpp -mtune=generic -march=x86-64 -g -O0 -fpre-include=/usr/include/finclude/math-vector-fortran.h
REM seed -972087469 2146023336 1172381016 1689257678 1461932966 -1209431551 -807228647 -57274831 -1893561401 -245248833 -1212799889 437734443 1012026137 1067034849 -819587436 -1286073995 -386464168 257375321 -2068476298 -178832086 -594931456 -951076245 306664636 1059049733 1722086800 1247605444 -759471839 -1828149422 260157821 -741473128 1328713994 437976425 228267448
REM
CELL 1.54180   50.00000   50.00000   50.00000   90.00000   90.00000   90.00000
LATT -1
SFAC C  
C      1  0.5498170000000  0.5346340000000  0.5339720000000 1.0
C      1  0.4920700000000  0.4814570000000  0.4614240000000 1.0
C      1  0.4356460000000  0.4586810000000  0.5004390000000 1.0
C      1  0.4906800000000  0.4106310000000  0.5157260000000 1.0
C      1  0.4494290000000  0.5031180000000  0.4848480000000 1.0
C      1  0.4872360000000  0.5129750000000  0.5460500000000 1.0
C      1  0.5098790000000  0.4981970000000  0.5382420000000 1.0
C      1  0.5020580000000  0.5568600000000  0.4800290000000 1.0
C      1  0.4720520000000  0.5333250000000  0.5376290000000 1.0
C      1  0.5507320000000  0.4168870000000  0.4761100000000 1.0
C      1  0.5290540000000  0.4226280000000  0.4893870000000 1.0
C      1  0.5345200000000  0.5115680000000  0.5387650000000 1.0
C      1  0.4774240000000  0.5444450000000  0.4885610000000 1.0
C      1  0.5746270000000  0.5376860000000  0.5449590000000 1.0
C      1  0.5039290000000  0.5269830000000  0.4420550000000 1.0
C      1  0.5067710000000  0.4737850000000  0.5248920000000 1.0
C      1  0.4813060000000  0.4679100000000  0.4840850000000 1.0
C      1  0.4980790000000  0.4569410000000  0.5041570000000 1.0
C      1  0.4873810000000  0.5087700000000  0.4557410000000 1.0
C      1  0.4685900000000  0.5211350000000  0.4742500000000 1.0
C      1  0.4543620000000  0.4757110000000  0.4904250000000 1.0
C      1  0.5215290000000  0.5632590000000  0.4991000000000 1.0
C      1  0.4684810000000  0.5473470000000  0.5150680000000 1.0
C      1  0.5058180000000  0.4296910000000  0.5032370000000 1.0
C      1  0.5098660000000  0.5509350000000  0.4533740000000 1.0
C      1  0.5386640000000  0.5544430000000  0.5174750000000 1.0
END
