TITL C-627108-131-2074 3.53056104222114e-05 125000 -343.088031542497 0 0 57 (C1) n - 1
REM
REM in /home/nfs/bkarasulu/CARBON/AIRSS/Generating-Clusters/LCBOP/Only-C1/SD-CG/FIRE-CG
REM
REM
REM
REM
REM
REM ./C.cell (11c1c37f851c82e70ff6c80c92926a4b)
REM AIRSS Version 0.9.1 bugfix July 2018 build 013d7b7c2542+ Fri, 06 Jul 2018 19:26:36 +0100
REM compiler GCC version 9.2.1 20190827 (Red Hat 9.2.1-1)
REM options -cpp -mtune=generic -march=x86-64 -g -O0 -fpre-include=/usr/include/finclude/math-vector-fortran.h
REM seed 1162615478 -254146289 285232891 -1133206989 2041498029 -1247720313 2143063895 -96075979 -1062371717 1589654380 463412922 553269274 -1997956667 -1561876793 722104714 -309190603 -607667818 -1606228830 373436210 -1098220543 651606425 -1999686614 431841392 -287893160 1833992191 -184632048 -747405826 214402615 -1504252648 -1785544769 2109799729 -888205896 -1925463972
REM
CELL 1.54180   50.00000   50.00000   50.00000   90.00000   90.00000   90.00000
LATT -1
SFAC C  
C      1  0.4570420000000  0.4700130000000  0.4315850000000 1.0
C      1  0.4823370000000  0.5114020000000  0.4258950000000 1.0
C      1  0.5382080000000  0.5387720000000  0.4578140000000 1.0
C      1  0.3982380000000  0.4948140000000  0.5246400000000 1.0
C      1  0.4677240000000  0.5213620000000  0.4476810000000 1.0
C      1  0.5397530000000  0.5640200000000  0.4450300000000 1.0
C      1  0.4144310000000  0.4922570000000  0.5459360000000 1.0
C      1  0.5139760000000  0.4386170000000  0.4855150000000 1.0
C      1  0.5746500000000  0.4376140000000  0.5635210000000 1.0
C      1  0.5109340000000  0.5502410000000  0.4098910000000 1.0
C      1  0.4003120000000  0.4997760000000  0.4983360000000 1.0
C      1  0.4474410000000  0.4610690000000  0.4548200000000 1.0
C      1  0.5297680000000  0.4614360000000  0.4890220000000 1.0
C      1  0.4397420000000  0.5287020000000  0.4862520000000 1.0
C      1  0.5573580000000  0.5444080000000  0.5033090000000 1.0
C      1  0.6281470000000  0.4956600000000  0.5223930000000 1.0
C      1  0.5282010000000  0.4828520000000  0.5409760000000 1.0
C      1  0.5018090000000  0.4183510000000  0.4978330000000 1.0
C      1  0.5873470000000  0.4973440000000  0.5818890000000 1.0
C      1  0.5024960000000  0.4686250000000  0.4156340000000 1.0
C      1  0.4605810000000  0.5066510000000  0.5575820000000 1.0
C      1  0.6103880000000  0.4894730000000  0.5404340000000 1.0
C      1  0.4948040000000  0.6013890000000  0.4940120000000 1.0
C      1  0.4787550000000  0.4834860000000  0.4198410000000 1.0
C      1  0.5717970000000  0.4623850000000  0.5522660000000 1.0
C      1  0.4849290000000  0.5413780000000  0.5367100000000 1.0
C      1  0.4884590000000  0.5505380000000  0.5102450000000 1.0
C      1  0.4912580000000  0.5771280000000  0.5028310000000 1.0
C      1  0.4418870000000  0.4867080000000  0.5494870000000 1.0
C      1  0.5072180000000  0.5247730000000  0.4217720000000 1.0
C      1  0.5207030000000  0.5069690000000  0.5258730000000 1.0
C      1  0.4887780000000  0.5004020000000  0.5613980000000 1.0
C      1  0.5509860000000  0.4594290000000  0.5074580000000 1.0
C      1  0.4586660000000  0.5340390000000  0.5469070000000 1.0
C      1  0.5077840000000  0.4788370000000  0.5610220000000 1.0
C      1  0.5274640000000  0.5178170000000  0.4413330000000 1.0
C      1  0.4183080000000  0.5108870000000  0.4816910000000 1.0
C      1  0.4373760000000  0.5463190000000  0.5335700000000 1.0
C      1  0.4343960000000  0.5473200000000  0.5068300000000 1.0
C      1  0.4892110000000  0.4100150000000  0.5198160000000 1.0
C      1  0.5234740000000  0.4871530000000  0.4785160000000 1.0
C      1  0.4901550000000  0.5284770000000  0.4912910000000 1.0
C      1  0.5178360000000  0.5123350000000  0.4955600000000 1.0
C      1  0.4661720000000  0.5250960000000  0.4753650000000 1.0
C      1  0.5389590000000  0.5331670000000  0.4857450000000 1.0
C      1  0.5507660000000  0.4677150000000  0.5342290000000 1.0
C      1  0.5265280000000  0.5691900000000  0.4217660000000 1.0
C      1  0.4608060000000  0.4402650000000  0.5478840000000 1.0
C      1  0.5742940000000  0.5532520000000  0.5210300000000 1.0
C      1  0.4494740000000  0.4630970000000  0.5074250000000 1.0
C      1  0.5028060000000  0.5207720000000  0.5442320000000 1.0
C      1  0.4747230000000  0.4186240000000  0.5405460000000 1.0
C      1  0.5900080000000  0.4833120000000  0.5585520000000 1.0
C      1  0.4466410000000  0.4588630000000  0.4813320000000 1.0
C      1  0.4510500000000  0.4634660000000  0.5355770000000 1.0
C      1  0.5244050000000  0.4708450000000  0.4313210000000 1.0
C      1  0.5282360000000  0.4910950000000  0.4505760000000 1.0
END
