TITL C-627106-156-1038 -2389.96446311314 125000 -885.911245654098 0 0 145 (C1) n - 1
REM
REM in /home/nfs/bkarasulu/CARBON/AIRSS/Generating-Clusters/LCBOP/Only-C1/SD-CG/FIRE-CG
REM
REM
REM
REM
REM
REM ./C.cell (11c1c37f851c82e70ff6c80c92926a4b)
REM AIRSS Version 0.9.1 bugfix July 2018 build 013d7b7c2542+ Fri, 06 Jul 2018 19:26:36 +0100
REM compiler GCC version 9.2.1 20190827 (Red Hat 9.2.1-1)
REM options -cpp -mtune=generic -march=x86-64 -g -O0 -fpre-include=/usr/include/finclude/math-vector-fortran.h
REM seed -714221233 769106640 869853547 1546767371 -1857256330 -1847043598 -1049432105 -267793633 1622822903 701002756 218743304 -996467947 1979423086 10893938 -2127330629 279895002 259542356 902492157 1026654131 -449443917 -852575828 191917064 2077526985 -1761569829 2099007610 1723728971 -86607178 1906145072 -2129994911 -1878948217 2096480382 1956867140 -540485244
REM
CELL 1.54180   50.00000   50.00000   50.00000   90.00000   90.00000   90.00000
LATT -1
SFAC C  
C      1  0.5595890000000  0.4023620000000  0.4880870000000 1.0
C      1  0.5401620000000  0.4610490000000  0.4457520000000 1.0
C      1  0.4837530000000  0.4945040000000  0.5747830000000 1.0
C      1  0.4712040000000  0.4694680000000  0.6388220000000 1.0
C      1  0.5182490000000  0.4918780000000  0.4895740000000 1.0
C      1  0.4177670000000  0.5807750000000  0.4682990000000 1.0
C      1  0.4277180000000  0.4180000000000  0.5420820000000 1.0
C      1  0.4440480000000  0.5820970000000  0.4286910000000 1.0
C      1  0.4301840000000  0.3905930000000  0.4948910000000 1.0
C      1  0.4991040000000  0.5879980000000  0.4935710000000 1.0
C      1  0.4355620000000  0.5273960000000  0.4800230000000 1.0
C      1  0.5909340000000  0.4874960000000  0.4556120000000 1.0
C      1  0.4758130000000  0.4649070000000  0.4840240000000 1.0
C      1  0.4161480000000  0.5708580000000  0.4945550000000 1.0
C      1  0.4834790000000  0.4049880000000  0.5606550000000 1.0
C      1  0.4501360000000  0.4668280000000  0.6569460000000 1.0
C      1  0.4417740000000  0.4992100000000  0.5277460000000 1.0
C      1  0.4966530000000  0.5373580000000  0.5521210000000 1.0
C      1  0.6006280000000  0.4804750000000  0.5243680000000 1.0
C      1  0.4878570000000  0.5273290000000  0.5285400000000 1.0
C      1  0.6045990000000  0.6387310000000  0.5679830000000 1.0
C      1  0.4689350000000  0.5708380000000  0.4228920000000 1.0
C      1  0.4621050000000  0.5383390000000  0.4804230000000 1.0
C      1  0.4992650000000  0.4629750000000  0.3779890000000 1.0
C      1  0.3468490000000  0.5385880000000  0.5274980000000 1.0
C      1  0.5215790000000  0.4490200000000  0.3899320000000 1.0
C      1  0.5310290000000  0.5817110000000  0.4546250000000 1.0
C      1  0.5663920000000  0.4888650000000  0.4706860000000 1.0
C      1  0.4823030000000  0.4805100000000  0.5505490000000 1.0
C      1  0.5512420000000  0.5404930000000  0.3843580000000 1.0
C      1  0.5656360000000  0.4141310000000  0.5610280000000 1.0
C      1  0.4302110000000  0.5254900000000  0.5254420000000 1.0
C      1  0.5555030000000  0.4265470000000  0.4748390000000 1.0
C      1  0.5852310000000  0.5044190000000  0.5622570000000 1.0
C      1  0.5772780000000  0.5325690000000  0.4685790000000 1.0
C      1  0.4981650000000  0.4985640000000  0.6670990000000 1.0
C      1  0.4658390000000  0.4231230000000  0.5756290000000 1.0
C      1  0.6093450000000  0.4987730000000  0.4760020000000 1.0
C      1  0.4273700000000  0.4067710000000  0.5178120000000 1.0
C      1  0.4401160000000  0.4253970000000  0.5647500000000 1.0
C      1  0.5673480000000  0.5510600000000  0.5437820000000 1.0
C      1  0.5103900000000  0.4424680000000  0.5300560000000 1.0
C      1  0.5545270000000  0.5705740000000  0.4664200000000 1.0
C      1  0.5573750000000  0.5740430000000  0.5574280000000 1.0
C      1  0.4300070000000  0.5011230000000  0.4715250000000 1.0
C      1  0.4841080000000  0.4060070000000  0.5318690000000 1.0
C      1  0.4688230000000  0.5035950000000  0.3931180000000 1.0
C      1  0.5747940000000  0.4690820000000  0.5337640000000 1.0
C      1  0.3915440000000  0.4669940000000  0.4733160000000 1.0
C      1  0.5730860000000  0.5144880000000  0.4171000000000 1.0
C      1  0.5705850000000  0.4051120000000  0.5139950000000 1.0
C      1  0.5318220000000  0.4969630000000  0.5794690000000 1.0
C      1  0.5077350000000  0.5453350000000  0.4238180000000 1.0
C      1  0.5438480000000  0.4518230000000  0.4726530000000 1.0
C      1  0.4308670000000  0.5251080000000  0.4172150000000 1.0
C      1  0.4881840000000  0.6047700000000  0.4519230000000 1.0
C      1  0.4684840000000  0.4569060000000  0.5106790000000 1.0
C      1  0.5717700000000  0.5532390000000  0.4505510000000 1.0
C      1  0.4985160000000  0.4236270000000  0.4285330000000 1.0
C      1  0.5110580000000  0.4319170000000  0.5901670000000 1.0
C      1  0.4629890000000  0.6036200000000  0.4674390000000 1.0
C      1  0.3892780000000  0.5315810000000  0.4499920000000 1.0
C      1  0.6201730000000  0.6593720000000  0.5713030000000 1.0
C      1  0.5374540000000  0.4982140000000  0.5323570000000 1.0
C      1  0.5403350000000  0.3817200000000  0.4855720000000 1.0
C      1  0.6060960000000  0.5033800000000  0.5420920000000 1.0
C      1  0.5401500000000  0.5122980000000  0.5566660000000 1.0
C      1  0.6128010000000  0.4816970000000  0.4988220000000 1.0
C      1  0.5516620000000  0.5144140000000  0.3961580000000 1.0
C      1  0.3737760000000  0.5420560000000  0.5241790000000 1.0
C      1  0.5799420000000  0.4880710000000  0.4284480000000 1.0
C      1  0.5091530000000  0.5569310000000  0.5652380000000 1.0
C      1  0.5752450000000  0.5444670000000  0.4238260000000 1.0
C      1  0.5279100000000  0.4194620000000  0.5296260000000 1.0
C      1  0.5100450000000  0.3967390000000  0.5216030000000 1.0
C      1  0.5432790000000  0.4666300000000  0.3983520000000 1.0
C      1  0.5336770000000  0.4492130000000  0.5889630000000 1.0
C      1  0.5654950000000  0.5580950000000  0.4001550000000 1.0
C      1  0.4258990000000  0.5903800000000  0.5127400000000 1.0
C      1  0.4923210000000  0.4877830000000  0.4799710000000 1.0
C      1  0.5116260000000  0.5976570000000  0.4693920000000 1.0
C      1  0.4772280000000  0.5459720000000  0.5074590000000 1.0
C      1  0.5186610000000  0.3791910000000  0.5015980000000 1.0
C      1  0.5311140000000  0.5179940000000  0.4871570000000 1.0
C      1  0.5326760000000  0.4942780000000  0.3996380000000 1.0
C      1  0.5130770000000  0.4918020000000  0.4208440000000 1.0
C      1  0.4305110000000  0.4644900000000  0.6739340000000 1.0
C      1  0.4078500000000  0.5294990000000  0.4305310000000 1.0
C      1  0.4720000000000  0.3905570000000  0.4599150000000 1.0
C      1  0.5550920000000  0.4140250000000  0.5359120000000 1.0
C      1  0.4822700000000  0.4379860000000  0.5948230000000 1.0
C      1  0.4877250000000  0.4007550000000  0.4407580000000 1.0
C      1  0.4462980000000  0.4413280000000  0.4515280000000 1.0
C      1  0.4168570000000  0.5390140000000  0.5002560000000 1.0
C      1  0.5132480000000  0.4688570000000  0.4382520000000 1.0
C      1  0.5062240000000  0.4992190000000  0.5915860000000 1.0
C      1  0.5526780000000  0.5607120000000  0.4951620000000 1.0
C      1  0.4393890000000  0.5924800000000  0.4545840000000 1.0
C      1  0.4712240000000  0.4506850000000  0.4597740000000 1.0
C      1  0.4914560000000  0.5880160000000  0.4286050000000 1.0
C      1  0.5562300000000  0.5145260000000  0.4744890000000 1.0
C      1  0.5887740000000  0.6177270000000  0.5646660000000 1.0
C      1  0.4265310000000  0.4311210000000  0.4378940000000 1.0
C      1  0.4759770000000  0.5313440000000  0.4564260000000 1.0
C      1  0.5088320000000  0.4068780000000  0.5753320000000 1.0
C      1  0.5309170000000  0.5722680000000  0.5666250000000 1.0
C      1  0.3664660000000  0.4766820000000  0.4744140000000 1.0
C      1  0.5024870000000  0.5006120000000  0.6191430000000 1.0
C      1  0.3895350000000  0.5540880000000  0.5448220000000 1.0
C      1  0.5720510000000  0.4766290000000  0.5633190000000 1.0
C      1  0.5730690000000  0.5966460000000  0.5614310000000 1.0
C      1  0.5143740000000  0.4259930000000  0.4051150000000 1.0
C      1  0.4713450000000  0.5979950000000  0.4951660000000 1.0
C      1  0.4592570000000  0.5632210000000  0.5260710000000 1.0
C      1  0.6141990000000  0.5272910000000  0.5294930000000 1.0
C      1  0.3762960000000  0.5252020000000  0.4746650000000 1.0
C      1  0.4831260000000  0.4339860000000  0.5213350000000 1.0
C      1  0.3592260000000  0.5026560000000  0.4747540000000 1.0
C      1  0.5273140000000  0.5452320000000  0.4967730000000 1.0
C      1  0.4730690000000  0.4522820000000  0.6167930000000 1.0
C      1  0.4588190000000  0.5232620000000  0.4110000000000 1.0
C      1  0.5740600000000  0.5528840000000  0.5152500000000 1.0
C      1  0.4853310000000  0.5051280000000  0.4592870000000 1.0
C      1  0.5505500000000  0.4758250000000  0.5193850000000 1.0
C      1  0.4155770000000  0.4787090000000  0.4718200000000 1.0
C      1  0.5655540000000  0.5258310000000  0.5579280000000 1.0
C      1  0.4540620000000  0.5895170000000  0.5159440000000 1.0
C      1  0.4538500000000  0.3898260000000  0.4795450000000 1.0
C      1  0.5060210000000  0.4658800000000  0.5446440000000 1.0
C      1  0.4384710000000  0.5489750000000  0.5407310000000 1.0
C      1  0.5166640000000  0.5721240000000  0.4310260000000 1.0
C      1  0.5593220000000  0.4661920000000  0.4236720000000 1.0
C      1  0.5996320000000  0.5393200000000  0.5083510000000 1.0
C      1  0.5478870000000  0.4724750000000  0.5800210000000 1.0
C      1  0.4149400000000  0.5589080000000  0.5534740000000 1.0
C      1  0.4933320000000  0.4486980000000  0.4417630000000 1.0
C      1  0.6010440000000  0.5264880000000  0.4826140000000 1.0
C      1  0.4907650000000  0.4899440000000  0.6422460000000 1.0
C      1  0.4089860000000  0.3750010000000  0.4871290000000 1.0
C      1  0.5030440000000  0.5603690000000  0.4998800000000 1.0
C      1  0.4617920000000  0.4785360000000  0.5301070000000 1.0
C      1  0.3870160000000  0.5337760000000  0.4999170000000 1.0
C      1  0.4768140000000  0.5416080000000  0.4273480000000 1.0
C      1  0.5369710000000  0.4694790000000  0.4947050000000 1.0
C      1  0.4809140000000  0.4825630000000  0.3813770000000 1.0
END
