TITL C-627107-135-662 8.44815081430264e-08 125000 -487.759774256341 0 0 81 (C1) n - 1
REM
REM in /home/nfs/bkarasulu/CARBON/AIRSS/Generating-Clusters/LCBOP/Only-C1/SD-CG/FIRE-CG
REM
REM
REM
REM
REM
REM ./C.cell (11c1c37f851c82e70ff6c80c92926a4b)
REM AIRSS Version 0.9.1 bugfix July 2018 build 013d7b7c2542+ Fri, 06 Jul 2018 19:26:36 +0100
REM compiler GCC version 9.2.1 20190827 (Red Hat 9.2.1-1)
REM options -cpp -mtune=generic -march=x86-64 -g -O0 -fpre-include=/usr/include/finclude/math-vector-fortran.h
REM seed -343555975 830938048 1832900828 676845893 975141146 1732497125 1096777298 -18481430 1508556446 1325418528 -1338681127 -1743470165 1445787370 1916525175 1095699394 1903311356 1455069433 -305350171 -1528407827 -903038880 1090059556 -847351343 -50410657 37522786 89305363 1655779408 -1421184661 1891940285 1487467104 1414112689 -367497298 2020507429 1804861038
REM
CELL 1.54180   50.00000   50.00000   50.00000   90.00000   90.00000   90.00000
LATT -1
SFAC C  
C      1  0.4587170000000  0.4344400000000  0.5330380000000 1.0
C      1  0.5513230000000  0.4290390000000  0.5443380000000 1.0
C      1  0.4868760000000  0.5380880000000  0.4228390000000 1.0
C      1  0.4753030000000  0.4094470000000  0.4937950000000 1.0
C      1  0.5556270000000  0.4946030000000  0.5806840000000 1.0
C      1  0.4371630000000  0.5297320000000  0.5415120000000 1.0
C      1  0.5325840000000  0.4641320000000  0.4270060000000 1.0
C      1  0.5400670000000  0.4275310000000  0.5185720000000 1.0
C      1  0.5862230000000  0.5561080000000  0.5221270000000 1.0
C      1  0.5502290000000  0.4746300000000  0.5145480000000 1.0
C      1  0.4494790000000  0.5238930000000  0.5179520000000 1.0
C      1  0.5567560000000  0.5346570000000  0.5521960000000 1.0
C      1  0.4763070000000  0.5642610000000  0.4221400000000 1.0
C      1  0.5269340000000  0.4907270000000  0.5184740000000 1.0
C      1  0.4960870000000  0.5504970000000  0.5353970000000 1.0
C      1  0.4801530000000  0.4738270000000  0.5188170000000 1.0
C      1  0.4112980000000  0.4441670000000  0.5037290000000 1.0
C      1  0.4490280000000  0.5570340000000  0.4625980000000 1.0
C      1  0.5430020000000  0.5372680000000  0.4316740000000 1.0
C      1  0.4419820000000  0.5002730000000  0.4353120000000 1.0
C      1  0.4662810000000  0.5014590000000  0.4765850000000 1.0
C      1  0.4238320000000  0.4850250000000  0.4823630000000 1.0
C      1  0.4783440000000  0.4651620000000  0.5683310000000 1.0
C      1  0.5171090000000  0.4120460000000  0.5128440000000 1.0
C      1  0.4717200000000  0.5641940000000  0.4786190000000 1.0
C      1  0.4662760000000  0.5173910000000  0.5774360000000 1.0
C      1  0.5157340000000  0.5220120000000  0.5771420000000 1.0
C      1  0.4513130000000  0.5662520000000  0.4356620000000 1.0
C      1  0.5251030000000  0.5194630000000  0.5150830000000 1.0
C      1  0.5295610000000  0.5253080000000  0.4109960000000 1.0
C      1  0.5037660000000  0.4806390000000  0.5043410000000 1.0
C      1  0.4879840000000  0.5073010000000  0.5951490000000 1.0
C      1  0.4792530000000  0.5701080000000  0.5468330000000 1.0
C      1  0.5574300000000  0.4447910000000  0.5650570000000 1.0
C      1  0.4300480000000  0.5361270000000  0.4690270000000 1.0
C      1  0.5881600000000  0.4988070000000  0.4950970000000 1.0
C      1  0.5096370000000  0.4909170000000  0.4786020000000 1.0
C      1  0.5469240000000  0.5340400000000  0.5242190000000 1.0
C      1  0.5357880000000  0.4495190000000  0.4736350000000 1.0
C      1  0.5014130000000  0.5189450000000  0.4072580000000 1.0
C      1  0.5457200000000  0.4661970000000  0.4520820000000 1.0
C      1  0.4977680000000  0.4037130000000  0.5329770000000 1.0
C      1  0.5625380000000  0.5360100000000  0.4776160000000 1.0
C      1  0.5591730000000  0.4683370000000  0.5775110000000 1.0
C      1  0.4312960000000  0.4630020000000  0.4999460000000 1.0
C      1  0.3807770000000  0.5484660000000  0.4874980000000 1.0
C      1  0.4679640000000  0.4878670000000  0.4297220000000 1.0
C      1  0.4563980000000  0.4575150000000  0.5141600000000 1.0
C      1  0.4711800000000  0.4111430000000  0.5225050000000 1.0
C      1  0.4721620000000  0.5188380000000  0.5005300000000 1.0
C      1  0.4912190000000  0.4917940000000  0.4119740000000 1.0
C      1  0.5765510000000  0.4844950000000  0.5148350000000 1.0
C      1  0.5139490000000  0.5843670000000  0.4476540000000 1.0
C      1  0.5091730000000  0.4380340000000  0.4707240000000 1.0
C      1  0.5732370000000  0.5092660000000  0.4732470000000 1.0
C      1  0.4878070000000  0.4539190000000  0.4608750000000 1.0
C      1  0.5027350000000  0.4160600000000  0.4872950000000 1.0
C      1  0.5813970000000  0.5497440000000  0.5489020000000 1.0
C      1  0.5619160000000  0.4891290000000  0.4567250000000 1.0
C      1  0.5655850000000  0.5456200000000  0.5046170000000 1.0
C      1  0.5439260000000  0.5190360000000  0.5729750000000 1.0
C      1  0.5210200000000  0.5644310000000  0.4670260000000 1.0
C      1  0.4043330000000  0.5427830000000  0.4779140000000 1.0
C      1  0.4744680000000  0.4784070000000  0.4570340000000 1.0
C      1  0.5016170000000  0.5285800000000  0.5531850000000 1.0
C      1  0.5113990000000  0.4717660000000  0.4123110000000 1.0
C      1  0.4372630000000  0.5068730000000  0.4656850000000 1.0
C      1  0.4929200000000  0.5289010000000  0.4490800000000 1.0
C      1  0.4992530000000  0.5366050000000  0.5079240000000 1.0
C      1  0.4869200000000  0.4781670000000  0.5929380000000 1.0
C      1  0.5434510000000  0.5470840000000  0.4590150000000 1.0
C      1  0.4798940000000  0.5097830000000  0.5521450000000 1.0
C      1  0.5027380000000  0.3905060000000  0.5561770000000 1.0
C      1  0.4991980000000  0.5574230000000  0.4854290000000 1.0
C      1  0.4483980000000  0.5378820000000  0.5669860000000 1.0
C      1  0.4641370000000  0.4418070000000  0.5605220000000 1.0
C      1  0.4807770000000  0.4829440000000  0.5457820000000 1.0
C      1  0.4595570000000  0.5642720000000  0.5649960000000 1.0
C      1  0.5082550000000  0.5113000000000  0.4618460000000 1.0
C      1  0.4956150000000  0.5844920000000  0.4276190000000 1.0
C      1  0.5455040000000  0.4495840000000  0.5009840000000 1.0
END
