TITL C-627109-622-1219 -9.66554587588795e-07 125000 -291.596936795416 0 0 49 (C1) n - 1
REM
REM in /home/nfs/bkarasulu/CARBON/AIRSS/Generating-Clusters/LCBOP/Only-C1/SD-CG/FIRE-CG
REM
REM
REM
REM
REM
REM ./C.cell (11c1c37f851c82e70ff6c80c92926a4b)
REM AIRSS Version 0.9.1 bugfix July 2018 build 013d7b7c2542+ Fri, 06 Jul 2018 19:26:36 +0100
REM compiler GCC version 9.2.1 20190827 (Red Hat 9.2.1-1)
REM options -cpp -mtune=generic -march=x86-64 -g -O0 -fpre-include=/usr/include/finclude/math-vector-fortran.h
REM seed 161790749 2057647367 -2073032998 231239595 2073091778 1920563825 659426552 -1445371714 -832322938 -1853876675 1574485727 93762205 1421003602 -227983249 1130304612 1691717170 -1145057646 1981146710 100972294 -1854626316 -1542980568 1190974763 -334460541 307823180 802270900 1627566174 1485285902 1741223557 765780147 -484689920 1998606346 -869173068 -663879653
REM
CELL 1.54180   50.00000   50.00000   50.00000   90.00000   90.00000   90.00000
LATT -1
SFAC C  
C      1  0.5236990000000  0.5476110000000  0.5414310000000 1.0
C      1  0.5609070000000  0.4195000000000  0.5536510000000 1.0
C      1  0.5641880000000  0.4647300000000  0.5371240000000 1.0
C      1  0.4608810000000  0.4441190000000  0.4566010000000 1.0
C      1  0.5848300000000  0.4694110000000  0.4405090000000 1.0
C      1  0.5299260000000  0.4989720000000  0.5389800000000 1.0
C      1  0.5636000000000  0.4531560000000  0.5095080000000 1.0
C      1  0.4442370000000  0.5130690000000  0.5560990000000 1.0
C      1  0.5202050000000  0.5175630000000  0.4630470000000 1.0
C      1  0.5123070000000  0.4829540000000  0.5232340000000 1.0
C      1  0.5547520000000  0.5483210000000  0.4878350000000 1.0
C      1  0.5671280000000  0.5001700000000  0.5065140000000 1.0
C      1  0.5571840000000  0.4927740000000  0.5334090000000 1.0
C      1  0.4865840000000  0.5275460000000  0.4992160000000 1.0
C      1  0.5337840000000  0.5178700000000  0.4407360000000 1.0
C      1  0.4684890000000  0.5429450000000  0.5100030000000 1.0
C      1  0.4069500000000  0.5462590000000  0.4688430000000 1.0
C      1  0.5702410000000  0.4750870000000  0.4918920000000 1.0
C      1  0.5540140000000  0.4104150000000  0.5289180000000 1.0
C      1  0.4691780000000  0.5150670000000  0.5686720000000 1.0
C      1  0.4661360000000  0.4719090000000  0.4502310000000 1.0
C      1  0.3978050000000  0.5541540000000  0.4925590000000 1.0
C      1  0.4956310000000  0.5182300000000  0.5675390000000 1.0
C      1  0.4084990000000  0.5485960000000  0.5428510000000 1.0
C      1  0.5072590000000  0.4658290000000  0.4749720000000 1.0
C      1  0.4377270000000  0.4884950000000  0.4848720000000 1.0
C      1  0.5185680000000  0.5218370000000  0.5516390000000 1.0
C      1  0.4944800000000  0.4751930000000  0.4510040000000 1.0
C      1  0.5049170000000  0.4376500000000  0.4789500000000 1.0
C      1  0.5782710000000  0.4725920000000  0.4655270000000 1.0
C      1  0.5672580000000  0.5258480000000  0.4955230000000 1.0
C      1  0.5053110000000  0.5115070000000  0.4860630000000 1.0
C      1  0.4502130000000  0.5215260000000  0.4516980000000 1.0
C      1  0.5654980000000  0.4459670000000  0.5580520000000 1.0
C      1  0.4724920000000  0.5391520000000  0.4493480000000 1.0
C      1  0.4506320000000  0.4937930000000  0.4602240000000 1.0
C      1  0.3985240000000  0.5554580000000  0.5191330000000 1.0
C      1  0.5271170000000  0.4250750000000  0.4904430000000 1.0
C      1  0.4360260000000  0.4862230000000  0.5112950000000 1.0
C      1  0.5110910000000  0.5667420000000  0.4724700000000 1.0
C      1  0.5083260000000  0.4848890000000  0.4956190000000 1.0
C      1  0.4906690000000  0.5576070000000  0.4571920000000 1.0
C      1  0.5242840000000  0.5639580000000  0.5201720000000 1.0
C      1  0.4794860000000  0.4283040000000  0.4695290000000 1.0
C      1  0.4250270000000  0.5342720000000  0.4533760000000 1.0
C      1  0.5307850000000  0.5626890000000  0.4926600000000 1.0
C      1  0.5497850000000  0.4280340000000  0.5068730000000 1.0
C      1  0.4252210000000  0.5336820000000  0.5573080000000 1.0
C      1  0.4398790000000  0.4932500000000  0.5366550000000 1.0
END
