TITL C-627107-135-569 -13540.5324081194 125000 -840.119761772383 0 0 137 (C1) n - 1
REM
REM in /home/nfs/bkarasulu/CARBON/AIRSS/Generating-Clusters/LCBOP/Only-C1/SD-CG/FIRE-CG
REM
REM
REM
REM
REM
REM ./C.cell (11c1c37f851c82e70ff6c80c92926a4b)
REM AIRSS Version 0.9.1 bugfix July 2018 build 013d7b7c2542+ Fri, 06 Jul 2018 19:26:36 +0100
REM compiler GCC version 9.2.1 20190827 (Red Hat 9.2.1-1)
REM options -cpp -mtune=generic -march=x86-64 -g -O0 -fpre-include=/usr/include/finclude/math-vector-fortran.h
REM seed -728600405 -1892782638 1247666514 43187072 1658186620 -2061218271 -1688859279 1499928399 -1305949568 -436702637 -239847235 -827447885 -1613861270 1314337815 1400303981 2094459112 1761518673 -37587169 -1940478066 -650624805 -1423180836 1036855918 865071059 -648633216 -1094902141 2061328606 -816905421 799850794 57805482 -1480319920 -1436499110 1531665823 1309061887
REM
CELL 1.54180   50.00000   50.00000   50.00000   90.00000   90.00000   90.00000
LATT -1
SFAC C  
C      1  0.4391210000000  0.5860670000000  0.5361120000000 1.0
C      1  0.4801030000000  0.5140610000000  0.4172430000000 1.0
C      1  0.5274070000000  0.4774440000000  0.5148400000000 1.0
C      1  0.4456590000000  0.3836490000000  0.5992020000000 1.0
C      1  0.5837080000000  0.5646210000000  0.5310730000000 1.0
C      1  0.4947860000000  0.4426390000000  0.5120170000000 1.0
C      1  0.4611820000000  0.5274230000000  0.4578440000000 1.0
C      1  0.5469460000000  0.4126120000000  0.5409860000000 1.0
C      1  0.4178440000000  0.5733690000000  0.4585590000000 1.0
C      1  0.5293050000000  0.4449230000000  0.5708880000000 1.0
C      1  0.4050320000000  0.4362790000000  0.5017690000000 1.0
C      1  0.5867320000000  0.5569960000000  0.4479800000000 1.0
C      1  0.4682570000000  0.3824100000000  0.6134670000000 1.0
C      1  0.5868910000000  0.4625820000000  0.5147610000000 1.0
C      1  0.5451980000000  0.5818690000000  0.4667810000000 1.0
C      1  0.3926360000000  0.5077220000000  0.5005390000000 1.0
C      1  0.4221090000000  0.4988400000000  0.4579430000000 1.0
C      1  0.5020190000000  0.5876770000000  0.5785230000000 1.0
C      1  0.5022670000000  0.5566500000000  0.5221350000000 1.0
C      1  0.5916870000000  0.4647550000000  0.4444900000000 1.0
C      1  0.4087320000000  0.5243330000000  0.4585510000000 1.0
C      1  0.4337870000000  0.4107960000000  0.4408920000000 1.0
C      1  0.4802670000000  0.4591270000000  0.5550860000000 1.0
C      1  0.5063750000000  0.4927050000000  0.5277640000000 1.0
C      1  0.4483770000000  0.4758260000000  0.4068550000000 1.0
C      1  0.4730270000000  0.5698200000000  0.4707980000000 1.0
C      1  0.4993070000000  0.5641730000000  0.4596240000000 1.0
C      1  0.5261140000000  0.5340220000000  0.6109950000000 1.0
C      1  0.4182430000000  0.5128470000000  0.4077730000000 1.0
C      1  0.5185340000000  0.5650400000000  0.5739880000000 1.0
C      1  0.4304170000000  0.5432340000000  0.4948120000000 1.0
C      1  0.5402890000000  0.6102660000000  0.4708780000000 1.0
C      1  0.5435950000000  0.4849760000000  0.6018230000000 1.0
C      1  0.5820870000000  0.5651280000000  0.5783710000000 1.0
C      1  0.5817130000000  0.5452980000000  0.4230420000000 1.0
C      1  0.4427670000000  0.4904060000000  0.4763670000000 1.0
C      1  0.4683910000000  0.4125920000000  0.5394450000000 1.0
C      1  0.4908910000000  0.4993380000000  0.4824340000000 1.0
C      1  0.4581510000000  0.5286340000000  0.4295550000000 1.0
C      1  0.4857150000000  0.3913880000000  0.5323430000000 1.0
C      1  0.4314220000000  0.5894430000000  0.4805240000000 1.0
C      1  0.4927680000000  0.3930750000000  0.6136150000000 1.0
C      1  0.5231650000000  0.4484330000000  0.4466780000000 1.0
C      1  0.4122580000000  0.4776960000000  0.4415020000000 1.0
C      1  0.4223920000000  0.4847420000000  0.4149630000000 1.0
C      1  0.5152550000000  0.4934860000000  0.4690750000000 1.0
C      1  0.5335070000000  0.4364500000000  0.5436870000000 1.0
C      1  0.5436190000000  0.4649870000000  0.5841970000000 1.0
C      1  0.5785220000000  0.4185370000000  0.4887100000000 1.0
C      1  0.5583600000000  0.4171720000000  0.4457010000000 1.0
C      1  0.4286860000000  0.5898880000000  0.5104350000000 1.0
C      1  0.5597350000000  0.5049310000000  0.3953690000000 1.0
C      1  0.4668850000000  0.5026380000000  0.4694320000000 1.0
C      1  0.4641310000000  0.4209320000000  0.4763300000000 1.0
C      1  0.4824150000000  0.5335040000000  0.5187990000000 1.0
C      1  0.5624890000000  0.5442370000000  0.5779330000000 1.0
C      1  0.6120370000000  0.5235400000000  0.4809130000000 1.0
C      1  0.5666320000000  0.5418780000000  0.5298050000000 1.0
C      1  0.5385090000000  0.5317080000000  0.4640530000000 1.0
C      1  0.4636340000000  0.5286130000000  0.5698350000000 1.0
C      1  0.4934740000000  0.5849310000000  0.5194030000000 1.0
C      1  0.4314420000000  0.5351120000000  0.4209840000000 1.0
C      1  0.6014270000000  0.4278120000000  0.4737060000000 1.0
C      1  0.4640670000000  0.4529990000000  0.6009190000000 1.0
C      1  0.4152610000000  0.4381170000000  0.4750290000000 1.0
C      1  0.5090910000000  0.4052670000000  0.4663580000000 1.0
C      1  0.4776060000000  0.5944160000000  0.5682900000000 1.0
C      1  0.4902420000000  0.4859570000000  0.5508030000000 1.0
C      1  0.5220060000000  0.4498590000000  0.5204790000000 1.0
C      1  0.5027700000000  0.5429150000000  0.6240280000000 1.0
C      1  0.3902020000000  0.4797800000000  0.4913390000000 1.0
C      1  0.4495320000000  0.4972040000000  0.5251280000000 1.0
C      1  0.5265170000000  0.3802240000000  0.5028310000000 1.0
C      1  0.4561690000000  0.5251940000000  0.5277690000000 1.0
C      1  0.4782750000000  0.5119290000000  0.3284780000000 1.0
C      1  0.5368260000000  0.5497970000000  0.5897760000000 1.0
C      1  0.5134050000000  0.5532060000000  0.5492770000000 1.0
C      1  0.4063690000000  0.5290520000000  0.4858440000000 1.0
C      1  0.5008920000000  0.5103930000000  0.3413520000000 1.0
C      1  0.4810090000000  0.3976980000000  0.4687250000000 1.0
C      1  0.5263010000000  0.5597270000000  0.4732710000000 1.0
C      1  0.5483160000000  0.5365930000000  0.5095090000000 1.0
C      1  0.5626080000000  0.6249340000000  0.4633320000000 1.0
C      1  0.4857690000000  0.4400560000000  0.4849150000000 1.0
C      1  0.5323940000000  0.3952050000000  0.4797980000000 1.0
C      1  0.4792710000000  0.5069390000000  0.5666190000000 1.0
C      1  0.4739200000000  0.6149730000000  0.4868720000000 1.0
C      1  0.4159840000000  0.5477610000000  0.4428690000000 1.0
C      1  0.5230540000000  0.5086780000000  0.3557900000000 1.0
C      1  0.4547040000000  0.5477020000000  0.4765270000000 1.0
C      1  0.5492480000000  0.4427740000000  0.4374570000000 1.0
C      1  0.4367630000000  0.3942160000000  0.5763080000000 1.0
C      1  0.5045330000000  0.5249500000000  0.4283190000000 1.0
C      1  0.4890110000000  0.6089320000000  0.5084020000000 1.0
C      1  0.4413970000000  0.4830920000000  0.5035440000000 1.0
C      1  0.4594290000000  0.5946670000000  0.4739720000000 1.0
C      1  0.6018430000000  0.4726900000000  0.4921180000000 1.0
C      1  0.4942510000000  0.5097100000000  0.5086860000000 1.0
C      1  0.4549440000000  0.5785260000000  0.5598900000000 1.0
C      1  0.4544830000000  0.5545040000000  0.5772020000000 1.0
C      1  0.5725270000000  0.5276710000000  0.4054750000000 1.0
C      1  0.4578440000000  0.5588890000000  0.6052350000000 1.0
C      1  0.5576040000000  0.4071090000000  0.4726000000000 1.0
C      1  0.5627430000000  0.4805580000000  0.4087420000000 1.0
C      1  0.5727970000000  0.5800170000000  0.4557430000000 1.0
C      1  0.5355730000000  0.5077140000000  0.6131280000000 1.0
C      1  0.4333410000000  0.5405510000000  0.5230650000000 1.0
C      1  0.6028140000000  0.4558910000000  0.4687290000000 1.0
C      1  0.5813980000000  0.4789040000000  0.5371130000000 1.0
C      1  0.5071520000000  0.4349430000000  0.4651720000000 1.0
C      1  0.5822620000000  0.6075380000000  0.4542810000000 1.0
C      1  0.5657180000000  0.5267950000000  0.5545760000000 1.0
C      1  0.5679640000000  0.4625920000000  0.4293670000000 1.0
C      1  0.6114100000000  0.4988740000000  0.4907570000000 1.0
C      1  0.5734850000000  0.4998420000000  0.5519630000000 1.0
C      1  0.3912340000000  0.5156150000000  0.5280320000000 1.0
C      1  0.3906730000000  0.4582930000000  0.5098960000000 1.0
C      1  0.4722270000000  0.4890610000000  0.4066120000000 1.0
C      1  0.5070460000000  0.4345770000000  0.5856010000000 1.0
C      1  0.4778730000000  0.5526800000000  0.6221720000000 1.0
C      1  0.5764090000000  0.4361460000000  0.5111800000000 1.0
C      1  0.4454280000000  0.4065070000000  0.5542390000000 1.0
C      1  0.5430000000000  0.5068110000000  0.3731230000000 1.0
C      1  0.4773310000000  0.4392960000000  0.5343340000000 1.0
C      1  0.5915230000000  0.5753540000000  0.5548880000000 1.0
C      1  0.5217090000000  0.5132560000000  0.4483540000000 1.0
C      1  0.6036860000000  0.5438480000000  0.4659700000000 1.0
C      1  0.5075460000000  0.4121120000000  0.6021410000000 1.0
C      1  0.4378430000000  0.4236980000000  0.4650200000000 1.0
C      1  0.4094780000000  0.5337710000000  0.5374490000000 1.0
C      1  0.5068910000000  0.3796150000000  0.5211210000000 1.0
C      1  0.4827150000000  0.4488140000000  0.5815100000000 1.0
C      1  0.5366500000000  0.4906540000000  0.4901820000000 1.0
C      1  0.5015810000000  0.5534210000000  0.4329330000000 1.0
C      1  0.5495070000000  0.5170780000000  0.4883230000000 1.0
C      1  0.5259630000000  0.5541640000000  0.5033060000000 1.0
C      1  0.4021600000000  0.4604280000000  0.4616460000000 1.0
END
