TITL C-627106-156-1215 3907.67192441572 125000 -857.486746121492 0 0 141 (C1) n - 1
REM
REM in /home/nfs/bkarasulu/CARBON/AIRSS/Generating-Clusters/LCBOP/Only-C1/SD-CG/FIRE-CG
REM
REM
REM
REM
REM
REM ./C.cell (11c1c37f851c82e70ff6c80c92926a4b)
REM AIRSS Version 0.9.1 bugfix July 2018 build 013d7b7c2542+ Fri, 06 Jul 2018 19:26:36 +0100
REM compiler GCC version 9.2.1 20190827 (Red Hat 9.2.1-1)
REM options -cpp -mtune=generic -march=x86-64 -g -O0 -fpre-include=/usr/include/finclude/math-vector-fortran.h
REM seed -2091935952 1030683028 -294797407 -1006556441 -530492855 -1419945652 -16879861 -404344992 -360125830 -773073372 536458277 1009100917 -153433426 689270375 1109386725 -1335519821 1691646743 1864845695 -1596625638 722776092 -1749236515 156880506 -2033125054 -599042060 -1895555994 1815216745 -888342771 933045638 827004100 3192474 1634479881 -1426844647 692983259
REM
CELL 1.54180   50.00000   50.00000   50.00000   90.00000   90.00000   90.00000
LATT -1
SFAC C  
C      1  0.5103100000000  0.5802470000000  0.4660320000000 1.0
C      1  0.5075510000000  0.5225010000000  0.4382040000000 1.0
C      1  0.6258790000000  0.4938470000000  0.4780220000000 1.0
C      1  0.6239440000000  0.5661750000000  0.5063320000000 1.0
C      1  0.6447590000000  0.5511050000000  0.5479760000000 1.0
C      1  0.5197110000000  0.5419880000000  0.5451690000000 1.0
C      1  0.5011060000000  0.5273730000000  0.4670120000000 1.0
C      1  0.5465020000000  0.4482760000000  0.4675340000000 1.0
C      1  0.4962030000000  0.5264640000000  0.6163290000000 1.0
C      1  0.5162660000000  0.4834410000000  0.6018990000000 1.0
C      1  0.4768470000000  0.4888040000000  0.4271050000000 1.0
C      1  0.4657990000000  0.3997720000000  0.4897350000000 1.0
C      1  0.5746210000000  0.5659470000000  0.4676140000000 1.0
C      1  0.4275510000000  0.4605190000000  0.5707910000000 1.0
C      1  0.5636320000000  0.5776550000000  0.5151410000000 1.0
C      1  0.4264010000000  0.4847710000000  0.4559330000000 1.0
C      1  0.4717490000000  0.4442630000000  0.5073900000000 1.0
C      1  0.4308490000000  0.4391460000000  0.4333640000000 1.0
C      1  0.4678920000000  0.4655920000000  0.4127950000000 1.0
C      1  0.4016850000000  0.4939980000000  0.4978410000000 1.0
C      1  0.5323560000000  0.4467330000000  0.5700800000000 1.0
C      1  0.5470430000000  0.4983440000000  0.4458430000000 1.0
C      1  0.4982230000000  0.5530230000000  0.6109760000000 1.0
C      1  0.5642470000000  0.5746340000000  0.4419470000000 1.0
C      1  0.4390440000000  0.5227120000000  0.5209400000000 1.0
C      1  0.5462050000000  0.5155590000000  0.4690840000000 1.0
C      1  0.4927260000000  0.4495920000000  0.4129200000000 1.0
C      1  0.4999610000000  0.4407110000000  0.5037970000000 1.0
C      1  0.4713750000000  0.4707060000000  0.5199120000000 1.0
C      1  0.6392890000000  0.5247110000000  0.5491820000000 1.0
C      1  0.5776370000000  0.5321250000000  0.4264710000000 1.0
C      1  0.3777810000000  0.5222400000000  0.5293000000000 1.0
C      1  0.5578830000000  0.5530500000000  0.4238960000000 1.0
C      1  0.6363790000000  0.4814860000000  0.5210840000000 1.0
C      1  0.4561620000000  0.6039820000000  0.5134660000000 1.0
C      1  0.4673500000000  0.4906820000000  0.5009660000000 1.0
C      1  0.5705090000000  0.6034050000000  0.5211870000000 1.0
C      1  0.5251910000000  0.4344520000000  0.5455230000000 1.0
C      1  0.5016080000000  0.5514580000000  0.5639390000000 1.0
C      1  0.5131610000000  0.4521670000000  0.5265630000000 1.0
C      1  0.5944210000000  0.5445120000000  0.4705990000000 1.0
C      1  0.5741430000000  0.4877790000000  0.4997680000000 1.0
C      1  0.5609260000000  0.4235560000000  0.4705420000000 1.0
C      1  0.4424160000000  0.4155030000000  0.5298280000000 1.0
C      1  0.6093250000000  0.5447090000000  0.4955890000000 1.0
C      1  0.4312640000000  0.5613700000000  0.5532580000000 1.0
C      1  0.4812650000000  0.4358740000000  0.6142590000000 1.0
C      1  0.5088030000000  0.4961270000000  0.5425690000000 1.0
C      1  0.5303350000000  0.4739190000000  0.5792210000000 1.0
C      1  0.4546910000000  0.5588400000000  0.5684890000000 1.0
C      1  0.4626890000000  0.5187670000000  0.5049040000000 1.0
C      1  0.5316470000000  0.4067570000000  0.5052150000000 1.0
C      1  0.5637880000000  0.5576130000000  0.5349500000000 1.0
C      1  0.4416750000000  0.5508470000000  0.4577740000000 1.0
C      1  0.5737560000000  0.4448110000000  0.3989770000000 1.0
C      1  0.5919170000000  0.4863320000000  0.4519250000000 1.0
C      1  0.6384140000000  0.5690880000000  0.5288840000000 1.0
C      1  0.4663450000000  0.4581670000000  0.6038920000000 1.0
C      1  0.5313500000000  0.5627480000000  0.3841410000000 1.0
C      1  0.4230540000000  0.4988190000000  0.5179940000000 1.0
C      1  0.6002090000000  0.4991710000000  0.4925400000000 1.0
C      1  0.4228950000000  0.5323330000000  0.4689090000000 1.0
C      1  0.3738650000000  0.5016720000000  0.4321310000000 1.0
C      1  0.5561880000000  0.4699740000000  0.4846440000000 1.0
C      1  0.5230440000000  0.4869220000000  0.4051980000000 1.0
C      1  0.3963860000000  0.4647190000000  0.4995080000000 1.0
C      1  0.4908710000000  0.4002480000000  0.5409960000000 1.0
C      1  0.4606160000000  0.4195590000000  0.5757060000000 1.0
C      1  0.5188500000000  0.4081510000000  0.5335590000000 1.0
C      1  0.3963340000000  0.4940100000000  0.4194270000000 1.0
C      1  0.5665700000000  0.4957630000000  0.5258940000000 1.0
C      1  0.5110710000000  0.4201400000000  0.4847080000000 1.0
C      1  0.4151720000000  0.5048030000000  0.4726860000000 1.0
C      1  0.4796060000000  0.5311860000000  0.4855000000000 1.0
C      1  0.5266880000000  0.5344420000000  0.4774910000000 1.0
C      1  0.5289550000000  0.5626500000000  0.4814680000000 1.0
C      1  0.4173650000000  0.4303150000000  0.5282410000000 1.0
C      1  0.4418900000000  0.5174610000000  0.4209860000000 1.0
C      1  0.4498440000000  0.4464860000000  0.5819730000000 1.0
C      1  0.4093470000000  0.4277290000000  0.4489490000000 1.0
C      1  0.5839870000000  0.4248210000000  0.5087480000000 1.0
C      1  0.5200480000000  0.4389750000000  0.4600880000000 1.0
C      1  0.5243270000000  0.6011390000000  0.4524860000000 1.0
C      1  0.4687160000000  0.4813230000000  0.4747290000000 1.0
C      1  0.3771230000000  0.5102740000000  0.5035780000000 1.0
C      1  0.6466130000000  0.4857130000000  0.4942740000000 1.0
C      1  0.5251630000000  0.5022220000000  0.4286610000000 1.0
C      1  0.3990530000000  0.5247480000000  0.5481010000000 1.0
C      1  0.4385720000000  0.4624530000000  0.4156650000000 1.0
C      1  0.4765240000000  0.4256050000000  0.4514570000000 1.0
C      1  0.4054160000000  0.4246210000000  0.4760650000000 1.0
C      1  0.4807440000000  0.5574420000000  0.4304760000000 1.0
C      1  0.5072610000000  0.5211490000000  0.5302680000000 1.0
C      1  0.4239290000000  0.4881730000000  0.5786120000000 1.0
C      1  0.3609190000000  0.5092500000000  0.4543990000000 1.0
C      1  0.5686380000000  0.4817340000000  0.4375290000000 1.0
C      1  0.5925910000000  0.5226980000000  0.4498970000000 1.0
C      1  0.4128130000000  0.4472060000000  0.5507030000000 1.0
C      1  0.4707430000000  0.5819280000000  0.5785650000000 1.0
C      1  0.6194780000000  0.4581040000000  0.5201060000000 1.0
C      1  0.4958150000000  0.4734700000000  0.5345220000000 1.0
C      1  0.4934830000000  0.4989730000000  0.6094690000000 1.0
C      1  0.4466840000000  0.4665720000000  0.4658150000000 1.0
C      1  0.4040600000000  0.5052730000000  0.5681360000000 1.0
C      1  0.6003830000000  0.4592150000000  0.4724420000000 1.0
C      1  0.5688040000000  0.4633410000000  0.4166360000000 1.0
C      1  0.4963880000000  0.5685560000000  0.5871180000000 1.0
C      1  0.5135090000000  0.4625110000000  0.3986990000000 1.0
C      1  0.4255870000000  0.4898890000000  0.4253720000000 1.0
C      1  0.4229400000000  0.5387610000000  0.5391270000000 1.0
C      1  0.4445300000000  0.4987850000000  0.5953480000000 1.0
C      1  0.5600300000000  0.4129090000000  0.4974740000000 1.0
C      1  0.5538360000000  0.5088220000000  0.5472590000000 1.0
C      1  0.4859170000000  0.4074300000000  0.4719540000000 1.0
C      1  0.4838120000000  0.4894020000000  0.4531560000000 1.0
C      1  0.3605660000000  0.5135870000000  0.4809630000000 1.0
C      1  0.6268420000000  0.5078100000000  0.5305410000000 1.0
C      1  0.4679790000000  0.4863940000000  0.6053820000000 1.0
C      1  0.5488430000000  0.5983400000000  0.4412690000000 1.0
C      1  0.5479900000000  0.5373950000000  0.5459110000000 1.0
C      1  0.5316510000000  0.5539190000000  0.4102830000000 1.0
C      1  0.4568790000000  0.4204510000000  0.5063330000000 1.0
C      1  0.5060940000000  0.5460060000000  0.4220810000000 1.0
C      1  0.4837130000000  0.5737410000000  0.4554580000000 1.0
C      1  0.4747830000000  0.5402150000000  0.5604000000000 1.0
C      1  0.6022450000000  0.4459600000000  0.4999650000000 1.0
C      1  0.4259750000000  0.5880190000000  0.5460590000000 1.0
C      1  0.4054440000000  0.4377760000000  0.5018110000000 1.0
C      1  0.4579810000000  0.5726180000000  0.4692690000000 1.0
C      1  0.5325290000000  0.4932450000000  0.5585100000000 1.0
C      1  0.4524580000000  0.4408130000000  0.4534390000000 1.0
C      1  0.5556720000000  0.5705540000000  0.4889080000000 1.0
C      1  0.4536210000000  0.5903650000000  0.4904850000000 1.0
C      1  0.4791780000000  0.6296640000000  0.5701230000000 1.0
C      1  0.4777610000000  0.4135420000000  0.5983270000000 1.0
C      1  0.4632950000000  0.4085700000000  0.5497340000000 1.0
C      1  0.4992940000000  0.4379770000000  0.4385320000000 1.0
C      1  0.4490010000000  0.6040440000000  0.5407310000000 1.0
C      1  0.6091930000000  0.5201500000000  0.5104660000000 1.0
C      1  0.4542660000000  0.5416430000000  0.4320490000000 1.0
C      1  0.4669340000000  0.6061890000000  0.5634550000000 1.0
END
