TITL C-627106-156-1470 113285.190272227 125000 -1204.67903989147 0 0 196 (C1) n - 1
REM
REM in /home/nfs/bkarasulu/CARBON/AIRSS/Generating-Clusters/LCBOP/Only-C1/SD-CG/FIRE-CG
REM
REM
REM
REM
REM
REM ./C.cell (11c1c37f851c82e70ff6c80c92926a4b)
REM AIRSS Version 0.9.1 bugfix July 2018 build 013d7b7c2542+ Fri, 06 Jul 2018 19:26:36 +0100
REM compiler GCC version 9.2.1 20190827 (Red Hat 9.2.1-1)
REM options -cpp -mtune=generic -march=x86-64 -g -O0 -fpre-include=/usr/include/finclude/math-vector-fortran.h
REM seed -523163519 1389964604 -1540991561 -1009912598 98222124 -393071243 2117883336 1907340659 -1326125801 1077725341 1760259752 -530104850 1501874891 669846839 -1378801523 1901559140 -1263432626 -577242190 -949688159 1405367093 304430779 -1411961633 -615096928 -1162582286 -128860131 1422062318 1475385153 -1420830381 -1052353207 1983876484 -275102015 369948581 -1976077046
REM
CELL 1.54180   50.00000   50.00000   50.00000   90.00000   90.00000   90.00000
LATT -1
SFAC C  
C      1  0.6079390000000  0.5227980000000  0.5671300000000 1.0
C      1  0.4425250000000  0.4468900000000  0.4755720000000 1.0
C      1  0.4596680000000  0.5890540000000  0.4331680000000 1.0
C      1  0.4920020000000  0.5559010000000  0.4184030000000 1.0
C      1  0.4287270000000  0.4796370000000  0.4153500000000 1.0
C      1  0.5005090000000  0.4323260000000  0.5716410000000 1.0
C      1  0.4049340000000  0.4195890000000  0.5059190000000 1.0
C      1  0.6425570000000  0.5093420000000  0.4411620000000 1.0
C      1  0.3803780000000  0.4573160000000  0.4899320000000 1.0
C      1  0.4301790000000  0.6062040000000  0.4755470000000 1.0
C      1  0.5642580000000  0.4112320000000  0.5397860000000 1.0
C      1  0.4725530000000  0.4898930000000  0.5300980000000 1.0
C      1  0.5218410000000  0.4310700000000  0.5536360000000 1.0
C      1  0.5534190000000  0.4576470000000  0.5941420000000 1.0
C      1  0.5830160000000  0.5896810000000  0.5479430000000 1.0
C      1  0.4352140000000  0.4150830000000  0.4438520000000 1.0
C      1  0.4995100000000  0.4558910000000  0.4996580000000 1.0
C      1  0.4897670000000  0.4430430000000  0.4738400000000 1.0
C      1  0.4167140000000  0.4369400000000  0.5748210000000 1.0
C      1  0.5744300000000  0.4199460000000  0.5134170000000 1.0
C      1  0.4300030000000  0.4739300000000  0.6010220000000 1.0
C      1  0.5563700000000  0.4384910000000  0.4751480000000 1.0
C      1  0.3929290000000  0.5293240000000  0.5560600000000 1.0
C      1  0.4537260000000  0.4545130000000  0.5575880000000 1.0
C      1  0.4933860000000  0.6098670000000  0.5411910000000 1.0
C      1  0.4533350000000  0.5491020000000  0.5283680000000 1.0
C      1  0.3647720000000  0.5008640000000  0.5093810000000 1.0
C      1  0.5959790000000  0.4710610000000  0.4772380000000 1.0
C      1  0.6386590000000  0.4571350000000  0.4437850000000 1.0
C      1  0.4579960000000  0.4901450000000  0.4608610000000 1.0
C      1  0.5323850000000  0.6381630000000  0.5349620000000 1.0
C      1  0.4028860000000  0.5158890000000  0.4579010000000 1.0
C      1  0.4199660000000  0.4825540000000  0.5043750000000 1.0
C      1  0.4720250000000  0.4427510000000  0.4286930000000 1.0
C      1  0.5242950000000  0.5558860000000  0.4708120000000 1.0
C      1  0.5362430000000  0.5764260000000  0.5091320000000 1.0
C      1  0.5622920000000  0.6178960000000  0.5007540000000 1.0
C      1  0.4473360000000  0.3985130000000  0.5707420000000 1.0
C      1  0.6111930000000  0.4946060000000  0.5588690000000 1.0
C      1  0.4815290000000  0.4695350000000  0.5916630000000 1.0
C      1  0.4822470000000  0.4825070000000  0.4001020000000 1.0
C      1  0.6381790000000  0.5173200000000  0.4990450000000 1.0
C      1  0.5333020000000  0.6014280000000  0.5681740000000 1.0
C      1  0.3790430000000  0.5459120000000  0.4889190000000 1.0
C      1  0.5137070000000  0.5425540000000  0.5581260000000 1.0
C      1  0.5181070000000  0.4197100000000  0.4179870000000 1.0
C      1  0.5819020000000  0.4786700000000  0.4540160000000 1.0
C      1  0.5787230000000  0.5249910000000  0.4479140000000 1.0
C      1  0.5119420000000  0.4494380000000  0.4543380000000 1.0
C      1  0.6240100000000  0.4961290000000  0.5104560000000 1.0
C      1  0.5587910000000  0.5628680000000  0.5052410000000 1.0
C      1  0.5153230000000  0.5909140000000  0.5880240000000 1.0
C      1  0.5813340000000  0.5482690000000  0.5108620000000 1.0
C      1  0.6451800000000  0.4827290000000  0.4391070000000 1.0
C      1  0.5485740000000  0.5548880000000  0.6071180000000 1.0
C      1  0.4304540000000  0.5874030000000  0.4316430000000 1.0
C      1  0.3706770000000  0.4846200000000  0.4836200000000 1.0
C      1  0.4170040000000  0.4329260000000  0.4306260000000 1.0
C      1  0.4318650000000  0.4622650000000  0.5751980000000 1.0
C      1  0.5836540000000  0.5438370000000  0.5384020000000 1.0
C      1  0.6260380000000  0.5355860000000  0.4812950000000 1.0
C      1  0.5264190000000  0.3877340000000  0.4607360000000 1.0
C      1  0.3875540000000  0.4614590000000  0.5364120000000 1.0
C      1  0.4276530000000  0.5460270000000  0.4851530000000 1.0
C      1  0.4436130000000  0.3995860000000  0.4929800000000 1.0
C      1  0.4705380000000  0.5068360000000  0.4134260000000 1.0
C      1  0.5114480000000  0.4847830000000  0.3965890000000 1.0
C      1  0.5317420000000  0.6106260000000  0.4525420000000 1.0
C      1  0.3969090000000  0.5047270000000  0.5420000000000 1.0
C      1  0.5750530000000  0.4747340000000  0.5340780000000 1.0
C      1  0.4398990000000  0.5181580000000  0.5595470000000 1.0
C      1  0.4780420000000  0.5370930000000  0.5201640000000 1.0
C      1  0.5757720000000  0.4253430000000  0.5628220000000 1.0
C      1  0.4505060000000  0.3901840000000  0.5450800000000 1.0
C      1  0.4154810000000  0.5211070000000  0.3917830000000 1.0
C      1  0.4798780000000  0.4525640000000  0.5675700000000 1.0
C      1  0.5561060000000  0.5495030000000  0.4020300000000 1.0
C      1  0.5553630000000  0.4766220000000  0.4154490000000 1.0
C      1  0.5676620000000  0.5246100000000  0.3977320000000 1.0
C      1  0.5381150000000  0.5292080000000  0.5564520000000 1.0
C      1  0.5329720000000  0.4570880000000  0.5472070000000 1.0
C      1  0.3889230000000  0.4729220000000  0.4400570000000 1.0
C      1  0.6290620000000  0.4900450000000  0.5373830000000 1.0
C      1  0.5589660000000  0.5636430000000  0.5818710000000 1.0
C      1  0.5985480000000  0.4896450000000  0.4984810000000 1.0
C      1  0.5790020000000  0.6030920000000  0.5212780000000 1.0
C      1  0.5069690000000  0.4323910000000  0.6008090000000 1.0
C      1  0.4718080000000  0.5630400000000  0.4371210000000 1.0
C      1  0.5098010000000  0.6011270000000  0.4338540000000 1.0
C      1  0.4229640000000  0.4315050000000  0.5265300000000 1.0
C      1  0.5873240000000  0.5187230000000  0.6097300000000 1.0
C      1  0.5507030000000  0.6128880000000  0.4733560000000 1.0
C      1  0.5163820000000  0.5134220000000  0.4060120000000 1.0
C      1  0.4886220000000  0.5211490000000  0.5933720000000 1.0
C      1  0.4374550000000  0.4567880000000  0.6212590000000 1.0
C      1  0.5336300000000  0.4648230000000  0.4004580000000 1.0
C      1  0.4684640000000  0.4583060000000  0.4041380000000 1.0
C      1  0.4544890000000  0.5732970000000  0.5443590000000 1.0
C      1  0.5176580000000  0.5770090000000  0.4884370000000 1.0
C      1  0.4996220000000  0.5450490000000  0.5827310000000 1.0
C      1  0.4376660000000  0.4190230000000  0.5885070000000 1.0
C      1  0.4893140000000  0.4115140000000  0.4738830000000 1.0
C      1  0.5347160000000  0.4387150000000  0.6059550000000 1.0
C      1  0.5881310000000  0.5009620000000  0.4365190000000 1.0
C      1  0.5267820000000  0.5070840000000  0.4951480000000 1.0
C      1  0.5340230000000  0.4081460000000  0.5390450000000 1.0
C      1  0.5495410000000  0.3733400000000  0.4603830000000 1.0
C      1  0.3736230000000  0.5421840000000  0.5383240000000 1.0
C      1  0.5197110000000  0.6173220000000  0.5486280000000 1.0
C      1  0.4368740000000  0.4187800000000  0.4728610000000 1.0
C      1  0.5473130000000  0.5061240000000  0.5155250000000 1.0
C      1  0.5216210000000  0.4354620000000  0.5060940000000 1.0
C      1  0.4976240000000  0.5951030000000  0.4872970000000 1.0
C      1  0.4721220000000  0.5068460000000  0.4809060000000 1.0
C      1  0.3676150000000  0.5313430000000  0.5112330000000 1.0
C      1  0.4833950000000  0.4004530000000  0.4466240000000 1.0
C      1  0.3740990000000  0.5711240000000  0.4766590000000 1.0
C      1  0.4469390000000  0.5731760000000  0.5723620000000 1.0
C      1  0.5555440000000  0.4703970000000  0.4450300000000 1.0
C      1  0.3882930000000  0.5880200000000  0.4607160000000 1.0
C      1  0.4186730000000  0.5054450000000  0.5216620000000 1.0
C      1  0.4910600000000  0.5284940000000  0.4094490000000 1.0
C      1  0.5004500000000  0.5458390000000  0.5338720000000 1.0
C      1  0.4359000000000  0.5263870000000  0.5310720000000 1.0
C      1  0.4538670000000  0.4342790000000  0.6114540000000 1.0
C      1  0.5176500000000  0.4962250000000  0.4464840000000 1.0
C      1  0.4634940000000  0.5002630000000  0.5581870000000 1.0
C      1  0.4465080000000  0.4996690000000  0.4339660000000 1.0
C      1  0.4945280000000  0.5719370000000  0.5910680000000 1.0
C      1  0.3847170000000  0.4289600000000  0.4890490000000 1.0
C      1  0.5122760000000  0.3966010000000  0.4857400000000 1.0
C      1  0.5489180000000  0.6395650000000  0.5139070000000 1.0
C      1  0.4238650000000  0.5206440000000  0.4383030000000 1.0
C      1  0.4036000000000  0.4394290000000  0.5490660000000 1.0
C      1  0.4824840000000  0.4462550000000  0.6114170000000 1.0
C      1  0.4172550000000  0.5331640000000  0.5717510000000 1.0
C      1  0.4674520000000  0.5796350000000  0.5906720000000 1.0
C      1  0.4477720000000  0.5890160000000  0.4867900000000 1.0
C      1  0.4202790000000  0.5652360000000  0.4169110000000 1.0
C      1  0.4245440000000  0.5586320000000  0.5810490000000 1.0
C      1  0.6025010000000  0.5471620000000  0.4919490000000 1.0
C      1  0.5400560000000  0.5299310000000  0.6141810000000 1.0
C      1  0.3741960000000  0.4877040000000  0.5362960000000 1.0
C      1  0.5022630000000  0.4404480000000  0.4297080000000 1.0
C      1  0.5634790000000  0.4245660000000  0.4009840000000 1.0
C      1  0.5981570000000  0.4253240000000  0.4978780000000 1.0
C      1  0.4747000000000  0.5101430000000  0.5098580000000 1.0
C      1  0.4618700000000  0.4141780000000  0.4329410000000 1.0
C      1  0.5739790000000  0.4988800000000  0.4101010000000 1.0
C      1  0.3995440000000  0.4640450000000  0.5101970000000 1.0
C      1  0.4186870000000  0.5372420000000  0.4150470000000 1.0
C      1  0.4741490000000  0.4621270000000  0.5181870000000 1.0
C      1  0.3844110000000  0.4936200000000  0.4591820000000 1.0
C      1  0.4142790000000  0.5975560000000  0.4536100000000 1.0
C      1  0.5377150000000  0.5042760000000  0.6058140000000 1.0
C      1  0.5401350000000  0.5650730000000  0.4209520000000 1.0
C      1  0.5595160000000  0.5882830000000  0.5667910000000 1.0
C      1  0.5514170000000  0.5295940000000  0.4443250000000 1.0
C      1  0.5853920000000  0.5250530000000  0.5834390000000 1.0
C      1  0.5184920000000  0.4797790000000  0.4883240000000 1.0
C      1  0.5117570000000  0.3968400000000  0.4359630000000 1.0
C      1  0.6053580000000  0.4233460000000  0.4327530000000 1.0
C      1  0.5403070000000  0.4827840000000  0.5876140000000 1.0
C      1  0.6022900000000  0.5583460000000  0.5502760000000 1.0
C      1  0.4200710000000  0.4941130000000  0.3919510000000 1.0
C      1  0.5140070000000  0.5758910000000  0.4184180000000 1.0
C      1  0.5749060000000  0.4952550000000  0.5138250000000 1.0
C      1  0.5419520000000  0.5555770000000  0.4486570000000 1.0
C      1  0.6338140000000  0.5310550000000  0.4545650000000 1.0
C      1  0.4492820000000  0.3904980000000  0.5179690000000 1.0
C      1  0.5369280000000  0.4346780000000  0.4015210000000 1.0
C      1  0.5372390000000  0.5049660000000  0.5429610000000 1.0
C      1  0.4502940000000  0.5615980000000  0.4802440000000 1.0
C      1  0.4110480000000  0.4605660000000  0.4273620000000 1.0
C      1  0.6193390000000  0.4381290000000  0.4523150000000 1.0
C      1  0.5767030000000  0.4516950000000  0.5761700000000 1.0
C      1  0.4504660000000  0.4462800000000  0.5297770000000 1.0
C      1  0.4349610000000  0.4732520000000  0.4832580000000 1.0
C      1  0.4703670000000  0.5512840000000  0.4627300000000 1.0
C      1  0.4715760000000  0.5948210000000  0.5372970000000 1.0
C      1  0.5864930000000  0.4202960000000  0.4140190000000 1.0
C      1  0.6064560000000  0.4440050000000  0.4774960000000 1.0
C      1  0.4661340000000  0.4550560000000  0.4580150000000 1.0
C      1  0.4863560000000  0.5290660000000  0.4707400000000 1.0
C      1  0.4814010000000  0.6084200000000  0.4340210000000 1.0
C      1  0.5641530000000  0.5389410000000  0.5648980000000 1.0
C      1  0.4780450000000  0.4968550000000  0.5834970000000 1.0
C      1  0.5890480000000  0.4741850000000  0.5594970000000 1.0
C      1  0.5315930000000  0.4825650000000  0.5599940000000 1.0
C      1  0.5206170000000  0.4067910000000  0.5119080000000 1.0
C      1  0.5284740000000  0.4726610000000  0.4598700000000 1.0
C      1  0.5540270000000  0.4575050000000  0.5284780000000 1.0
C      1  0.5140310000000  0.5301390000000  0.4795790000000 1.0
C      1  0.4031220000000  0.5345580000000  0.4789050000000 1.0
C      1  0.5315180000000  0.5142400000000  0.4305710000000 1.0
C      1  0.5520740000000  0.4400200000000  0.5047960000000 1.0
END
