TITL C-627108-131-704 0.00168311702244228 125000 -1062.18644193189 0 0 172 (C1) n - 1
REM
REM in /home/nfs/bkarasulu/CARBON/AIRSS/Generating-Clusters/LCBOP/Only-C1/SD-CG/FIRE-CG
REM
REM
REM
REM
REM
REM ./C.cell (11c1c37f851c82e70ff6c80c92926a4b)
REM AIRSS Version 0.9.1 bugfix July 2018 build 013d7b7c2542+ Fri, 06 Jul 2018 19:26:36 +0100
REM compiler GCC version 9.2.1 20190827 (Red Hat 9.2.1-1)
REM options -cpp -mtune=generic -march=x86-64 -g -O0 -fpre-include=/usr/include/finclude/math-vector-fortran.h
REM seed -112428604 337368090 150157426 794516800 -872791456 -1413391168 -542055207 -1910908399 -300478148 966126832 2135838025 -1276248857 -252542464 406174315 -409086009 -1383256362 -1120273563 -1064460251 41855010 -56460084 -1808547117 -634614450 -1653588570 -2027211520 -944393598 414081952 -825663339 300548013 -856311575 -800242957 1035884187 -1784328737 -309639206
REM
CELL 1.54180   50.00000   50.00000   50.00000   90.00000   90.00000   90.00000
LATT -1
SFAC C  
C      1  0.5056040000000  0.4857810000000  0.5637600000000 1.0
C      1  0.4826340000000  0.5516960000000  0.4412130000000 1.0
C      1  0.4746700000000  0.5032420000000  0.4156310000000 1.0
C      1  0.4417630000000  0.4597610000000  0.5844890000000 1.0
C      1  0.4415000000000  0.5672010000000  0.5485480000000 1.0
C      1  0.4942580000000  0.5041170000000  0.4348800000000 1.0
C      1  0.5753940000000  0.4245030000000  0.6162330000000 1.0
C      1  0.5909550000000  0.5735850000000  0.5711560000000 1.0
C      1  0.4469060000000  0.5114880000000  0.6480200000000 1.0
C      1  0.5583840000000  0.3864370000000  0.5499840000000 1.0
C      1  0.5888850000000  0.5676320000000  0.5005950000000 1.0
C      1  0.5671810000000  0.5802050000000  0.4305570000000 1.0
C      1  0.5988530000000  0.5420940000000  0.5090980000000 1.0
C      1  0.4781900000000  0.5630640000000  0.4146760000000 1.0
C      1  0.5483830000000  0.5639120000000  0.4172900000000 1.0
C      1  0.5639860000000  0.3891720000000  0.4980360000000 1.0
C      1  0.6062850000000  0.5229550000000  0.4890660000000 1.0
C      1  0.5127240000000  0.4703170000000  0.3792680000000 1.0
C      1  0.4095270000000  0.5229210000000  0.5300600000000 1.0
C      1  0.4582890000000  0.6127220000000  0.4791370000000 1.0
C      1  0.5666030000000  0.4586060000000  0.4931350000000 1.0
C      1  0.5015400000000  0.5947780000000  0.4402050000000 1.0
C      1  0.5079170000000  0.5649600000000  0.4814390000000 1.0
C      1  0.6545660000000  0.5058160000000  0.4378680000000 1.0
C      1  0.5834440000000  0.5754270000000  0.4533830000000 1.0
C      1  0.4508470000000  0.4817750000000  0.5361490000000 1.0
C      1  0.3906600000000  0.4860010000000  0.5079340000000 1.0
C      1  0.3966780000000  0.4641670000000  0.6009930000000 1.0
C      1  0.5646320000000  0.4310520000000  0.4488800000000 1.0
C      1  0.5602580000000  0.4436810000000  0.6026830000000 1.0
C      1  0.5068410000000  0.3895110000000  0.6090220000000 1.0
C      1  0.5975630000000  0.5342480000000  0.5367470000000 1.0
C      1  0.5167240000000  0.5208170000000  0.6171250000000 1.0
C      1  0.5400050000000  0.4734350000000  0.3907970000000 1.0
C      1  0.5475560000000  0.5309500000000  0.4877600000000 1.0
C      1  0.4720140000000  0.4483930000000  0.4303910000000 1.0
C      1  0.4035240000000  0.5560930000000  0.4882020000000 1.0
C      1  0.4047510000000  0.4841490000000  0.5576620000000 1.0
C      1  0.5549840000000  0.3627820000000  0.4585220000000 1.0
C      1  0.4869010000000  0.4666440000000  0.5719690000000 1.0
C      1  0.4666910000000  0.4747110000000  0.5920140000000 1.0
C      1  0.4041300000000  0.4808600000000  0.4313580000000 1.0
C      1  0.5747930000000  0.4630930000000  0.5542570000000 1.0
C      1  0.5670080000000  0.4507880000000  0.5764510000000 1.0
C      1  0.4933460000000  0.5727950000000  0.4581460000000 1.0
C      1  0.5582620000000  0.6044410000000  0.4854950000000 1.0
C      1  0.4408180000000  0.5892720000000  0.4420790000000 1.0
C      1  0.4459660000000  0.4079910000000  0.5696490000000 1.0
C      1  0.5153820000000  0.4444690000000  0.4978720000000 1.0
C      1  0.5350760000000  0.5391670000000  0.6053250000000 1.0
C      1  0.4574600000000  0.4759720000000  0.4703990000000 1.0
C      1  0.5017610000000  0.5816180000000  0.4128860000000 1.0
C      1  0.5064480000000  0.4994190000000  0.4955970000000 1.0
C      1  0.4935190000000  0.4170410000000  0.4635690000000 1.0
C      1  0.5033510000000  0.4957770000000  0.6188120000000 1.0
C      1  0.4430390000000  0.4297680000000  0.4610540000000 1.0
C      1  0.5053350000000  0.5125950000000  0.5626380000000 1.0
C      1  0.4735320000000  0.5554490000000  0.5149370000000 1.0
C      1  0.6153000000000  0.5323660000000  0.4636020000000 1.0
C      1  0.4396430000000  0.5236870000000  0.4885930000000 1.0
C      1  0.4873840000000  0.6201050000000  0.4812610000000 1.0
C      1  0.5839330000000  0.4774960000000  0.5082450000000 1.0
C      1  0.5184480000000  0.4137580000000  0.4490600000000 1.0
C      1  0.4076750000000  0.5041160000000  0.4144440000000 1.0
C      1  0.4723530000000  0.4969500000000  0.3881430000000 1.0
C      1  0.5564310000000  0.5277470000000  0.5907690000000 1.0
C      1  0.4402070000000  0.4467550000000  0.5064400000000 1.0
C      1  0.5066270000000  0.4275360000000  0.5194050000000 1.0
C      1  0.5258910000000  0.5379280000000  0.4487070000000 1.0
C      1  0.5424530000000  0.5871810000000  0.5892000000000 1.0
C      1  0.4651400000000  0.4106440000000  0.4701600000000 1.0
C      1  0.4058810000000  0.5129020000000  0.5565810000000 1.0
C      1  0.5309960000000  0.5677520000000  0.6072310000000 1.0
C      1  0.4513820000000  0.5337270000000  0.6042300000000 1.0
C      1  0.5711140000000  0.5150870000000  0.5723610000000 1.0
C      1  0.5084970000000  0.6091360000000  0.5284410000000 1.0
C      1  0.4539390000000  0.3854000000000  0.5573260000000 1.0
C      1  0.4520680000000  0.4353260000000  0.5711490000000 1.0
C      1  0.3873840000000  0.4848290000000  0.4544460000000 1.0
C      1  0.5504770000000  0.5325250000000  0.5152160000000 1.0
C      1  0.5549970000000  0.3874520000000  0.4716500000000 1.0
C      1  0.5386570000000  0.4559980000000  0.6155270000000 1.0
C      1  0.4942870000000  0.4494070000000  0.3842400000000 1.0
C      1  0.5543550000000  0.3400850000000  0.4457320000000 1.0
C      1  0.5666720000000  0.4373580000000  0.4205810000000 1.0
C      1  0.5542490000000  0.5117570000000  0.4235770000000 1.0
C      1  0.4815520000000  0.4352460000000  0.5317100000000 1.0
C      1  0.4368500000000  0.5383920000000  0.3929040000000 1.0
C      1  0.5297310000000  0.5481550000000  0.4746360000000 1.0
C      1  0.4045560000000  0.4730540000000  0.5304490000000 1.0
C      1  0.4246770000000  0.5381080000000  0.5972550000000 1.0
C      1  0.5196690000000  0.4586390000000  0.4310520000000 1.0
C      1  0.5036710000000  0.4791810000000  0.4433780000000 1.0
C      1  0.4720120000000  0.5425340000000  0.5872520000000 1.0
C      1  0.4682330000000  0.3752110000000  0.5368000000000 1.0
C      1  0.5491720000000  0.5054750000000  0.4743220000000 1.0
C      1  0.4491360000000  0.6143550000000  0.4508640000000 1.0
C      1  0.4147200000000  0.4694040000000  0.5808160000000 1.0
C      1  0.6006950000000  0.4957230000000  0.4941630000000 1.0
C      1  0.4800030000000  0.5021200000000  0.5025390000000 1.0
C      1  0.3903490000000  0.4755640000000  0.4813010000000 1.0
C      1  0.4969860000000  0.4441430000000  0.4753040000000 1.0
C      1  0.4775450000000  0.4430920000000  0.4045170000000 1.0
C      1  0.5223630000000  0.4164140000000  0.4018480000000 1.0
C      1  0.5458850000000  0.5382010000000  0.4293710000000 1.0
C      1  0.4418370000000  0.4529410000000  0.4790260000000 1.0
C      1  0.4200110000000  0.4582440000000  0.4216370000000 1.0
C      1  0.4340990000000  0.5300400000000  0.5175590000000 1.0
C      1  0.4275740000000  0.4353120000000  0.4373970000000 1.0
C      1  0.5791050000000  0.4763120000000  0.4503980000000 1.0
C      1  0.5888830000000  0.4057590000000  0.6283120000000 1.0
C      1  0.4500470000000  0.5505580000000  0.5287050000000 1.0
C      1  0.5192880000000  0.4301420000000  0.4254460000000 1.0
C      1  0.4268110000000  0.5121470000000  0.3949540000000 1.0
C      1  0.5770310000000  0.5839030000000  0.4802300000000 1.0
C      1  0.5581100000000  0.4537190000000  0.4005280000000 1.0
C      1  0.4073600000000  0.5290240000000  0.5791610000000 1.0
C      1  0.6020880000000  0.5550910000000  0.5554480000000 1.0
C      1  0.3694140000000  0.5070220000000  0.4531190000000 1.0
C      1  0.4311260000000  0.4652640000000  0.5247920000000 1.0
C      1  0.5090140000000  0.6201520000000  0.5017150000000 1.0
C      1  0.4138370000000  0.5817490000000  0.4994770000000 1.0
C      1  0.5272700000000  0.6075440000000  0.5760910000000 1.0
C      1  0.5379030000000  0.4620660000000  0.4959240000000 1.0
C      1  0.5437450000000  0.5456240000000  0.5372190000000 1.0
C      1  0.4771880000000  0.4435800000000  0.5581540000000 1.0
C      1  0.5306260000000  0.4882310000000  0.4877390000000 1.0
C      1  0.5157980000000  0.6187530000000  0.5541550000000 1.0
C      1  0.5203830000000  0.5166910000000  0.3849280000000 1.0
C      1  0.5814680000000  0.4836650000000  0.5362940000000 1.0
C      1  0.5000170000000  0.5295720000000  0.4429730000000 1.0
C      1  0.5104190000000  0.5809040000000  0.5274550000000 1.0
C      1  0.3673460000000  0.5282000000000  0.4697420000000 1.0
C      1  0.4971110000000  0.5671370000000  0.5071210000000 1.0
C      1  0.4816430000000  0.4634160000000  0.4564150000000 1.0
C      1  0.4279740000000  0.5456380000000  0.4733790000000 1.0
C      1  0.4991540000000  0.6193110000000  0.4540750000000 1.0
C      1  0.5698070000000  0.5848300000000  0.5828430000000 1.0
C      1  0.5196310000000  0.5452190000000  0.3840900000000 1.0
C      1  0.5193810000000  0.4729960000000  0.6221870000000 1.0
C      1  0.5249480000000  0.5684280000000  0.4008650000000 1.0
C      1  0.4565700000000  0.5555940000000  0.3987690000000 1.0
C      1  0.5440630000000  0.3850780000000  0.5722540000000 1.0
C      1  0.4337230000000  0.4648510000000  0.3966460000000 1.0
C      1  0.5066860000000  0.3986500000000  0.5167760000000 1.0
C      1  0.5156360000000  0.5772460000000  0.6280280000000 1.0
C      1  0.4403120000000  0.5702830000000  0.4640340000000 1.0
C      1  0.4575110000000  0.5126150000000  0.6223340000000 1.0
C      1  0.5459580000000  0.4104700000000  0.4580380000000 1.0
C      1  0.5256790000000  0.3860840000000  0.5913300000000 1.0
C      1  0.6030440000000  0.5549900000000  0.4520310000000 1.0
C      1  0.5845810000000  0.5103980000000  0.5475360000000 1.0
C      1  0.5617250000000  0.4984190000000  0.4485930000000 1.0
C      1  0.4587920000000  0.4276060000000  0.5151110000000 1.0
C      1  0.4366630000000  0.5102030000000  0.6719480000000 1.0
C      1  0.5740160000000  0.4525420000000  0.4655910000000 1.0
C      1  0.3897850000000  0.5150330000000  0.5109060000000 1.0
C      1  0.5425800000000  0.5015530000000  0.3989720000000 1.0
C      1  0.4439320000000  0.4900200000000  0.3862930000000 1.0
C      1  0.4632750000000  0.4039900000000  0.4986070000000 1.0
C      1  0.4912170000000  0.5338200000000  0.5708280000000 1.0
C      1  0.4399860000000  0.5899270000000  0.4882150000000 1.0
C      1  0.6360590000000  0.5192770000000  0.4503340000000 1.0
C      1  0.5654460000000  0.3882740000000  0.5244880000000 1.0
C      1  0.5281790000000  0.5662860000000  0.5429670000000 1.0
C      1  0.4806250000000  0.3862890000000  0.5137780000000 1.0
C      1  0.3834800000000  0.5356750000000  0.4916490000000 1.0
C      1  0.5358830000000  0.6184960000000  0.4908230000000 1.0
C      1  0.4752860000000  0.4927150000000  0.6124890000000 1.0
C      1  0.4994050000000  0.4967150000000  0.3771980000000 1.0
C      1  0.4583700000000  0.5018490000000  0.4835210000000 1.0
C      1  0.4715490000000  0.4965310000000  0.5284610000000 1.0
END
