TITL C-627108-131-239 -2751.99677722366 125000 -670.205598951426 0 0 111 (C1) n - 1
REM
REM in /home/nfs/bkarasulu/CARBON/AIRSS/Generating-Clusters/LCBOP/Only-C1/SD-CG/FIRE-CG
REM
REM
REM
REM
REM
REM ./C.cell (11c1c37f851c82e70ff6c80c92926a4b)
REM AIRSS Version 0.9.1 bugfix July 2018 build 013d7b7c2542+ Fri, 06 Jul 2018 19:26:36 +0100
REM compiler GCC version 9.2.1 20190827 (Red Hat 9.2.1-1)
REM options -cpp -mtune=generic -march=x86-64 -g -O0 -fpre-include=/usr/include/finclude/math-vector-fortran.h
REM seed -1183064286 709907395 62805884 -794700599 -1918895681 -1618892652 -1604576448 -1694241063 -480067922 -140053615 -576424463 -1370265060 239472600 277586724 1041144878 -1544338300 -432064570 -714807450 -1359150590 414721653 650450314 -2080635587 -1758115446 -1784295622 958902406 -999666547 688720571 903558677 854387552 -670545676 1809054665 -2096577033 -2082922672
REM
CELL 1.54180   50.00000   50.00000   50.00000   90.00000   90.00000   90.00000
LATT -1
SFAC C  
C      1  0.4202600000000  0.5844060000000  0.4700970000000 1.0
C      1  0.4851400000000  0.4221700000000  0.5024480000000 1.0
C      1  0.4748480000000  0.5391000000000  0.5735850000000 1.0
C      1  0.4766380000000  0.4801590000000  0.4233290000000 1.0
C      1  0.5031300000000  0.5370230000000  0.5196400000000 1.0
C      1  0.4201200000000  0.4505750000000  0.4517890000000 1.0
C      1  0.5372960000000  0.5079180000000  0.5083440000000 1.0
C      1  0.5374740000000  0.5462620000000  0.4769430000000 1.0
C      1  0.5657000000000  0.5021740000000  0.5084320000000 1.0
C      1  0.5445840000000  0.4356680000000  0.5434110000000 1.0
C      1  0.4096110000000  0.4294430000000  0.5128410000000 1.0
C      1  0.6112230000000  0.4929340000000  0.4508130000000 1.0
C      1  0.4067610000000  0.4727670000000  0.4913850000000 1.0
C      1  0.4621640000000  0.5315620000000  0.5489570000000 1.0
C      1  0.5786880000000  0.5067670000000  0.5534930000000 1.0
C      1  0.4883780000000  0.4224340000000  0.4240990000000 1.0
C      1  0.5432470000000  0.5420250000000  0.4263660000000 1.0
C      1  0.5790610000000  0.4784200000000  0.5522540000000 1.0
C      1  0.5194760000000  0.5881990000000  0.4592730000000 1.0
C      1  0.5398530000000  0.4368850000000  0.5736660000000 1.0
C      1  0.4052120000000  0.4579750000000  0.5152630000000 1.0
C      1  0.5021750000000  0.5754970000000  0.4426220000000 1.0
C      1  0.4831740000000  0.5649080000000  0.5790320000000 1.0
C      1  0.5189660000000  0.5145290000000  0.5292480000000 1.0
C      1  0.4081490000000  0.5632870000000  0.4595080000000 1.0
C      1  0.4288680000000  0.4677000000000  0.4302220000000 1.0
C      1  0.5539140000000  0.4154660000000  0.5221070000000 1.0
C      1  0.5297540000000  0.4605740000000  0.5833980000000 1.0
C      1  0.5303990000000  0.4638290000000  0.4151880000000 1.0
C      1  0.5953560000000  0.5674880000000  0.4834810000000 1.0
C      1  0.4763590000000  0.5324570000000  0.4238520000000 1.0
C      1  0.4582290000000  0.5379590000000  0.5007680000000 1.0
C      1  0.5573490000000  0.5005840000000  0.4018920000000 1.0
C      1  0.5157080000000  0.4419480000000  0.5346000000000 1.0
C      1  0.5254610000000  0.4952910000000  0.4858420000000 1.0
C      1  0.5207220000000  0.4828760000000  0.5706530000000 1.0
C      1  0.4180460000000  0.4711630000000  0.5369920000000 1.0
C      1  0.5875810000000  0.5056450000000  0.4417580000000 1.0
C      1  0.4356530000000  0.5990700000000  0.4859880000000 1.0
C      1  0.4572310000000  0.4593760000000  0.4269980000000 1.0
C      1  0.4880080000000  0.5563630000000  0.4295670000000 1.0
C      1  0.4507930000000  0.4824840000000  0.4750140000000 1.0
C      1  0.4567210000000  0.5065150000000  0.4601070000000 1.0
C      1  0.4599940000000  0.4940910000000  0.5778290000000 1.0
C      1  0.5127290000000  0.4909140000000  0.5446000000000 1.0
C      1  0.5140060000000  0.4984300000000  0.4406090000000 1.0
C      1  0.4279040000000  0.4646710000000  0.4749340000000 1.0
C      1  0.5044590000000  0.6065900000000  0.5917080000000 1.0
C      1  0.4790350000000  0.4221180000000  0.5569810000000 1.0
C      1  0.5473020000000  0.5245590000000  0.5928270000000 1.0
C      1  0.4673230000000  0.5066640000000  0.4328370000000 1.0
C      1  0.5560760000000  0.4626840000000  0.4333150000000 1.0
C      1  0.4108770000000  0.5133610000000  0.5141000000000 1.0
C      1  0.4742480000000  0.5379990000000  0.5243200000000 1.0
C      1  0.4148170000000  0.4933400000000  0.4373550000000 1.0
C      1  0.5407890000000  0.4791270000000  0.3921440000000 1.0
C      1  0.4454630000000  0.5076680000000  0.5538910000000 1.0
C      1  0.4968420000000  0.5138450000000  0.6100200000000 1.0
C      1  0.5776970000000  0.5471540000000  0.5225960000000 1.0
C      1  0.5571020000000  0.4130260000000  0.4950480000000 1.0
C      1  0.5843220000000  0.4616820000000  0.4742710000000 1.0
C      1  0.4517680000000  0.6068480000000  0.5055830000000 1.0
C      1  0.4666220000000  0.6082170000000  0.5275250000000 1.0
C      1  0.5057900000000  0.4764430000000  0.4247630000000 1.0
C      1  0.5669710000000  0.4462430000000  0.4558630000000 1.0
C      1  0.4351100000000  0.4203160000000  0.5037450000000 1.0
C      1  0.4652640000000  0.4614090000000  0.5378910000000 1.0
C      1  0.5548210000000  0.5884640000000  0.5018450000000 1.0
C      1  0.4595710000000  0.4186680000000  0.4890590000000 1.0
C      1  0.5120000000000  0.5448620000000  0.4920380000000 1.0
C      1  0.4569570000000  0.4167910000000  0.4598100000000 1.0
C      1  0.5677200000000  0.4772470000000  0.4918170000000 1.0
C      1  0.4021070000000  0.5376980000000  0.4557890000000 1.0
C      1  0.5761800000000  0.5689910000000  0.5041880000000 1.0
C      1  0.5383430000000  0.5920600000000  0.4784740000000 1.0
C      1  0.4768850000000  0.5154320000000  0.5899300000000 1.0
C      1  0.4052170000000  0.5100590000000  0.4603310000000 1.0
C      1  0.5015610000000  0.4429270000000  0.4891560000000 1.0
C      1  0.5527670000000  0.5401500000000  0.4530660000000 1.0
C      1  0.5699280000000  0.4892030000000  0.4261010000000 1.0
C      1  0.4935530000000  0.4224280000000  0.5317980000000 1.0
C      1  0.4723160000000  0.4404130000000  0.5766320000000 1.0
C      1  0.5494040000000  0.4284050000000  0.4721560000000 1.0
C      1  0.5667250000000  0.4569440000000  0.5419570000000 1.0
C      1  0.4227820000000  0.4998260000000  0.5370890000000 1.0
C      1  0.5102580000000  0.5069610000000  0.4661370000000 1.0
C      1  0.5674490000000  0.5194530000000  0.5759640000000 1.0
C      1  0.5984830000000  0.5488530000000  0.4643920000000 1.0
C      1  0.5396170000000  0.4713130000000  0.4837910000000 1.0
C      1  0.4428950000000  0.3943960000000  0.4511540000000 1.0
C      1  0.5231820000000  0.5224710000000  0.6042070000000 1.0
C      1  0.4405510000000  0.4571520000000  0.5453430000000 1.0
C      1  0.4954240000000  0.5293810000000  0.4740640000000 1.0
C      1  0.6096110000000  0.4709800000000  0.4665110000000 1.0
C      1  0.4695680000000  0.4782200000000  0.4949780000000 1.0
C      1  0.5485740000000  0.5272530000000  0.4043140000000 1.0
C      1  0.4673720000000  0.5277060000000  0.4762840000000 1.0
C      1  0.3897080000000  0.4117320000000  0.5190360000000 1.0
C      1  0.4907050000000  0.5042540000000  0.6348960000000 1.0
C      1  0.5193540000000  0.6201200000000  0.6082690000000 1.0
C      1  0.4034170000000  0.5010940000000  0.4887260000000 1.0
C      1  0.4790350000000  0.6035460000000  0.5504930000000 1.0
C      1  0.5497910000000  0.6045910000000  0.5235760000000 1.0
C      1  0.4653080000000  0.4661820000000  0.5834550000000 1.0
C      1  0.5800120000000  0.5306470000000  0.4535570000000 1.0
C      1  0.5274140000000  0.4457940000000  0.4787310000000 1.0
C      1  0.5784800000000  0.5190820000000  0.5275760000000 1.0
C      1  0.5057360000000  0.4684190000000  0.5282970000000 1.0
C      1  0.4671070000000  0.4336860000000  0.4380310000000 1.0
C      1  0.4931990000000  0.4670860000000  0.5030830000000 1.0
C      1  0.4889210000000  0.5917840000000  0.5738800000000 1.0
END
