TITL C-627106-156-1186 -54.9688808567226 125000 -588.519423898193 0 0 98 (C1) n - 1
REM
REM in /home/nfs/bkarasulu/CARBON/AIRSS/Generating-Clusters/LCBOP/Only-C1/SD-CG/FIRE-CG
REM
REM
REM
REM
REM
REM ./C.cell (11c1c37f851c82e70ff6c80c92926a4b)
REM AIRSS Version 0.9.1 bugfix July 2018 build 013d7b7c2542+ Fri, 06 Jul 2018 19:26:36 +0100
REM compiler GCC version 9.2.1 20190827 (Red Hat 9.2.1-1)
REM options -cpp -mtune=generic -march=x86-64 -g -O0 -fpre-include=/usr/include/finclude/math-vector-fortran.h
REM seed -1381712638 900403486 1117808935 -1127200536 -1749565201 881745922 -1539419284 1204810525 -1793893792 2049902547 -28858645 1638409595 1168657567 11672397 -1080391470 -323558596 -511456482 1049817059 -1430388130 226473978 -871555444 1029772118 241455260 -144551812 906966746 -1140259589 25291733 -725925551 -621562853 254848787 -1263900102 2078365161 -32455712
REM
CELL 1.54180   50.00000   50.00000   50.00000   90.00000   90.00000   90.00000
LATT -1
SFAC C  
C      1  0.5545470000000  0.4968850000000  0.4415270000000 1.0
C      1  0.5364230000000  0.5625370000000  0.5837370000000 1.0
C      1  0.5319910000000  0.5804990000000  0.5626070000000 1.0
C      1  0.4924230000000  0.4820740000000  0.5855300000000 1.0
C      1  0.4592050000000  0.4724530000000  0.3992770000000 1.0
C      1  0.4436370000000  0.5311740000000  0.5042380000000 1.0
C      1  0.4724990000000  0.4860780000000  0.4666630000000 1.0
C      1  0.5534520000000  0.5883680000000  0.5465190000000 1.0
C      1  0.4446380000000  0.4921240000000  0.4687620000000 1.0
C      1  0.4770990000000  0.4638880000000  0.4866680000000 1.0
C      1  0.4651500000000  0.4202500000000  0.5566530000000 1.0
C      1  0.4709860000000  0.5863270000000  0.4611770000000 1.0
C      1  0.5905730000000  0.5931250000000  0.5091090000000 1.0
C      1  0.5712010000000  0.5000640000000  0.5504730000000 1.0
C      1  0.4731440000000  0.4498530000000  0.4403790000000 1.0
C      1  0.4322230000000  0.5268060000000  0.5299260000000 1.0
C      1  0.5235240000000  0.4825600000000  0.3807250000000 1.0
C      1  0.5617080000000  0.3544070000000  0.6198830000000 1.0
C      1  0.4409190000000  0.5182000000000  0.4093290000000 1.0
C      1  0.4260270000000  0.4279630000000  0.4909710000000 1.0
C      1  0.4175620000000  0.5090050000000  0.4232090000000 1.0
C      1  0.4384840000000  0.5576820000000  0.4950090000000 1.0
C      1  0.4747610000000  0.4814390000000  0.5634020000000 1.0
C      1  0.4074640000000  0.5470560000000  0.4588070000000 1.0
C      1  0.5301080000000  0.4222110000000  0.5576910000000 1.0
C      1  0.5661140000000  0.4979820000000  0.5199280000000 1.0
C      1  0.5154440000000  0.4216030000000  0.5108930000000 1.0
C      1  0.5073700000000  0.5381850000000  0.4985810000000 1.0
C      1  0.4882660000000  0.5112910000000  0.3983220000000 1.0
C      1  0.5801630000000  0.4494840000000  0.4975030000000 1.0
C      1  0.4555680000000  0.5022340000000  0.5626200000000 1.0
C      1  0.5535060000000  0.4192090000000  0.5728050000000 1.0
C      1  0.4865940000000  0.5020630000000  0.5115060000000 1.0
C      1  0.4117780000000  0.4812970000000  0.4248940000000 1.0
C      1  0.6172490000000  0.4995860000000  0.5664620000000 1.0
C      1  0.4194890000000  0.4536080000000  0.4869820000000 1.0
C      1  0.4621690000000  0.5688580000000  0.5358420000000 1.0
C      1  0.4594840000000  0.5739040000000  0.5074220000000 1.0
C      1  0.4798370000000  0.5792260000000  0.4883580000000 1.0
C      1  0.4249450000000  0.4576070000000  0.4269750000000 1.0
C      1  0.5724880000000  0.5919380000000  0.5284490000000 1.0
C      1  0.4835190000000  0.5701000000000  0.4409380000000 1.0
C      1  0.5082900000000  0.4914280000000  0.4015480000000 1.0
C      1  0.5463990000000  0.4492880000000  0.4399660000000 1.0
C      1  0.5568180000000  0.4325190000000  0.4580970000000 1.0
C      1  0.5340280000000  0.4397280000000  0.4994460000000 1.0
C      1  0.5125970000000  0.4954160000000  0.5973830000000 1.0
C      1  0.4491700000000  0.5451850000000  0.4135210000000 1.0
C      1  0.5136500000000  0.5130570000000  0.5083980000000 1.0
C      1  0.5678430000000  0.5156300000000  0.4548490000000 1.0
C      1  0.5105830000000  0.4811100000000  0.4280990000000 1.0
C      1  0.4052440000000  0.5895750000000  0.4809990000000 1.0
C      1  0.5586900000000  0.4349640000000  0.4860190000000 1.0
C      1  0.5346220000000  0.4929710000000  0.5172730000000 1.0
C      1  0.5370310000000  0.4755330000000  0.4367390000000 1.0
C      1  0.5347790000000  0.5107090000000  0.5885830000000 1.0
C      1  0.4211010000000  0.4811310000000  0.4806920000000 1.0
C      1  0.4336770000000  0.5019360000000  0.5437730000000 1.0
C      1  0.6079650000000  0.5932570000000  0.4896890000000 1.0
C      1  0.4753170000000  0.5544110000000  0.4185710000000 1.0
C      1  0.4463030000000  0.4102050000000  0.4896040000000 1.0
C      1  0.4728860000000  0.4156460000000  0.4818630000000 1.0
C      1  0.5082260000000  0.5612370000000  0.4550560000000 1.0
C      1  0.4614050000000  0.5009200000000  0.3989030000000 1.0
C      1  0.5810280000000  0.4736200000000  0.5093580000000 1.0
C      1  0.5739440000000  0.5219270000000  0.5042990000000 1.0
C      1  0.5005060000000  0.6158840000000  0.5521430000000 1.0
C      1  0.4055570000000  0.5278150000000  0.4404200000000 1.0
C      1  0.5276000000000  0.4899630000000  0.5465320000000 1.0
C      1  0.4703340000000  0.5221940000000  0.5020460000000 1.0
C      1  0.5564420000000  0.3967800000000  0.5892270000000 1.0
C      1  0.4870860000000  0.4763630000000  0.4433270000000 1.0
C      1  0.5463370000000  0.5008000000000  0.5649460000000 1.0
C      1  0.5747850000000  0.5268700000000  0.4779910000000 1.0
C      1  0.4802070000000  0.4744360000000  0.5133230000000 1.0
C      1  0.4453230000000  0.5467610000000  0.5472060000000 1.0
C      1  0.4955060000000  0.5379270000000  0.4057220000000 1.0
C      1  0.5027100000000  0.5609150000000  0.4834440000000 1.0
C      1  0.5297040000000  0.4672440000000  0.5034060000000 1.0
C      1  0.4750340000000  0.4404080000000  0.4684870000000 1.0
C      1  0.4963360000000  0.4076990000000  0.4953300000000 1.0
C      1  0.5740170000000  0.4382810000000  0.5717510000000 1.0
C      1  0.5934410000000  0.4869730000000  0.5623680000000 1.0
C      1  0.4170560000000  0.5650290000000  0.4782430000000 1.0
C      1  0.3995080000000  0.4968330000000  0.4868120000000 1.0
C      1  0.4849420000000  0.5702860000000  0.5542050000000 1.0
C      1  0.5223160000000  0.5439800000000  0.4128140000000 1.0
C      1  0.5889800000000  0.4601650000000  0.5696330000000 1.0
C      1  0.4610390000000  0.5305640000000  0.5673960000000 1.0
C      1  0.4834210000000  0.5476790000000  0.5722980000000 1.0
C      1  0.5286080000000  0.5529810000000  0.4376410000000 1.0
C      1  0.5590940000000  0.3754290000000  0.6046880000000 1.0
C      1  0.4843170000000  0.4363170000000  0.5455060000000 1.0
C      1  0.5056120000000  0.5892780000000  0.5560540000000 1.0
C      1  0.5098890000000  0.4255920000000  0.5386870000000 1.0
C      1  0.4787650000000  0.4638610000000  0.5403140000000 1.0
C      1  0.5377910000000  0.5379850000000  0.5940920000000 1.0
C      1  0.4524090000000  0.4541000000000  0.4204630000000 1.0
END
