TITL C-627108-131-228 0.257369175415503 125000 -259.986055407391 0 0 44 (C1) n - 1
REM
REM in /home/nfs/bkarasulu/CARBON/AIRSS/Generating-Clusters/LCBOP/Only-C1/SD-CG/FIRE-CG
REM
REM
REM
REM
REM
REM ./C.cell (11c1c37f851c82e70ff6c80c92926a4b)
REM AIRSS Version 0.9.1 bugfix July 2018 build 013d7b7c2542+ Fri, 06 Jul 2018 19:26:36 +0100
REM compiler GCC version 9.2.1 20190827 (Red Hat 9.2.1-1)
REM options -cpp -mtune=generic -march=x86-64 -g -O0 -fpre-include=/usr/include/finclude/math-vector-fortran.h
REM seed 1001623584 2075190054 -656702179 145801619 1341419719 -1962860034 763352121 413607483 -588383625 -185731977 -2072929311 2078427352 -258910340 -87990723 1614425364 1018818986 1216229342 1435593600 -2128037507 -1393009033 1421167507 -1969916735 -1159208452 -2061402519 726595872 753740157 -1049757075 -1822864273 1196071479 358614874 1166762839 -9563018 -331211845
REM
CELL 1.54180   50.00000   50.00000   50.00000   90.00000   90.00000   90.00000
LATT -1
SFAC C  
C      1  0.5557950000000  0.6040180000000  0.4988090000000 1.0
C      1  0.4538110000000  0.4956130000000  0.5580960000000 1.0
C      1  0.5861770000000  0.5145730000000  0.4085670000000 1.0
C      1  0.5043900000000  0.5756720000000  0.5450550000000 1.0
C      1  0.4760190000000  0.5229770000000  0.5020470000000 1.0
C      1  0.5045190000000  0.4056480000000  0.4878410000000 1.0
C      1  0.5351980000000  0.4841570000000  0.5368290000000 1.0
C      1  0.4611780000000  0.5199940000000  0.5696650000000 1.0
C      1  0.5151450000000  0.4675040000000  0.5260130000000 1.0
C      1  0.4189100000000  0.4769690000000  0.4994370000000 1.0
C      1  0.4103000000000  0.4646400000000  0.5689600000000 1.0
C      1  0.5983470000000  0.5217200000000  0.3861310000000 1.0
C      1  0.4881960000000  0.5636900000000  0.5623560000000 1.0
C      1  0.5350480000000  0.4719180000000  0.4823310000000 1.0
C      1  0.4648450000000  0.4710710000000  0.4515080000000 1.0
C      1  0.5492100000000  0.4958540000000  0.4778920000000 1.0
C      1  0.4479510000000  0.4903520000000  0.4626630000000 1.0
C      1  0.4855900000000  0.3588290000000  0.4732190000000 1.0
C      1  0.5210530000000  0.4557210000000  0.5006300000000 1.0
C      1  0.3990320000000  0.4608820000000  0.5435510000000 1.0
C      1  0.5502200000000  0.5145820000000  0.4995090000000 1.0
C      1  0.4887120000000  0.4704140000000  0.5345760000000 1.0
C      1  0.5740160000000  0.5074710000000  0.4310140000000 1.0
C      1  0.5645410000000  0.5591290000000  0.4839630000000 1.0
C      1  0.6103160000000  0.5287510000000  0.3640630000000 1.0
C      1  0.5204910000000  0.5531900000000  0.5049910000000 1.0
C      1  0.5134690000000  0.4296730000000  0.4944910000000 1.0
C      1  0.5194800000000  0.5766440000000  0.5215570000000 1.0
C      1  0.4729980000000  0.5437160000000  0.5710220000000 1.0
C      1  0.4950130000000  0.3820130000000  0.4805210000000 1.0
C      1  0.3990400000000  0.4542880000000  0.5915230000000 1.0
C      1  0.4666120000000  0.4876630000000  0.5339500000000 1.0
C      1  0.5497250000000  0.5037660000000  0.5255680000000 1.0
C      1  0.4607970000000  0.5004970000000  0.5090790000000 1.0
C      1  0.4030090000000  0.4661650000000  0.5177640000000 1.0
C      1  0.4965610000000  0.5395920000000  0.4995730000000 1.0
C      1  0.5619080000000  0.5009140000000  0.4536390000000 1.0
C      1  0.5453280000000  0.5421750000000  0.4956000000000 1.0
C      1  0.4423170000000  0.4893670000000  0.4905170000000 1.0
C      1  0.4339180000000  0.4797500000000  0.5696320000000 1.0
C      1  0.5342510000000  0.5994610000000  0.5142840000000 1.0
C      1  0.5696820000000  0.5855280000000  0.4849140000000 1.0
C      1  0.4799510000000  0.4535000000000  0.4395820000000 1.0
C      1  0.4369310000000  0.5099520000000  0.4470700000000 1.0
END
