TITL C-627108-131-1629 9.12978589676809 125000 -413.967542767678 0 0 70 (C1) n - 1
REM
REM in /home/nfs/bkarasulu/CARBON/AIRSS/Generating-Clusters/LCBOP/Only-C1/SD-CG/FIRE-CG
REM
REM
REM
REM
REM
REM ./C.cell (11c1c37f851c82e70ff6c80c92926a4b)
REM AIRSS Version 0.9.1 bugfix July 2018 build 013d7b7c2542+ Fri, 06 Jul 2018 19:26:36 +0100
REM compiler GCC version 9.2.1 20190827 (Red Hat 9.2.1-1)
REM options -cpp -mtune=generic -march=x86-64 -g -O0 -fpre-include=/usr/include/finclude/math-vector-fortran.h
REM seed -753909064 -858650154 -626237886 -98829942 552629205 -1826238455 -66991355 -998206731 -1518254263 -276587623 692067231 -580275066 -1391140324 1465800645 312870151 99498597 985612376 -1228504304 1187639213 213027175 -1551717783 1202731233 -259152691 1552385552 1953576378 -1335626347 -924079580 -596349114 1424256862 -1731624010 -1764093017 -206056222 492605401
REM
CELL 1.54180   50.00000   50.00000   50.00000   90.00000   90.00000   90.00000
LATT -1
SFAC C  
C      1  0.3564270000000  0.5316240000000  0.4922570000000 1.0
C      1  0.5378130000000  0.5556240000000  0.4762250000000 1.0
C      1  0.5513620000000  0.4684530000000  0.3895950000000 1.0
C      1  0.4761790000000  0.5146510000000  0.4660780000000 1.0
C      1  0.5705960000000  0.3472720000000  0.5056570000000 1.0
C      1  0.5440710000000  0.3556740000000  0.4358070000000 1.0
C      1  0.5205920000000  0.5358170000000  0.4654690000000 1.0
C      1  0.4975250000000  0.5606310000000  0.5195770000000 1.0
C      1  0.5149770000000  0.5939660000000  0.4526010000000 1.0
C      1  0.4486620000000  0.6040180000000  0.5801160000000 1.0
C      1  0.5353480000000  0.5071750000000  0.4218680000000 1.0
C      1  0.5866910000000  0.3360900000000  0.5252270000000 1.0
C      1  0.4756300000000  0.5818810000000  0.5234530000000 1.0
C      1  0.5266780000000  0.5950720000000  0.5006290000000 1.0
C      1  0.5247400000000  0.6612590000000  0.5621220000000 1.0
C      1  0.4838030000000  0.6010080000000  0.5464360000000 1.0
C      1  0.4224060000000  0.5891880000000  0.4870860000000 1.0
C      1  0.5312510000000  0.5841970000000  0.4734130000000 1.0
C      1  0.5122230000000  0.5871430000000  0.6108910000000 1.0
C      1  0.5433020000000  0.4888430000000  0.4044620000000 1.0
C      1  0.4036640000000  0.5964660000000  0.5578420000000 1.0
C      1  0.5061440000000  0.6136220000000  0.5072690000000 1.0
C      1  0.4029170000000  0.5870900000000  0.5327490000000 1.0
C      1  0.4251770000000  0.5305630000000  0.4627990000000 1.0
C      1  0.5436710000000  0.5521540000000  0.5046290000000 1.0
C      1  0.4224140000000  0.6030440000000  0.5757140000000 1.0
C      1  0.5386760000000  0.3729580000000  0.4837880000000 1.0
C      1  0.5435030000000  0.3809040000000  0.5334040000000 1.0
C      1  0.4779140000000  0.4761380000000  0.5529740000000 1.0
C      1  0.5596730000000  0.4451520000000  0.3765580000000 1.0
C      1  0.5064270000000  0.4332430000000  0.5645770000000 1.0
C      1  0.4382820000000  0.5015580000000  0.5413780000000 1.0
C      1  0.5309060000000  0.3334680000000  0.4251080000000 1.0
C      1  0.4814280000000  0.5150300000000  0.5244020000000 1.0
C      1  0.4964230000000  0.5293250000000  0.4799060000000 1.0
C      1  0.5186790000000  0.3125940000000  0.4154130000000 1.0
C      1  0.4696130000000  0.6008550000000  0.4729800000000 1.0
C      1  0.5700740000000  0.3409000000000  0.4775160000000 1.0
C      1  0.5503620000000  0.3680980000000  0.5098280000000 1.0
C      1  0.4913870000000  0.4547560000000  0.5609190000000 1.0
C      1  0.5558160000000  0.3804740000000  0.5799840000000 1.0
C      1  0.5508160000000  0.3771510000000  0.4192540000000 1.0
C      1  0.4754510000000  0.5993880000000  0.5733280000000 1.0
C      1  0.5580540000000  0.4206900000000  0.3900140000000 1.0
C      1  0.5274960000000  0.5226930000000  0.4418490000000 1.0
C      1  0.4659170000000  0.4976410000000  0.5398260000000 1.0
C      1  0.5503630000000  0.3564430000000  0.4630010000000 1.0
C      1  0.5551990000000  0.3985160000000  0.4042220000000 1.0
C      1  0.5903270000000  0.3444230000000  0.5749420000000 1.0
C      1  0.3937460000000  0.5163270000000  0.5187990000000 1.0
C      1  0.5225740000000  0.4122470000000  0.5640730000000 1.0
C      1  0.5022850000000  0.6206150000000  0.5351750000000 1.0
C      1  0.5747610000000  0.3628450000000  0.5864370000000 1.0
C      1  0.4939500000000  0.5928470000000  0.5932080000000 1.0
C      1  0.5139180000000  0.6418690000000  0.5484840000000 1.0
C      1  0.5945810000000  0.3343170000000  0.5505960000000 1.0
C      1  0.4886190000000  0.5997970000000  0.4521930000000 1.0
C      1  0.3830360000000  0.5261650000000  0.4948490000000 1.0
C      1  0.5403960000000  0.3913580000000  0.5592520000000 1.0
C      1  0.4917890000000  0.5350900000000  0.5078610000000 1.0
C      1  0.4134970000000  0.5079390000000  0.5344170000000 1.0
C      1  0.4806380000000  0.4885820000000  0.4589190000000 1.0
C      1  0.4418940000000  0.5974440000000  0.4704970000000 1.0
C      1  0.4477740000000  0.5723330000000  0.5238260000000 1.0
C      1  0.4803720000000  0.6014550000000  0.4991140000000 1.0
C      1  0.4513190000000  0.5264200000000  0.4610690000000 1.0
C      1  0.4225990000000  0.5806730000000  0.5138960000000 1.0
C      1  0.4009920000000  0.5302610000000  0.4737330000000 1.0
C      1  0.5692640000000  0.4462720000000  0.3509700000000 1.0
C      1  0.5249450000000  0.5702240000000  0.5174910000000 1.0
END
