TITL C-627106-156-1849 30314.3864695311 125000 -1188.33726737607 0 0 195 (C1) n - 1
REM
REM in /home/nfs/bkarasulu/CARBON/AIRSS/Generating-Clusters/LCBOP/Only-C1/SD-CG/FIRE-CG
REM
REM
REM
REM
REM
REM ./C.cell (11c1c37f851c82e70ff6c80c92926a4b)
REM AIRSS Version 0.9.1 bugfix July 2018 build 013d7b7c2542+ Fri, 06 Jul 2018 19:26:36 +0100
REM compiler GCC version 9.2.1 20190827 (Red Hat 9.2.1-1)
REM options -cpp -mtune=generic -march=x86-64 -g -O0 -fpre-include=/usr/include/finclude/math-vector-fortran.h
REM seed -2122810591 506574246 -1273138612 -537501593 -385395805 -338343117 -1051678284 -2011722982 52666983 870771765 -1425952472 559671340 -1649195305 -1765932333 1229065223 -1985131610 -1974445797 -561120784 -512056956 -938776917 854603917 -1599865239 -478051642 -199839670 -1063218473 -190904951 712808024 -1609061226 -245705948 -1725005485 -737614203 -1958602020 424079423
REM
CELL 1.54180   50.00000   50.00000   50.00000   90.00000   90.00000   90.00000
LATT -1
SFAC C  
C      1  0.6229450000000  0.5054320000000  0.4936620000000 1.0
C      1  0.4744180000000  0.6194080000000  0.5846180000000 1.0
C      1  0.4510440000000  0.4829330000000  0.3942280000000 1.0
C      1  0.4618570000000  0.5584850000000  0.5296240000000 1.0
C      1  0.5234760000000  0.5887940000000  0.6322150000000 1.0
C      1  0.5747920000000  0.5792920000000  0.5379450000000 1.0
C      1  0.4931130000000  0.4176860000000  0.4440360000000 1.0
C      1  0.5862800000000  0.4736710000000  0.4706250000000 1.0
C      1  0.5663950000000  0.4933660000000  0.5133690000000 1.0
C      1  0.4396170000000  0.4355000000000  0.6021750000000 1.0
C      1  0.4908580000000  0.5535940000000  0.5283400000000 1.0
C      1  0.5574780000000  0.4901970000000  0.4251770000000 1.0
C      1  0.4935680000000  0.5248180000000  0.6184430000000 1.0
C      1  0.3764290000000  0.4765070000000  0.5595640000000 1.0
C      1  0.4783450000000  0.6214530000000  0.5106670000000 1.0
C      1  0.4218750000000  0.4405070000000  0.5539680000000 1.0
C      1  0.3861290000000  0.5120480000000  0.4988260000000 1.0
C      1  0.4414990000000  0.5377170000000  0.5795440000000 1.0
C      1  0.4125180000000  0.5705920000000  0.5151740000000 1.0
C      1  0.5043110000000  0.5456630000000  0.4372030000000 1.0
C      1  0.4457570000000  0.5824900000000  0.5256770000000 1.0
C      1  0.4230410000000  0.5688650000000  0.4686400000000 1.0
C      1  0.3942640000000  0.4830240000000  0.5385320000000 1.0
C      1  0.6096420000000  0.4501730000000  0.4989400000000 1.0
C      1  0.4859650000000  0.5398750000000  0.4133200000000 1.0
C      1  0.3863730000000  0.4498080000000  0.4603800000000 1.0
C      1  0.5862160000000  0.5036980000000  0.5351320000000 1.0
C      1  0.5053460000000  0.4329110000000  0.3752820000000 1.0
C      1  0.5242460000000  0.5192000000000  0.5632060000000 1.0
C      1  0.5767420000000  0.4440060000000  0.4169510000000 1.0
C      1  0.6038940000000  0.4787600000000  0.5357340000000 1.0
C      1  0.5110460000000  0.4886340000000  0.5143460000000 1.0
C      1  0.4440670000000  0.3954950000000  0.5618450000000 1.0
C      1  0.4849270000000  0.6032160000000  0.6068490000000 1.0
C      1  0.4685960000000  0.4360860000000  0.5444590000000 1.0
C      1  0.5479260000000  0.5699050000000  0.3751260000000 1.0
C      1  0.4316640000000  0.4682620000000  0.4094340000000 1.0
C      1  0.4606070000000  0.4977440000000  0.4377610000000 1.0
C      1  0.5519260000000  0.5953030000000  0.3794350000000 1.0
C      1  0.4317900000000  0.4940670000000  0.4504400000000 1.0
C      1  0.4614100000000  0.5155260000000  0.4825830000000 1.0
C      1  0.4644270000000  0.6056940000000  0.5316470000000 1.0
C      1  0.6217620000000  0.5167470000000  0.4644750000000 1.0
C      1  0.5293990000000  0.4474160000000  0.5503470000000 1.0
C      1  0.4438800000000  0.5330420000000  0.6072470000000 1.0
C      1  0.5047910000000  0.4139400000000  0.5745830000000 1.0
C      1  0.3714460000000  0.4909000000000  0.4870830000000 1.0
C      1  0.4783630000000  0.4722470000000  0.3934130000000 1.0
C      1  0.5762980000000  0.4309540000000  0.5555690000000 1.0
C      1  0.5353430000000  0.5186990000000  0.3729700000000 1.0
C      1  0.5929330000000  0.4533560000000  0.5463020000000 1.0
C      1  0.4679930000000  0.5658590000000  0.4602150000000 1.0
C      1  0.4244860000000  0.4671000000000  0.4374170000000 1.0
C      1  0.4984490000000  0.4463840000000  0.4413980000000 1.0
C      1  0.4837670000000  0.5157020000000  0.5502430000000 1.0
C      1  0.5577420000000  0.5570760000000  0.4607370000000 1.0
C      1  0.4750020000000  0.6052870000000  0.5588670000000 1.0
C      1  0.5189170000000  0.4362270000000  0.5267670000000 1.0
C      1  0.5049110000000  0.5501140000000  0.6036860000000 1.0
C      1  0.4598270000000  0.3920150000000  0.5102030000000 1.0
C      1  0.4840890000000  0.4416360000000  0.4941980000000 1.0
C      1  0.6096660000000  0.5531830000000  0.4923680000000 1.0
C      1  0.4899350000000  0.5213120000000  0.4789570000000 1.0
C      1  0.4495560000000  0.5637010000000  0.4819270000000 1.0
C      1  0.5303910000000  0.3866590000000  0.5044860000000 1.0
C      1  0.4648500000000  0.4256670000000  0.6060150000000 1.0
C      1  0.3961830000000  0.5343530000000  0.5456220000000 1.0
C      1  0.4362150000000  0.5170520000000  0.5414980000000 1.0
C      1  0.5799360000000  0.5924880000000  0.4788270000000 1.0
C      1  0.6034590000000  0.5625530000000  0.4445620000000 1.0
C      1  0.5678390000000  0.5173790000000  0.4257640000000 1.0
C      1  0.4486050000000  0.5612810000000  0.3938040000000 1.0
C      1  0.5222610000000  0.4907120000000  0.5684470000000 1.0
C      1  0.3909570000000  0.5104780000000  0.5275980000000 1.0
C      1  0.4383140000000  0.4089790000000  0.5167670000000 1.0
C      1  0.4682820000000  0.4550790000000  0.5659760000000 1.0
C      1  0.5081370000000  0.4702710000000  0.5847930000000 1.0
C      1  0.3612240000000  0.4731560000000  0.5804620000000 1.0
C      1  0.5575100000000  0.6071160000000  0.4936500000000 1.0
C      1  0.5084220000000  0.4988230000000  0.6225550000000 1.0
C      1  0.5024420000000  0.5196720000000  0.4505000000000 1.0
C      1  0.5583280000000  0.5550350000000  0.4932450000000 1.0
C      1  0.4486490000000  0.4051040000000  0.4617930000000 1.0
C      1  0.5790820000000  0.5773760000000  0.4534850000000 1.0
C      1  0.5687910000000  0.4325730000000  0.5832850000000 1.0
C      1  0.5642040000000  0.5150780000000  0.4721480000000 1.0
C      1  0.5353900000000  0.4699770000000  0.3714780000000 1.0
C      1  0.4407860000000  0.4684800000000  0.5160430000000 1.0
C      1  0.5241190000000  0.4940970000000  0.3804740000000 1.0
C      1  0.4807530000000  0.4076850000000  0.5903080000000 1.0
C      1  0.4638820000000  0.3879370000000  0.5786220000000 1.0
C      1  0.4057160000000  0.5581320000000  0.4884600000000 1.0
C      1  0.6110300000000  0.5034310000000  0.4410010000000 1.0
C      1  0.4760630000000  0.4664500000000  0.4493840000000 1.0
C      1  0.5024540000000  0.5606480000000  0.5538130000000 1.0
C      1  0.5324180000000  0.4387330000000  0.5002790000000 1.0
C      1  0.5030440000000  0.3762320000000  0.5035750000000 1.0
C      1  0.5974360000000  0.4782960000000  0.4449670000000 1.0
C      1  0.5066880000000  0.6055160000000  0.4319480000000 1.0
C      1  0.3715350000000  0.4683680000000  0.4727410000000 1.0
C      1  0.6006640000000  0.5300720000000  0.5318550000000 1.0
C      1  0.5171640000000  0.5794620000000  0.5021030000000 1.0
C      1  0.5623260000000  0.5988650000000  0.5224530000000 1.0
C      1  0.4862210000000  0.3866500000000  0.5257280000000 1.0
C      1  0.5275870000000  0.4915170000000  0.4709400000000 1.0
C      1  0.4267160000000  0.4227940000000  0.4692760000000 1.0
C      1  0.5212660000000  0.6142430000000  0.4539840000000 1.0
C      1  0.5612080000000  0.5314270000000  0.4493330000000 1.0
C      1  0.5477200000000  0.4366530000000  0.4532800000000 1.0
C      1  0.4136560000000  0.4448740000000  0.4534680000000 1.0
C      1  0.4135710000000  0.4601530000000  0.5303740000000 1.0
C      1  0.5087770000000  0.3975950000000  0.5480210000000 1.0
C      1  0.4421590000000  0.4197420000000  0.5440230000000 1.0
C      1  0.4759830000000  0.5678280000000  0.4036700000000 1.0
C      1  0.5102040000000  0.4506350000000  0.4864200000000 1.0
C      1  0.4202860000000  0.5308820000000  0.5612110000000 1.0
C      1  0.4998500000000  0.4946120000000  0.3984940000000 1.0
C      1  0.4872350000000  0.4946540000000  0.5297060000000 1.0
C      1  0.4452590000000  0.4695780000000  0.4889980000000 1.0
C      1  0.5318460000000  0.4831460000000  0.4406670000000 1.0
C      1  0.5063970000000  0.6217240000000  0.5014910000000 1.0
C      1  0.4957570000000  0.5653900000000  0.4563980000000 1.0
C      1  0.5297570000000  0.6170400000000  0.4826850000000 1.0
C      1  0.5609580000000  0.4105530000000  0.5407040000000 1.0
C      1  0.4844110000000  0.4460220000000  0.3858200000000 1.0
C      1  0.6182850000000  0.4773890000000  0.5090160000000 1.0
C      1  0.5565030000000  0.4381030000000  0.4822000000000 1.0
C      1  0.5367630000000  0.4746950000000  0.5489960000000 1.0
C      1  0.4612390000000  0.4817720000000  0.5300400000000 1.0
C      1  0.5843410000000  0.4486560000000  0.4844150000000 1.0
C      1  0.4662980000000  0.4897570000000  0.6005880000000 1.0
C      1  0.5364540000000  0.5342710000000  0.5072080000000 1.0
C      1  0.5331790000000  0.3957680000000  0.4764200000000 1.0
C      1  0.5789380000000  0.4708690000000  0.4242330000000 1.0
C      1  0.4636240000000  0.5273890000000  0.4314370000000 1.0
C      1  0.4680750000000  0.5311230000000  0.5672310000000 1.0
C      1  0.5725150000000  0.5061940000000  0.5814920000000 1.0
C      1  0.4884000000000  0.4359010000000  0.5231400000000 1.0
C      1  0.5040820000000  0.5380120000000  0.5063690000000 1.0
C      1  0.4901200000000  0.3813660000000  0.4775750000000 1.0
C      1  0.6164300000000  0.5465970000000  0.4653850000000 1.0
C      1  0.5463110000000  0.4447170000000  0.5963110000000 1.0
C      1  0.4486650000000  0.5372650000000  0.4942470000000 1.0
C      1  0.5767950000000  0.4947730000000  0.4862610000000 1.0
C      1  0.5202010000000  0.4416150000000  0.5790490000000 1.0
C      1  0.3949450000000  0.5609120000000  0.5353190000000 1.0
C      1  0.6165790000000  0.5307260000000  0.5090130000000 1.0
C      1  0.3986520000000  0.5301040000000  0.4803440000000 1.0
C      1  0.5135390000000  0.5424660000000  0.5741980000000 1.0
C      1  0.4617820000000  0.6390500000000  0.4969110000000 1.0
C      1  0.4659700000000  0.4554450000000  0.4763870000000 1.0
C      1  0.4469090000000  0.5351410000000  0.5221790000000 1.0
C      1  0.4215810000000  0.4417320000000  0.5826400000000 1.0
C      1  0.4654070000000  0.5160840000000  0.6138920000000 1.0
C      1  0.4420440000000  0.4946820000000  0.4781340000000 1.0
C      1  0.5679850000000  0.3978680000000  0.4301420000000 1.0
C      1  0.4343830000000  0.5349560000000  0.3986210000000 1.0
C      1  0.5255830000000  0.5638310000000  0.6214250000000 1.0
C      1  0.5428350000000  0.5440950000000  0.3718640000000 1.0
C      1  0.5437100000000  0.5251030000000  0.5424380000000 1.0
C      1  0.5110200000000  0.4781310000000  0.4878600000000 1.0
C      1  0.5076900000000  0.3983100000000  0.4610290000000 1.0
C      1  0.5289510000000  0.4440820000000  0.3686830000000 1.0
C      1  0.4928720000000  0.4803200000000  0.6059020000000 1.0
C      1  0.5086210000000  0.4986550000000  0.4291600000000 1.0
C      1  0.5380810000000  0.5140340000000  0.4837220000000 1.0
C      1  0.4870750000000  0.5758180000000  0.5959430000000 1.0
C      1  0.5643720000000  0.4246310000000  0.4333240000000 1.0
C      1  0.4824950000000  0.5194310000000  0.3918240000000 1.0
C      1  0.5263860000000  0.4535310000000  0.4425740000000 1.0
C      1  0.5394350000000  0.4861730000000  0.5233840000000 1.0
C      1  0.4626580000000  0.3886570000000  0.4813850000000 1.0
C      1  0.4907910000000  0.5909780000000  0.4143010000000 1.0
C      1  0.4025900000000  0.4402930000000  0.5099350000000 1.0
C      1  0.4105140000000  0.5168240000000  0.4495410000000 1.0
C      1  0.5113450000000  0.5741890000000  0.4772890000000 1.0
C      1  0.4202760000000  0.4213580000000  0.4979100000000 1.0
C      1  0.5966050000000  0.5207290000000  0.4215930000000 1.0
C      1  0.5889580000000  0.5556200000000  0.5412890000000 1.0
C      1  0.5328960000000  0.4852980000000  0.6280600000000 1.0
C      1  0.4560870000000  0.4797560000000  0.5759580000000 1.0
C      1  0.4878380000000  0.5806440000000  0.5669570000000 1.0
C      1  0.5708790000000  0.4869950000000  0.6000150000000 1.0
C      1  0.4521320000000  0.5122010000000  0.3901580000000 1.0
C      1  0.4527390000000  0.5521390000000  0.4403130000000 1.0
C      1  0.4468520000000  0.4931260000000  0.5524760000000 1.0
C      1  0.4655790000000  0.4109290000000  0.4398010000000 1.0
C      1  0.6042340000000  0.5482180000000  0.4198970000000 1.0
C      1  0.5508950000000  0.4701790000000  0.6112270000000 1.0
C      1  0.5669830000000  0.5130760000000  0.5549500000000 1.0
C      1  0.4249000000000  0.5588290000000  0.4414760000000 1.0
C      1  0.5042960000000  0.6074730000000  0.6269530000000 1.0
C      1  0.5365190000000  0.3963620000000  0.5322660000000 1.0
C      1  0.5854130000000  0.5684650000000  0.4968240000000 1.0
C      1  0.4141540000000  0.5358480000000  0.4273260000000 1.0
END
