TITL C-627110-360-663 0.000397199868171573 125000 -946.383246758751 0 0 155 (C1) n - 1
REM
REM in /home/nfs/bkarasulu/CARBON/AIRSS/Generating-Clusters/LCBOP/Only-C1/SD-CG/FIRE-CG
REM
REM
REM
REM
REM
REM ./C.cell (11c1c37f851c82e70ff6c80c92926a4b)
REM AIRSS Version 0.9.1 bugfix July 2018 build 013d7b7c2542+ Fri, 06 Jul 2018 19:26:36 +0100
REM compiler GCC version 9.2.1 20190827 (Red Hat 9.2.1-1)
REM options -cpp -mtune=generic -march=x86-64 -g -O0 -fpre-include=/usr/include/finclude/math-vector-fortran.h
REM seed 687727373 1803510893 2142597735 128767071 804154601 -1090925615 729235948 -146639359 918162720 1753882925 -1436782692 1493925660 -726047393 1061396221 -1055336979 -68883594 -2075974840 -610211878 1262559930 1776399087 2144593254 837535941 -2040829906 1047610442 1063179614 1767157860 -814012427 -139190265 -1527173595 2040726979 -94697472 -1624037680 -1484040271
REM
CELL 1.54180   50.00000   50.00000   50.00000   90.00000   90.00000   90.00000
LATT -1
SFAC C  
C      1  0.5269990000000  0.6006800000000  0.5210940000000 1.0
C      1  0.4868410000000  0.5596910000000  0.4161580000000 1.0
C      1  0.3888330000000  0.5162770000000  0.5049900000000 1.0
C      1  0.5192330000000  0.5765610000000  0.5342090000000 1.0
C      1  0.5171320000000  0.5830340000000  0.4743040000000 1.0
C      1  0.4775930000000  0.5752960000000  0.4375040000000 1.0
C      1  0.4762890000000  0.6150790000000  0.4639770000000 1.0
C      1  0.5034070000000  0.3878770000000  0.4447040000000 1.0
C      1  0.4920940000000  0.4439370000000  0.5672470000000 1.0
C      1  0.5929600000000  0.5339460000000  0.4509240000000 1.0
C      1  0.5653560000000  0.5713480000000  0.5611670000000 1.0
C      1  0.4675530000000  0.5208220000000  0.5750430000000 1.0
C      1  0.5041250000000  0.4383880000000  0.4617340000000 1.0
C      1  0.5321560000000  0.5896010000000  0.4109390000000 1.0
C      1  0.5461910000000  0.5313760000000  0.4562620000000 1.0
C      1  0.5277490000000  0.4547610000000  0.5182400000000 1.0
C      1  0.5455410000000  0.5678960000000  0.4009450000000 1.0
C      1  0.4241610000000  0.3942240000000  0.5379260000000 1.0
C      1  0.5009580000000  0.4926330000000  0.4375210000000 1.0
C      1  0.4426450000000  0.5892950000000  0.5394730000000 1.0
C      1  0.5060490000000  0.5293770000000  0.5418380000000 1.0
C      1  0.5046190000000  0.6188210000000  0.5162930000000 1.0
C      1  0.5701940000000  0.4785680000000  0.4722350000000 1.0
C      1  0.5458960000000  0.5633100000000  0.5781290000000 1.0
C      1  0.5668210000000  0.5865660000000  0.4644630000000 1.0
C      1  0.5010820000000  0.4471350000000  0.5222180000000 1.0
C      1  0.4258230000000  0.5555440000000  0.4588230000000 1.0
C      1  0.4185720000000  0.5295290000000  0.5684760000000 1.0
C      1  0.4793250000000  0.4888580000000  0.5419810000000 1.0
C      1  0.4250530000000  0.4945960000000  0.4551590000000 1.0
C      1  0.4515420000000  0.4818360000000  0.5944290000000 1.0
C      1  0.4737020000000  0.5002170000000  0.5952080000000 1.0
C      1  0.5725280000000  0.4741500000000  0.5200430000000 1.0
C      1  0.4630440000000  0.4358230000000  0.4964330000000 1.0
C      1  0.5105180000000  0.4976470000000  0.4839410000000 1.0
C      1  0.4480240000000  0.5318050000000  0.4214980000000 1.0
C      1  0.5595750000000  0.3837960000000  0.4626750000000 1.0
C      1  0.5735700000000  0.4084100000000  0.4629210000000 1.0
C      1  0.4766290000000  0.5818240000000  0.5052250000000 1.0
C      1  0.4963480000000  0.4488240000000  0.4152740000000 1.0
C      1  0.4340390000000  0.5349840000000  0.3997040000000 1.0
C      1  0.4516890000000  0.5454820000000  0.5174750000000 1.0
C      1  0.3932510000000  0.4709960000000  0.4872870000000 1.0
C      1  0.4002110000000  0.4903250000000  0.5067800000000 1.0
C      1  0.5136240000000  0.5293910000000  0.5966330000000 1.0
C      1  0.5190330000000  0.4753030000000  0.5957980000000 1.0
C      1  0.5274350000000  0.5204590000000  0.5261860000000 1.0
C      1  0.4829790000000  0.5990260000000  0.5644260000000 1.0
C      1  0.4435650000000  0.5352540000000  0.5800020000000 1.0
C      1  0.5563450000000  0.4527680000000  0.4357120000000 1.0
C      1  0.5140220000000  0.4969600000000  0.4128010000000 1.0
C      1  0.5422950000000  0.4919060000000  0.4083660000000 1.0
C      1  0.5424970000000  0.5939850000000  0.4769090000000 1.0
C      1  0.5165690000000  0.4065130000000  0.5413880000000 1.0
C      1  0.5700550000000  0.4283650000000  0.4426600000000 1.0
C      1  0.5538590000000  0.5418380000000  0.3981800000000 1.0
C      1  0.5443160000000  0.4618640000000  0.4112940000000 1.0
C      1  0.4839150000000  0.5147850000000  0.5519870000000 1.0
C      1  0.4626070000000  0.5231170000000  0.4439480000000 1.0
C      1  0.5188430000000  0.4864460000000  0.4593060000000 1.0
C      1  0.5832910000000  0.4396890000000  0.5508590000000 1.0
C      1  0.4538200000000  0.5934570000000  0.5661920000000 1.0
C      1  0.4486650000000  0.4982210000000  0.5071050000000 1.0
C      1  0.5665210000000  0.5180510000000  0.5020800000000 1.0
C      1  0.3779600000000  0.4491260000000  0.4925280000000 1.0
C      1  0.4732000000000  0.4973040000000  0.4424480000000 1.0
C      1  0.4910660000000  0.5761530000000  0.4820680000000 1.0
C      1  0.4328180000000  0.5640110000000  0.5294610000000 1.0
C      1  0.3741630000000  0.5526100000000  0.4760520000000 1.0
C      1  0.4436470000000  0.5575360000000  0.5971480000000 1.0
C      1  0.5454320000000  0.4794650000000  0.5845170000000 1.0
C      1  0.5165810000000  0.3956710000000  0.4225780000000 1.0
C      1  0.5564470000000  0.5228250000000  0.5292620000000 1.0
C      1  0.5805440000000  0.4155750000000  0.4897470000000 1.0
C      1  0.4952910000000  0.3866090000000  0.4721270000000 1.0
C      1  0.5731420000000  0.4908990000000  0.4975290000000 1.0
C      1  0.5133450000000  0.6042520000000  0.4245640000000 1.0
C      1  0.5618230000000  0.4224110000000  0.5098800000000 1.0
C      1  0.3907640000000  0.5300090000000  0.4801500000000 1.0
C      1  0.6207400000000  0.4601450000000  0.5243510000000 1.0
C      1  0.5130690000000  0.4468860000000  0.5866920000000 1.0
C      1  0.4041540000000  0.4768190000000  0.4620390000000 1.0
C      1  0.5267070000000  0.4146580000000  0.4061100000000 1.0
C      1  0.6402950000000  0.4618010000000  0.5433890000000 1.0
C      1  0.5639610000000  0.4212280000000  0.5394840000000 1.0
C      1  0.4790100000000  0.4675020000000  0.5601880000000 1.0
C      1  0.4999620000000  0.5798230000000  0.5796010000000 1.0
C      1  0.4570970000000  0.4083050000000  0.4969840000000 1.0
C      1  0.5407120000000  0.3742580000000  0.4794650000000 1.0
C      1  0.5342600000000  0.4273060000000  0.5811210000000 1.0
C      1  0.5236670000000  0.5395240000000  0.4420850000000 1.0
C      1  0.4849870000000  0.4451370000000  0.4412890000000 1.0
C      1  0.4087360000000  0.3904690000000  0.5586030000000 1.0
C      1  0.5187760000000  0.5574700000000  0.5863670000000 1.0
C      1  0.5224140000000  0.5185920000000  0.4976490000000 1.0
C      1  0.4847140000000  0.6140420000000  0.5375230000000 1.0
C      1  0.5896250000000  0.4821420000000  0.6423690000000 1.0
C      1  0.5001610000000  0.5558280000000  0.5356610000000 1.0
C      1  0.5496210000000  0.5980390000000  0.5046480000000 1.0
C      1  0.4246020000000  0.4890850000000  0.5210930000000 1.0
C      1  0.4436230000000  0.5833930000000  0.5901010000000 1.0
C      1  0.5462370000000  0.4714340000000  0.5316810000000 1.0
C      1  0.5397910000000  0.4376410000000  0.4992980000000 1.0
C      1  0.5436070000000  0.4826150000000  0.5568410000000 1.0
C      1  0.4399700000000  0.3992700000000  0.5172770000000 1.0
C      1  0.5743600000000  0.5827710000000  0.5101030000000 1.0
C      1  0.4371570000000  0.4332140000000  0.4421410000000 1.0
C      1  0.6273270000000  0.4602500000000  0.4970150000000 1.0
C      1  0.5775020000000  0.5759090000000  0.5373910000000 1.0
C      1  0.5851620000000  0.5734700000000  0.4832970000000 1.0
C      1  0.4783180000000  0.4562550000000  0.5080220000000 1.0
C      1  0.4257930000000  0.4798150000000  0.5483020000000 1.0
C      1  0.5933750000000  0.4587010000000  0.5317110000000 1.0
C      1  0.4979930000000  0.4283130000000  0.5437120000000 1.0
C      1  0.4924890000000  0.6242790000000  0.4884280000000 1.0
C      1  0.4676900000000  0.3889850000000  0.4787520000000 1.0
C      1  0.4760320000000  0.5619420000000  0.4632030000000 1.0
C      1  0.3846050000000  0.5290860000000  0.5296490000000 1.0
C      1  0.5076150000000  0.5435380000000  0.4211120000000 1.0
C      1  0.4160800000000  0.4175240000000  0.4387960000000 1.0
C      1  0.5442090000000  0.4670200000000  0.4601270000000 1.0
C      1  0.4889910000000  0.6023090000000  0.4399220000000 1.0
C      1  0.4626290000000  0.6012940000000  0.5217530000000 1.0
C      1  0.5301410000000  0.4430600000000  0.4732820000000 1.0
C      1  0.4507530000000  0.4802920000000  0.4479770000000 1.0
C      1  0.3778500000000  0.5791590000000  0.4734820000000 1.0
C      1  0.4571730000000  0.4524140000000  0.4450180000000 1.0
C      1  0.4482340000000  0.6043530000000  0.4664230000000 1.0
C      1  0.4531960000000  0.5254890000000  0.4964710000000 1.0
C      1  0.4264200000000  0.5847290000000  0.4641470000000 1.0
C      1  0.5727560000000  0.5233980000000  0.5509810000000 1.0
C      1  0.5028110000000  0.5005830000000  0.5996540000000 1.0
C      1  0.4336660000000  0.4767550000000  0.5741700000000 1.0
C      1  0.5822200000000  0.4486670000000  0.5776790000000 1.0
C      1  0.3726210000000  0.3879740000000  0.4377710000000 1.0
C      1  0.4642710000000  0.5360690000000  0.4696400000000 1.0
C      1  0.5407940000000  0.4138550000000  0.5558150000000 1.0
C      1  0.5223810000000  0.4429090000000  0.4050900000000 1.0
C      1  0.6184950000000  0.4646070000000  0.4721620000000 1.0
C      1  0.3941980000000  0.4026040000000  0.4378110000000 1.0
C      1  0.4707740000000  0.4825810000000  0.5155080000000 1.0
C      1  0.5148870000000  0.3890320000000  0.5190110000000 1.0
C      1  0.5953510000000  0.4719310000000  0.4606650000000 1.0
C      1  0.5685840000000  0.5240900000000  0.4398290000000 1.0
C      1  0.3999880000000  0.5941000000000  0.4694390000000 1.0
C      1  0.5695580000000  0.4678210000000  0.5944760000000 1.0
C      1  0.5985230000000  0.5515350000000  0.4711740000000 1.0
C      1  0.4502110000000  0.3711200000000  0.4672430000000 1.0
C      1  0.5161460000000  0.3819050000000  0.4914490000000 1.0
C      1  0.4146520000000  0.5281320000000  0.4632280000000 1.0
C      1  0.4766960000000  0.5584700000000  0.5212160000000 1.0
C      1  0.5592440000000  0.5168670000000  0.4127130000000 1.0
C      1  0.5462890000000  0.5278200000000  0.4838580000000 1.0
C      1  0.5801830000000  0.4750120000000  0.6191500000000 1.0
C      1  0.3967050000000  0.5315830000000  0.5533650000000 1.0
END
