TITL C-627107-135-315 3.52010419488217 125000 -155.766992548648 0 0 27 (C1) n - 1
REM
REM in /home/nfs/bkarasulu/CARBON/AIRSS/Generating-Clusters/LCBOP/Only-C1/SD-CG/FIRE-CG
REM
REM
REM
REM
REM
REM ./C.cell (11c1c37f851c82e70ff6c80c92926a4b)
REM AIRSS Version 0.9.1 bugfix July 2018 build 013d7b7c2542+ Fri, 06 Jul 2018 19:26:36 +0100
REM compiler GCC version 9.2.1 20190827 (Red Hat 9.2.1-1)
REM options -cpp -mtune=generic -march=x86-64 -g -O0 -fpre-include=/usr/include/finclude/math-vector-fortran.h
REM seed 149535897 -108578959 -1713561290 1686354096 891721591 -858576874 -272388666 -523578731 -1176534096 -613912324 -1890872558 -516074240 -983592687 -491063824 -1873273851 -1951139720 1614097675 799115344 -1936988705 -588047708 -269366475 -606703791 128566007 -1339779943 2013210067 -1289480763 -310588530 1420021820 1339814187 -1445416480 1299207000 -571011435 679521167
REM
CELL 1.54180   50.00000   50.00000   50.00000   90.00000   90.00000   90.00000
LATT -1
SFAC C  
C      1  0.5263610000000  0.5426200000000  0.4198920000000 1.0
C      1  0.4918580000000  0.4631870000000  0.6264460000000 1.0
C      1  0.4783210000000  0.4708140000000  0.6042580000000 1.0
C      1  0.5188670000000  0.4612630000000  0.6257000000000 1.0
C      1  0.4674550000000  0.4920890000000  0.5333890000000 1.0
C      1  0.5329050000000  0.5142400000000  0.4581290000000 1.0
C      1  0.4365500000000  0.5627070000000  0.3700440000000 1.0
C      1  0.5417010000000  0.4881010000000  0.5312630000000 1.0
C      1  0.4662340000000  0.5053170000000  0.4823890000000 1.0
C      1  0.4903000000000  0.5138110000000  0.4348730000000 1.0
C      1  0.4228050000000  0.5810500000000  0.3576250000000 1.0
C      1  0.4848920000000  0.4821000000000  0.3987780000000 1.0
C      1  0.4909560000000  0.4770660000000  0.5796620000000 1.0
C      1  0.4505260000000  0.5440590000000  0.3826720000000 1.0
C      1  0.5620460000000  0.4645440000000  0.6027440000000 1.0
C      1  0.5168490000000  0.5237750000000  0.4372880000000 1.0
C      1  0.4640000000000  0.4990920000000  0.5080580000000 1.0
C      1  0.4746590000000  0.5103790000000  0.4577790000000 1.0
C      1  0.4799090000000  0.5068280000000  0.4093710000000 1.0
C      1  0.5417670000000  0.5050170000000  0.4813390000000 1.0
C      1  0.4645610000000  0.5255210000000  0.3953570000000 1.0
C      1  0.5343050000000  0.4668680000000  0.6025800000000 1.0
C      1  0.4763160000000  0.4847270000000  0.5572500000000 1.0
C      1  0.5880260000000  0.4625100000000  0.6024320000000 1.0
C      1  0.5335340000000  0.4811100000000  0.5554790000000 1.0
C      1  0.5445330000000  0.4961550000000  0.5061690000000 1.0
C      1  0.5197650000000  0.4750500000000  0.5790370000000 1.0
END
