TITL C-627106-156-1001 -3.50294544456168e-07 125000 -446.815533208025 0 0 73 (C1) n - 1
REM
REM in /home/nfs/bkarasulu/CARBON/AIRSS/Generating-Clusters/LCBOP/Only-C1/SD-CG/FIRE-CG
REM
REM
REM
REM
REM
REM ./C.cell (11c1c37f851c82e70ff6c80c92926a4b)
REM AIRSS Version 0.9.1 bugfix July 2018 build 013d7b7c2542+ Fri, 06 Jul 2018 19:26:36 +0100
REM compiler GCC version 9.2.1 20190827 (Red Hat 9.2.1-1)
REM options -cpp -mtune=generic -march=x86-64 -g -O0 -fpre-include=/usr/include/finclude/math-vector-fortran.h
REM seed -790701238 -491222399 1927914434 -351083977 -1965308905 2107932639 -1404355577 -810095332 1214255674 -767086539 109189116 1292032470 -393009724 -390017264 304564956 -2021530959 -1172069469 -265520560 -1953394962 113121540 1921647281 -1925161446 -1316197545 1344245436 1874143262 438433732 -193005463 -1461450037 1075825258 80813566 1727881454 -933914818 -1260534283
REM
CELL 1.54180   50.00000   50.00000   50.00000   90.00000   90.00000   90.00000
LATT -1
SFAC C  
C      1  0.5500520000000  0.5701790000000  0.5098220000000 1.0
C      1  0.4930500000000  0.4438380000000  0.5510610000000 1.0
C      1  0.5372840000000  0.4816700000000  0.4663810000000 1.0
C      1  0.5624660000000  0.4954080000000  0.4321000000000 1.0
C      1  0.4713030000000  0.5519950000000  0.4597090000000 1.0
C      1  0.5110840000000  0.4811210000000  0.4552490000000 1.0
C      1  0.4666190000000  0.5758140000000  0.5035130000000 1.0
C      1  0.4931870000000  0.4652510000000  0.4703840000000 1.0
C      1  0.4308220000000  0.5072700000000  0.4891100000000 1.0
C      1  0.4594140000000  0.4307220000000  0.5129310000000 1.0
C      1  0.4686290000000  0.5618880000000  0.5477270000000 1.0
C      1  0.5511260000000  0.5755770000000  0.4814930000000 1.0
C      1  0.5153060000000  0.5073420000000  0.5766390000000 1.0
C      1  0.5616590000000  0.4664750000000  0.5346010000000 1.0
C      1  0.4744560000000  0.5087870000000  0.5167970000000 1.0
C      1  0.4336570000000  0.5232330000000  0.4660470000000 1.0
C      1  0.5729980000000  0.4580390000000  0.5111960000000 1.0
C      1  0.4415380000000  0.5492300000000  0.5463690000000 1.0
C      1  0.5460260000000  0.5574240000000  0.4596190000000 1.0
C      1  0.5431290000000  0.5258060000000  0.5211660000000 1.0
C      1  0.5133130000000  0.4060230000000  0.4140590000000 1.0
C      1  0.4811640000000  0.5602870000000  0.5224830000000 1.0
C      1  0.4596850000000  0.4346740000000  0.4862840000000 1.0
C      1  0.5208310000000  0.4799100000000  0.5675510000000 1.0
C      1  0.5112280000000  0.4990030000000  0.4324730000000 1.0
C      1  0.5465110000000  0.5517310000000  0.5312700000000 1.0
C      1  0.5308310000000  0.5307860000000  0.5737680000000 1.0
C      1  0.4297870000000  0.5039580000000  0.5706580000000 1.0
C      1  0.5375360000000  0.5125010000000  0.4290660000000 1.0
C      1  0.5369240000000  0.4647350000000  0.5484540000000 1.0
C      1  0.5694290000000  0.4478740000000  0.4599370000000 1.0
C      1  0.4600710000000  0.5066370000000  0.4244540000000 1.0
C      1  0.4286540000000  0.5538670000000  0.5208370000000 1.0
C      1  0.4884730000000  0.5337360000000  0.5131380000000 1.0
C      1  0.4697870000000  0.5310190000000  0.5818630000000 1.0
C      1  0.4899480000000  0.4855180000000  0.5145820000000 1.0
C      1  0.5067860000000  0.5323860000000  0.4909920000000 1.0
C      1  0.5641670000000  0.6262550000000  0.4674720000000 1.0
C      1  0.5374330000000  0.4329850000000  0.4932910000000 1.0
C      1  0.4708200000000  0.4335380000000  0.5371780000000 1.0
C      1  0.4746540000000  0.4824760000000  0.5807880000000 1.0
C      1  0.4451620000000  0.5489350000000  0.4712390000000 1.0
C      1  0.5744440000000  0.5118640000000  0.4743120000000 1.0
C      1  0.5476750000000  0.5033700000000  0.4812860000000 1.0
C      1  0.4905180000000  0.4167600000000  0.4226360000000 1.0
C      1  0.4741580000000  0.4449560000000  0.4639970000000 1.0
C      1  0.5408560000000  0.5513570000000  0.5590210000000 1.0
C      1  0.4433570000000  0.5287530000000  0.5676730000000 1.0
C      1  0.4957180000000  0.5432250000000  0.4673860000000 1.0
C      1  0.3513050000000  0.4976130000000  0.5551860000000 1.0
C      1  0.4944840000000  0.4649370000000  0.5704280000000 1.0
C      1  0.4024680000000  0.5010700000000  0.5667210000000 1.0
C      1  0.5397070000000  0.4027500000000  0.4154350000000 1.0
C      1  0.5753340000000  0.4261580000000  0.4433000000000 1.0
C      1  0.5405090000000  0.5395050000000  0.4397660000000 1.0
C      1  0.4761350000000  0.4310640000000  0.4398670000000 1.0
C      1  0.3766570000000  0.4992600000000  0.5610320000000 1.0
C      1  0.4999230000000  0.4651820000000  0.4981840000000 1.0
C      1  0.5183380000000  0.4449260000000  0.5367440000000 1.0
C      1  0.5630620000000  0.4095990000000  0.4263130000000 1.0
C      1  0.4467570000000  0.4823460000000  0.5777610000000 1.0
C      1  0.5169960000000  0.4448520000000  0.5085080000000 1.0
C      1  0.4869030000000  0.5086990000000  0.5842530000000 1.0
C      1  0.5572230000000  0.4709180000000  0.4484110000000 1.0
C      1  0.5579470000000  0.6018750000000  0.4742630000000 1.0
C      1  0.4418050000000  0.5629270000000  0.4962300000000 1.0
C      1  0.5824760000000  0.5091650000000  0.4480730000000 1.0
C      1  0.4472560000000  0.5052490000000  0.5103050000000 1.0
C      1  0.4395410000000  0.5118500000000  0.4409110000000 1.0
C      1  0.5313850000000  0.5193540000000  0.4968800000000 1.0
C      1  0.5632650000000  0.4440560000000  0.4881400000000 1.0
C      1  0.4864760000000  0.5044040000000  0.4205030000000 1.0
C      1  0.4803200000000  0.5560510000000  0.5727260000000 1.0
END
