TITL C-627107-135-1497 -5168.64479883455 125000 -906.294449261463 0 0 150 (C1) n - 1
REM
REM in /home/nfs/bkarasulu/CARBON/AIRSS/Generating-Clusters/LCBOP/Only-C1/SD-CG/FIRE-CG
REM
REM
REM
REM
REM
REM ./C.cell (11c1c37f851c82e70ff6c80c92926a4b)
REM AIRSS Version 0.9.1 bugfix July 2018 build 013d7b7c2542+ Fri, 06 Jul 2018 19:26:36 +0100
REM compiler GCC version 9.2.1 20190827 (Red Hat 9.2.1-1)
REM options -cpp -mtune=generic -march=x86-64 -g -O0 -fpre-include=/usr/include/finclude/math-vector-fortran.h
REM seed -1152498345 934942987 -1970309054 -752944467 -1586558945 1841147171 -548349961 157165549 -750502930 -723521810 313778327 -1132146558 1880629749 1673613793 1373346526 1450213211 1747065053 84911143 483599516 1473217099 -412805987 -1499540684 566560862 285606541 2048738271 -207253794 -890500141 -433582488 -1057879668 1535535024 1262721175 -74116754 1263484255
REM
CELL 1.54180   50.00000   50.00000   50.00000   90.00000   90.00000   90.00000
LATT -1
SFAC C  
C      1  0.6264250000000  0.5193780000000  0.4206520000000 1.0
C      1  0.5503370000000  0.5042790000000  0.5985450000000 1.0
C      1  0.4399460000000  0.4821940000000  0.4576370000000 1.0
C      1  0.5390860000000  0.5394400000000  0.4501550000000 1.0
C      1  0.5179850000000  0.4269760000000  0.4836810000000 1.0
C      1  0.4781140000000  0.4873130000000  0.5418200000000 1.0
C      1  0.5796560000000  0.5130950000000  0.4060010000000 1.0
C      1  0.4504690000000  0.6386200000000  0.5470920000000 1.0
C      1  0.5537800000000  0.4513770000000  0.4911990000000 1.0
C      1  0.4845960000000  0.4352860000000  0.4031780000000 1.0
C      1  0.5190100000000  0.5443420000000  0.5442120000000 1.0
C      1  0.5303070000000  0.4242260000000  0.4201590000000 1.0
C      1  0.5438790000000  0.5266400000000  0.5068030000000 1.0
C      1  0.4769210000000  0.5997140000000  0.5668930000000 1.0
C      1  0.4164000000000  0.5478370000000  0.4602100000000 1.0
C      1  0.6203430000000  0.5040510000000  0.5221140000000 1.0
C      1  0.4911760000000  0.4302920000000  0.4908310000000 1.0
C      1  0.4914940000000  0.5081900000000  0.5551860000000 1.0
C      1  0.5547350000000  0.4957860000000  0.4479260000000 1.0
C      1  0.5913130000000  0.5221610000000  0.5588200000000 1.0
C      1  0.5312330000000  0.5751370000000  0.4140440000000 1.0
C      1  0.4173350000000  0.4637320000000  0.4611570000000 1.0
C      1  0.5374210000000  0.6179910000000  0.5110290000000 1.0
C      1  0.4948010000000  0.5823890000000  0.4524480000000 1.0
C      1  0.4527030000000  0.5322140000000  0.5106780000000 1.0
C      1  0.5306690000000  0.5177180000000  0.5827880000000 1.0
C      1  0.4501490000000  0.5574690000000  0.5712610000000 1.0
C      1  0.6105840000000  0.5259310000000  0.5375230000000 1.0
C      1  0.4852920000000  0.4118840000000  0.4458570000000 1.0
C      1  0.5385190000000  0.4071060000000  0.4863740000000 1.0
C      1  0.4658140000000  0.4734840000000  0.4617400000000 1.0
C      1  0.5148040000000  0.5057170000000  0.5047570000000 1.0
C      1  0.6024580000000  0.5431650000000  0.4711060000000 1.0
C      1  0.6091950000000  0.5513960000000  0.4957300000000 1.0
C      1  0.4972430000000  0.5612980000000  0.5900310000000 1.0
C      1  0.4110330000000  0.4552130000000  0.5652800000000 1.0
C      1  0.4874220000000  0.4535410000000  0.5072460000000 1.0
C      1  0.4928010000000  0.5333870000000  0.5412930000000 1.0
C      1  0.4699810000000  0.4186370000000  0.4224930000000 1.0
C      1  0.4086040000000  0.4888060000000  0.4244080000000 1.0
C      1  0.4129460000000  0.5119640000000  0.5397240000000 1.0
C      1  0.4887960000000  0.5271540000000  0.4403570000000 1.0
C      1  0.5034280000000  0.5255900000000  0.3806390000000 1.0
C      1  0.5583790000000  0.4635890000000  0.5384960000000 1.0
C      1  0.3708520000000  0.3663440000000  0.5325400000000 1.0
C      1  0.4239110000000  0.4162940000000  0.4926510000000 1.0
C      1  0.5877550000000  0.5437920000000  0.5770660000000 1.0
C      1  0.4111230000000  0.5197040000000  0.4624530000000 1.0
C      1  0.4081000000000  0.4278730000000  0.5628200000000 1.0
C      1  0.4898010000000  0.4705220000000  0.4480010000000 1.0
C      1  0.4427090000000  0.5585590000000  0.4142770000000 1.0
C      1  0.4512270000000  0.4845090000000  0.5522320000000 1.0
C      1  0.4936830000000  0.4785810000000  0.5191380000000 1.0
C      1  0.6058770000000  0.5509790000000  0.5239020000000 1.0
C      1  0.5742450000000  0.4847630000000  0.4025180000000 1.0
C      1  0.4754710000000  0.5459060000000  0.5198790000000 1.0
C      1  0.4363170000000  0.5096490000000  0.5564960000000 1.0
C      1  0.5238930000000  0.5641460000000  0.5253410000000 1.0
C      1  0.5465840000000  0.5565620000000  0.5096020000000 1.0
C      1  0.5632210000000  0.4672420000000  0.5112230000000 1.0
C      1  0.5173860000000  0.4878020000000  0.4127600000000 1.0
C      1  0.5551750000000  0.6032370000000  0.5270540000000 1.0
C      1  0.4539350000000  0.4348170000000  0.5677310000000 1.0
C      1  0.4824610000000  0.5422990000000  0.3831920000000 1.0
C      1  0.5649090000000  0.4221930000000  0.4915720000000 1.0
C      1  0.4816110000000  0.5240780000000  0.4669880000000 1.0
C      1  0.4326580000000  0.4154770000000  0.5640760000000 1.0
C      1  0.4199690000000  0.5596200000000  0.4856100000000 1.0
C      1  0.4613620000000  0.5533720000000  0.3956610000000 1.0
C      1  0.4837030000000  0.5686210000000  0.5031450000000 1.0
C      1  0.5620130000000  0.4826590000000  0.5586360000000 1.0
C      1  0.5188900000000  0.5058680000000  0.3908530000000 1.0
C      1  0.5779060000000  0.4905290000000  0.5061870000000 1.0
C      1  0.5328420000000  0.4824920000000  0.4370100000000 1.0
C      1  0.4819530000000  0.5744710000000  0.4751080000000 1.0
C      1  0.3807740000000  0.4093180000000  0.5139970000000 1.0
C      1  0.5139370000000  0.4104900000000  0.4400680000000 1.0
C      1  0.5361220000000  0.3801210000000  0.4856170000000 1.0
C      1  0.4085070000000  0.5195810000000  0.5123690000000 1.0
C      1  0.5858690000000  0.5680250000000  0.5361550000000 1.0
C      1  0.4023720000000  0.4745640000000  0.4839610000000 1.0
C      1  0.5398570000000  0.5289140000000  0.5581310000000 1.0
C      1  0.4652190000000  0.5196720000000  0.5984880000000 1.0
C      1  0.4244140000000  0.6352320000000  0.5416860000000 1.0
C      1  0.4250840000000  0.5036400000000  0.4436090000000 1.0
C      1  0.4748200000000  0.5730970000000  0.5754640000000 1.0
C      1  0.4263570000000  0.5424250000000  0.5069460000000 1.0
C      1  0.5852840000000  0.4253380000000  0.4693220000000 1.0
C      1  0.5483630000000  0.5576390000000  0.4021660000000 1.0
C      1  0.5996460000000  0.5207970000000  0.4256640000000 1.0
C      1  0.4282800000000  0.4456550000000  0.4155720000000 1.0
C      1  0.4405240000000  0.4630000000000  0.5706630000000 1.0
C      1  0.3999680000000  0.4266000000000  0.5034930000000 1.0
C      1  0.5728980000000  0.4143440000000  0.5194020000000 1.0
C      1  0.5763360000000  0.5665720000000  0.5646310000000 1.0
C      1  0.4265130000000  0.5706000000000  0.5635490000000 1.0
C      1  0.4879550000000  0.4775650000000  0.6123060000000 1.0
C      1  0.5497660000000  0.6036410000000  0.5553610000000 1.0
C      1  0.3370800000000  0.3998630000000  0.5310550000000 1.0
C      1  0.5125010000000  0.5837460000000  0.4318450000000 1.0
C      1  0.4736390000000  0.4617740000000  0.4015660000000 1.0
C      1  0.4079500000000  0.6142710000000  0.5447130000000 1.0
C      1  0.5507610000000  0.5801480000000  0.5721940000000 1.0
C      1  0.5254060000000  0.5710720000000  0.5855200000000 1.0
C      1  0.5659280000000  0.5775110000000  0.5180660000000 1.0
C      1  0.4031990000000  0.5044510000000  0.4874140000000 1.0
C      1  0.5549580000000  0.4787520000000  0.5861130000000 1.0
C      1  0.5629520000000  0.5350970000000  0.3978200000000 1.0
C      1  0.5123820000000  0.4311000000000  0.3988970000000 1.0
C      1  0.4102310000000  0.5892130000000  0.5537310000000 1.0
C      1  0.4415820000000  0.4214310000000  0.4223380000000 1.0
C      1  0.5080910000000  0.4765000000000  0.5927370000000 1.0
C      1  0.5296610000000  0.4523420000000  0.4760790000000 1.0
C      1  0.5080430000000  0.5010630000000  0.5772930000000 1.0
C      1  0.5647610000000  0.4138910000000  0.5450960000000 1.0
C      1  0.5122110000000  0.6087000000000  0.5083450000000 1.0
C      1  0.6062020000000  0.4873430000000  0.5040520000000 1.0
C      1  0.4550280000000  0.5057240000000  0.5036870000000 1.0
C      1  0.5646490000000  0.5117980000000  0.5484330000000 1.0
C      1  0.5325150000000  0.4609770000000  0.5904620000000 1.0
C      1  0.5612200000000  0.5225690000000  0.4532910000000 1.0
C      1  0.5051780000000  0.5823210000000  0.5149580000000 1.0
C      1  0.5885970000000  0.5298250000000  0.4506200000000 1.0
C      1  0.4872240000000  0.5380360000000  0.6044050000000 1.0
C      1  0.4878590000000  0.4812670000000  0.4190030000000 1.0
C      1  0.6072130000000  0.4424270000000  0.4761560000000 1.0
C      1  0.4453010000000  0.4620570000000  0.3988020000000 1.0
C      1  0.3948020000000  0.4544030000000  0.5019950000000 1.0
C      1  0.4977130000000  0.5156890000000  0.4863190000000 1.0
C      1  0.5362090000000  0.4328070000000  0.5882760000000 1.0
C      1  0.5572420000000  0.4354150000000  0.4226290000000 1.0
C      1  0.4472310000000  0.4123270000000  0.4802740000000 1.0
C      1  0.4638320000000  0.4920100000000  0.6074920000000 1.0
C      1  0.4737840000000  0.4169230000000  0.4724070000000 1.0
C      1  0.5172850000000  0.4676030000000  0.4560290000000 1.0
C      1  0.5648610000000  0.5123910000000  0.5182650000000 1.0
C      1  0.4484660000000  0.5287240000000  0.5758470000000 1.0
C      1  0.5665780000000  0.4590910000000  0.4083430000000 1.0
C      1  0.4100370000000  0.4602330000000  0.4321960000000 1.0
C      1  0.5258270000000  0.4164230000000  0.6076690000000 1.0
C      1  0.5150270000000  0.5369710000000  0.4383170000000 1.0
C      1  0.3626960000000  0.3916430000000  0.5259740000000 1.0
C      1  0.4700730000000  0.6235370000000  0.5572230000000 1.0
C      1  0.4804230000000  0.4294510000000  0.5671720000000 1.0
C      1  0.5512130000000  0.4212210000000  0.5671070000000 1.0
C      1  0.4431010000000  0.4751500000000  0.5980740000000 1.0
C      1  0.4767960000000  0.5089960000000  0.4222830000000 1.0
C      1  0.5746550000000  0.4250460000000  0.4428210000000 1.0
C      1  0.6147580000000  0.4652230000000  0.4885800000000 1.0
C      1  0.4270820000000  0.5579560000000  0.4361050000000 1.0
END
