TITL C-627108-131-1397 4.00427437856849 125000 -105.519136563036 0 0 19 (C1) n - 1
REM
REM in /home/nfs/bkarasulu/CARBON/AIRSS/Generating-Clusters/LCBOP/Only-C1/SD-CG/FIRE-CG
REM
REM
REM
REM
REM
REM ./C.cell (11c1c37f851c82e70ff6c80c92926a4b)
REM AIRSS Version 0.9.1 bugfix July 2018 build 013d7b7c2542+ Fri, 06 Jul 2018 19:26:36 +0100
REM compiler GCC version 9.2.1 20190827 (Red Hat 9.2.1-1)
REM options -cpp -mtune=generic -march=x86-64 -g -O0 -fpre-include=/usr/include/finclude/math-vector-fortran.h
REM seed -1028423056 -1387433318 298546896 -1481570163 1826359928 -1206863963 904089994 -46078505 -124397414 1887744113 1560949497 876710697 974793638 -725845835 1788952528 -910332336 1242383920 -601347888 -1665506203 -1397788255 -1174900288 759958096 -321046214 -389203952 -2135642456 -20819886 -367968776 -1489356048 919308950 -2132981657 1152066972 -2110815610 -170528184
REM
CELL 1.54180   50.00000   50.00000   50.00000   90.00000   90.00000   90.00000
LATT -1
SFAC C  
C      1  0.5248870000000  0.5431900000000  0.5533890000000 1.0
C      1  0.5967340000000  0.4115030000000  0.5465610000000 1.0
C      1  0.5674000000000  0.4554800000000  0.5426610000000 1.0
C      1  0.4899570000000  0.5344190000000  0.4698320000000 1.0
C      1  0.5527340000000  0.4774640000000  0.5407100000000 1.0
C      1  0.5820650000000  0.4334940000000  0.5446110000000 1.0
C      1  0.4452170000000  0.5270320000000  0.4508470000000 1.0
C      1  0.4631080000000  0.5254640000000  0.4720710000000 1.0
C      1  0.6111620000000  0.3898740000000  0.5484790000000 1.0
C      1  0.5033420000000  0.5235060000000  0.5150690000000 1.0
C      1  0.5088950000000  0.5337770000000  0.4892300000000 1.0
C      1  0.4308150000000  0.5052510000000  0.5032350000000 1.0
C      1  0.3930530000000  0.5307430000000  0.3915500000000 1.0
C      1  0.4277970000000  0.5283080000000  0.4309350000000 1.0
C      1  0.5380370000000  0.4994080000000  0.5386950000000 1.0
C      1  0.4102820000000  0.5295360000000  0.4110790000000 1.0
C      1  0.4558290000000  0.5147080000000  0.4977910000000 1.0
C      1  0.5221710000000  0.5222700000000  0.5359710000000 1.0
C      1  0.4765160000000  0.5145720000000  0.5172840000000 1.0
END
