TITL C-627107-135-1586 4.88120099920165e-07 125000 -776.986972529853 0 0 128 (C1) n - 1
REM
REM in /home/nfs/bkarasulu/CARBON/AIRSS/Generating-Clusters/LCBOP/Only-C1/SD-CG/FIRE-CG
REM
REM
REM
REM
REM
REM ./C.cell (11c1c37f851c82e70ff6c80c92926a4b)
REM AIRSS Version 0.9.1 bugfix July 2018 build 013d7b7c2542+ Fri, 06 Jul 2018 19:26:36 +0100
REM compiler GCC version 9.2.1 20190827 (Red Hat 9.2.1-1)
REM options -cpp -mtune=generic -march=x86-64 -g -O0 -fpre-include=/usr/include/finclude/math-vector-fortran.h
REM seed 1914233998 -1007378509 -1652206828 -1744991461 -246148634 -124073887 -1631856475 1964535797 966445869 -2104180592 599449800 247504142 366135476 -659034521 864235215 619608252 783610637 -1758004650 -93176673 169867332 350932538 -1039947408 -1598870059 -1639857899 -1716253183 354770966 1648789448 1099375394 1038212950 492179175 -2072403242 -2058981235 -976551690
REM
CELL 1.54180   50.00000   50.00000   50.00000   90.00000   90.00000   90.00000
LATT -1
SFAC C  
C      1  0.4091150000000  0.4723630000000  0.5089080000000 1.0
C      1  0.4381630000000  0.5175390000000  0.3906610000000 1.0
C      1  0.5329780000000  0.4240180000000  0.5238210000000 1.0
C      1  0.4335230000000  0.3669540000000  0.4461950000000 1.0
C      1  0.5736470000000  0.4587740000000  0.4733260000000 1.0
C      1  0.5199930000000  0.5240750000000  0.5934330000000 1.0
C      1  0.5406070000000  0.6564760000000  0.4685330000000 1.0
C      1  0.4340760000000  0.4289090000000  0.4850230000000 1.0
C      1  0.5413900000000  0.4873060000000  0.5730800000000 1.0
C      1  0.5633280000000  0.4281520000000  0.5625200000000 1.0
C      1  0.5179730000000  0.4370460000000  0.4209270000000 1.0
C      1  0.5525150000000  0.4386790000000  0.5384590000000 1.0
C      1  0.4822320000000  0.5572960000000  0.4563670000000 1.0
C      1  0.5740730000000  0.6015640000000  0.4299190000000 1.0
C      1  0.5658950000000  0.4433190000000  0.5847920000000 1.0
C      1  0.4421780000000  0.5267010000000  0.4401280000000 1.0
C      1  0.4670280000000  0.3696050000000  0.5149920000000 1.0
C      1  0.4837230000000  0.4465130000000  0.4747550000000 1.0
C      1  0.4875170000000  0.4921240000000  0.5185720000000 1.0
C      1  0.5600610000000  0.4657930000000  0.5339600000000 1.0
C      1  0.5557760000000  0.5571600000000  0.5616380000000 1.0
C      1  0.3904550000000  0.5768160000000  0.4841320000000 1.0
C      1  0.6101450000000  0.4905760000000  0.4666140000000 1.0
C      1  0.4066960000000  0.5095580000000  0.5540550000000 1.0
C      1  0.4812370000000  0.6640510000000  0.4256990000000 1.0
C      1  0.4976090000000  0.5798340000000  0.4965690000000 1.0
C      1  0.5320440000000  0.5657670000000  0.5743250000000 1.0
C      1  0.4778060000000  0.3937960000000  0.5166260000000 1.0
C      1  0.5756160000000  0.5161920000000  0.5374160000000 1.0
C      1  0.5831470000000  0.5563250000000  0.4444530000000 1.0
C      1  0.4576100000000  0.5493010000000  0.4453640000000 1.0
C      1  0.4178460000000  0.5664980000000  0.5193220000000 1.0
C      1  0.5119160000000  0.4983400000000  0.5317330000000 1.0
C      1  0.5974900000000  0.4714370000000  0.4830070000000 1.0
C      1  0.5237880000000  0.4184870000000  0.4411630000000 1.0
C      1  0.5123230000000  0.4419470000000  0.5780510000000 1.0
C      1  0.5269110000000  0.5270100000000  0.4931600000000 1.0
C      1  0.4842280000000  0.5571280000000  0.5863070000000 1.0
C      1  0.4208620000000  0.4493830000000  0.4968660000000 1.0
C      1  0.5563400000000  0.4683420000000  0.5874640000000 1.0
C      1  0.4067520000000  0.5186510000000  0.5246650000000 1.0
C      1  0.4862400000000  0.5648950000000  0.5174650000000 1.0
C      1  0.4734990000000  0.6436980000000  0.4400330000000 1.0
C      1  0.4789200000000  0.4204370000000  0.4650820000000 1.0
C      1  0.4204340000000  0.4864610000000  0.5953630000000 1.0
C      1  0.5870460000000  0.5354650000000  0.5181020000000 1.0
C      1  0.5823780000000  0.5800790000000  0.4985720000000 1.0
C      1  0.4369780000000  0.5973070000000  0.4839710000000 1.0
C      1  0.5174350000000  0.5451030000000  0.4256970000000 1.0
C      1  0.4704350000000  0.4238390000000  0.5804660000000 1.0
C      1  0.5265080000000  0.5182770000000  0.5184730000000 1.0
C      1  0.5828580000000  0.5636690000000  0.5210890000000 1.0
C      1  0.5602950000000  0.5286060000000  0.5605730000000 1.0
C      1  0.5979600000000  0.4787630000000  0.5107240000000 1.0
C      1  0.4473700000000  0.5125330000000  0.4156030000000 1.0
C      1  0.4273080000000  0.4924870000000  0.5693710000000 1.0
C      1  0.5806740000000  0.5109520000000  0.4257450000000 1.0
C      1  0.4545070000000  0.3467390000000  0.5152370000000 1.0
C      1  0.4980760000000  0.4206510000000  0.5865710000000 1.0
C      1  0.4642600000000  0.4902900000000  0.4248480000000 1.0
C      1  0.5018100000000  0.4640620000000  0.5636750000000 1.0
C      1  0.5114890000000  0.5504780000000  0.5863740000000 1.0
C      1  0.6024900000000  0.5178510000000  0.4679300000000 1.0
C      1  0.3893020000000  0.4698320000000  0.5297720000000 1.0
C      1  0.5661820000000  0.4454340000000  0.4488090000000 1.0
C      1  0.4511830000000  0.4803610000000  0.4516420000000 1.0
C      1  0.5058430000000  0.5415110000000  0.4512640000000 1.0
C      1  0.4367230000000  0.5124710000000  0.4886380000000 1.0
C      1  0.5717110000000  0.4864060000000  0.4203020000000 1.0
C      1  0.5032370000000  0.4059150000000  0.4575800000000 1.0
C      1  0.5026280000000  0.5061150000000  0.6073360000000 1.0
C      1  0.4614720000000  0.6003110000000  0.4704310000000 1.0
C      1  0.4748580000000  0.4710990000000  0.5598940000000 1.0
C      1  0.3982360000000  0.5443970000000  0.5165710000000 1.0
C      1  0.5119570000000  0.4824210000000  0.4350640000000 1.0
C      1  0.5675560000000  0.5895720000000  0.4768480000000 1.0
C      1  0.5748570000000  0.5824630000000  0.4502880000000 1.0
C      1  0.5134670000000  0.5328760000000  0.4020540000000 1.0
C      1  0.4391300000000  0.5071960000000  0.4612180000000 1.0
C      1  0.5725710000000  0.6193720000000  0.4109510000000 1.0
C      1  0.5896030000000  0.5291830000000  0.4452320000000 1.0
C      1  0.3852780000000  0.4875480000000  0.5505650000000 1.0
C      1  0.4848350000000  0.4866140000000  0.6131130000000 1.0
C      1  0.4677590000000  0.4237230000000  0.5517730000000 1.0
C      1  0.5994390000000  0.5281950000000  0.4938760000000 1.0
C      1  0.4622390000000  0.5505150000000  0.5198380000000 1.0
C      1  0.3805770000000  0.5536690000000  0.4957350000000 1.0
C      1  0.4174590000000  0.5000540000000  0.5053970000000 1.0
C      1  0.5225840000000  0.5920640000000  0.4957690000000 1.0
C      1  0.4589430000000  0.4426380000000  0.5987960000000 1.0
C      1  0.4404090000000  0.5605050000000  0.5351580000000 1.0
C      1  0.4721350000000  0.4850260000000  0.4978770000000 1.0
C      1  0.4365390000000  0.5528860000000  0.5624590000000 1.0
C      1  0.5134520000000  0.3837730000000  0.4730200000000 1.0
C      1  0.4914770000000  0.4918140000000  0.4180180000000 1.0
C      1  0.4816750000000  0.5803000000000  0.4730010000000 1.0
C      1  0.5584780000000  0.3993730000000  0.4683860000000 1.0
C      1  0.4662980000000  0.6228410000000  0.4546950000000 1.0
C      1  0.5202730000000  0.4828360000000  0.5543920000000 1.0
C      1  0.5386100000000  0.3892840000000  0.4860220000000 1.0
C      1  0.5233000000000  0.4712100000000  0.4821860000000 1.0
C      1  0.5722890000000  0.5725420000000  0.5454020000000 1.0
C      1  0.5572240000000  0.4637990000000  0.4281490000000 1.0
C      1  0.4513480000000  0.4834430000000  0.5586760000000 1.0
C      1  0.5395120000000  0.3990040000000  0.5123500000000 1.0
C      1  0.5067010000000  0.4337100000000  0.5163850000000 1.0
C      1  0.5424050000000  0.6314890000000  0.4757140000000 1.0
C      1  0.5159040000000  0.4915830000000  0.4620300000000 1.0
C      1  0.4132580000000  0.5366230000000  0.5674350000000 1.0
C      1  0.4582590000000  0.5561610000000  0.5799930000000 1.0
C      1  0.4686600000000  0.4649760000000  0.6111670000000 1.0
C      1  0.5290010000000  0.4628410000000  0.4237830000000 1.0
C      1  0.5027660000000  0.3587010000000  0.4718280000000 1.0
C      1  0.5158960000000  0.5201770000000  0.4681010000000 1.0
C      1  0.4515090000000  0.4123700000000  0.4690480000000 1.0
C      1  0.5440220000000  0.6044930000000  0.4826480000000 1.0
C      1  0.5060220000000  0.4501550000000  0.4921100000000 1.0
C      1  0.5517040000000  0.4200960000000  0.4504720000000 1.0
C      1  0.4548410000000  0.5305310000000  0.5011870000000 1.0
C      1  0.4155650000000  0.5846590000000  0.4964000000000 1.0
C      1  0.4834220000000  0.4191060000000  0.5279160000000 1.0
C      1  0.4295770000000  0.4610260000000  0.4429620000000 1.0
C      1  0.4416690000000  0.3892090000000  0.4570330000000 1.0
C      1  0.5435120000000  0.5143570000000  0.5791410000000 1.0
C      1  0.5003380000000  0.5096840000000  0.3978750000000 1.0
C      1  0.4680570000000  0.4699230000000  0.4740440000000 1.0
C      1  0.5781520000000  0.4873830000000  0.5295770000000 1.0
C      1  0.5505290000000  0.4677080000000  0.4866440000000 1.0
END
