TITL C-627108-131-1327 -5.74751565907272e-07 125000 -237.098576977822 0 0 41 (C1) n - 1
REM
REM in /home/nfs/bkarasulu/CARBON/AIRSS/Generating-Clusters/LCBOP/Only-C1/SD-CG/FIRE-CG
REM
REM
REM
REM
REM
REM ./C.cell (11c1c37f851c82e70ff6c80c92926a4b)
REM AIRSS Version 0.9.1 bugfix July 2018 build 013d7b7c2542+ Fri, 06 Jul 2018 19:26:36 +0100
REM compiler GCC version 9.2.1 20190827 (Red Hat 9.2.1-1)
REM options -cpp -mtune=generic -march=x86-64 -g -O0 -fpre-include=/usr/include/finclude/math-vector-fortran.h
REM seed 934381751 1595012544 327652017 469868900 -1338398192 -1273195785 -441616348 -1330207712 -1450385944 1676736503 474202215 -840537723 2071683877 321082272 -669651747 -1905451345 1309180890 48408889 278823554 1173192785 -151115261 -1052739834 -1358101580 2073784622 -613838525 -39123737 -1578826549 396530972 -2129112558 -1446889763 -1211413025 -698125367 -1532364180
REM
CELL 1.54180   50.00000   50.00000   50.00000   90.00000   90.00000   90.00000
LATT -1
SFAC C  
C      1  0.5258830000000  0.5761630000000  0.4808630000000 1.0
C      1  0.5368360000000  0.4649810000000  0.4665940000000 1.0
C      1  0.5418820000000  0.5119310000000  0.4569500000000 1.0
C      1  0.5208210000000  0.5551420000000  0.4630050000000 1.0
C      1  0.4396740000000  0.4453890000000  0.5563410000000 1.0
C      1  0.4574030000000  0.5652950000000  0.5357220000000 1.0
C      1  0.4858980000000  0.5933970000000  0.5015390000000 1.0
C      1  0.4658860000000  0.4164300000000  0.5033900000000 1.0
C      1  0.4992110000000  0.4577860000000  0.4976750000000 1.0
C      1  0.4930170000000  0.4857170000000  0.4573930000000 1.0
C      1  0.5038680000000  0.4710460000000  0.5244970000000 1.0
C      1  0.5101990000000  0.6207580000000  0.4700470000000 1.0
C      1  0.5540410000000  0.4873540000000  0.4626130000000 1.0
C      1  0.4464100000000  0.4112610000000  0.5209250000000 1.0
C      1  0.4442890000000  0.4469420000000  0.4064400000000 1.0
C      1  0.5536980000000  0.5538440000000  0.5177420000000 1.0
C      1  0.5590890000000  0.5069430000000  0.5350480000000 1.0
C      1  0.5309540000000  0.4622750000000  0.5355410000000 1.0
C      1  0.5072890000000  0.5973810000000  0.4838700000000 1.0
C      1  0.5811800000000  0.4851650000000  0.4648200000000 1.0
C      1  0.4762310000000  0.4731940000000  0.4388910000000 1.0
C      1  0.4566160000000  0.4677350000000  0.5556010000000 1.0
C      1  0.4847350000000  0.4337790000000  0.4961670000000 1.0
C      1  0.4936030000000  0.5142160000000  0.4589860000000 1.0
C      1  0.5028670000000  0.5009790000000  0.5215350000000 1.0
C      1  0.5166530000000  0.5236860000000  0.5239700000000 1.0
C      1  0.5441250000000  0.5293980000000  0.5271190000000 1.0
C      1  0.4355620000000  0.4228710000000  0.5424690000000 1.0
C      1  0.5518220000000  0.4812040000000  0.5375010000000 1.0
C      1  0.4478820000000  0.4934330000000  0.5621640000000 1.0
C      1  0.5097350000000  0.4697450000000  0.4740780000000 1.0
C      1  0.4695890000000  0.5820290000000  0.5191140000000 1.0
C      1  0.4458350000000  0.5197570000000  0.5593380000000 1.0
C      1  0.5458290000000  0.4394170000000  0.4627420000000 1.0
C      1  0.5187550000000  0.5276380000000  0.4583620000000 1.0
C      1  0.4702730000000  0.5283080000000  0.4616750000000 1.0
C      1  0.5462430000000  0.5722680000000  0.4998440000000 1.0
C      1  0.5346430000000  0.4362440000000  0.5432150000000 1.0
C      1  0.4493270000000  0.5442760000000  0.5497760000000 1.0
C      1  0.4601400000000  0.4600600000000  0.4224480000000 1.0
C      1  0.4820030000000  0.4645650000000  0.5439880000000 1.0
END
