TITL C-627109-622-1194 3.60974312524834e-07 125000 -445.787519628599 0 0 75 (C1) n - 1
REM
REM in /home/nfs/bkarasulu/CARBON/AIRSS/Generating-Clusters/LCBOP/Only-C1/SD-CG/FIRE-CG
REM
REM
REM
REM
REM
REM ./C.cell (11c1c37f851c82e70ff6c80c92926a4b)
REM AIRSS Version 0.9.1 bugfix July 2018 build 013d7b7c2542+ Fri, 06 Jul 2018 19:26:36 +0100
REM compiler GCC version 9.2.1 20190827 (Red Hat 9.2.1-1)
REM options -cpp -mtune=generic -march=x86-64 -g -O0 -fpre-include=/usr/include/finclude/math-vector-fortran.h
REM seed 932793730 309871131 -434686624 -1660232183 1893054080 1512272796 -275987517 886678963 -835095329 -849298050 2128007852 1783789390 -1598394956 1580219120 -1912256639 -1506914266 120334882 1590172015 1212046669 -1281295728 -594015145 -2032568632 -401829674 749467056 -1377017255 898512884 -1539216745 1781085062 592007153 2079771747 -1016286654 1431534944 1384255682
REM
CELL 1.54180   50.00000   50.00000   50.00000   90.00000   90.00000   90.00000
LATT -1
SFAC C  
C      1  0.5587990000000  0.5120990000000  0.4286720000000 1.0
C      1  0.5304280000000  0.4294160000000  0.5134600000000 1.0
C      1  0.5188020000000  0.5680970000000  0.5246820000000 1.0
C      1  0.5182260000000  0.5365730000000  0.4297990000000 1.0
C      1  0.4926270000000  0.5006010000000  0.4574990000000 1.0
C      1  0.5313290000000  0.4672800000000  0.5881050000000 1.0
C      1  0.4155540000000  0.5549660000000  0.4319590000000 1.0
C      1  0.4709050000000  0.5085790000000  0.4765720000000 1.0
C      1  0.4691340000000  0.4530580000000  0.4652730000000 1.0
C      1  0.5651540000000  0.4801730000000  0.5547900000000 1.0
C      1  0.5486260000000  0.4709630000000  0.5333500000000 1.0
C      1  0.4601800000000  0.5567050000000  0.4620260000000 1.0
C      1  0.5066460000000  0.5565830000000  0.4130440000000 1.0
C      1  0.5377490000000  0.5254990000000  0.4713680000000 1.0
C      1  0.4135660000000  0.4724470000000  0.5801650000000 1.0
C      1  0.6017890000000  0.4591890000000  0.5171900000000 1.0
C      1  0.4476840000000  0.5687500000000  0.5147200000000 1.0
C      1  0.4914050000000  0.4182160000000  0.4401830000000 1.0
C      1  0.4899660000000  0.4467200000000  0.5706210000000 1.0
C      1  0.6050630000000  0.4829780000000  0.5299090000000 1.0
C      1  0.5631910000000  0.5442060000000  0.5383560000000 1.0
C      1  0.4778590000000  0.5368360000000  0.5719900000000 1.0
C      1  0.4378400000000  0.5554140000000  0.4454610000000 1.0
C      1  0.4294210000000  0.4863860000000  0.4841750000000 1.0
C      1  0.5196960000000  0.4096680000000  0.4949790000000 1.0
C      1  0.5805140000000  0.5246920000000  0.5449430000000 1.0
C      1  0.4415050000000  0.5273970000000  0.5359430000000 1.0
C      1  0.5423720000000  0.5304720000000  0.4435920000000 1.0
C      1  0.4737620000000  0.4059610000000  0.5106600000000 1.0
C      1  0.4884900000000  0.5410610000000  0.5030770000000 1.0
C      1  0.4561380000000  0.4956840000000  0.5849720000000 1.0
C      1  0.4976950000000  0.5712440000000  0.5451590000000 1.0
C      1  0.4995640000000  0.5116640000000  0.4288040000000 1.0
C      1  0.4909530000000  0.5163060000000  0.5196020000000 1.0
C      1  0.4547000000000  0.5063480000000  0.4041890000000 1.0
C      1  0.4763310000000  0.4278840000000  0.5574630000000 1.0
C      1  0.5458630000000  0.5413470000000  0.4935030000000 1.0
C      1  0.5216530000000  0.4857940000000  0.4959420000000 1.0
C      1  0.4806280000000  0.4255590000000  0.4657350000000 1.0
C      1  0.4796390000000  0.5092910000000  0.5772140000000 1.0
C      1  0.5032930000000  0.5649130000000  0.5008830000000 1.0
C      1  0.4987310000000  0.5817310000000  0.4790680000000 1.0
C      1  0.5023070000000  0.4634620000000  0.4272550000000 1.0
C      1  0.4319040000000  0.4905560000000  0.5714050000000 1.0
C      1  0.4765100000000  0.5210300000000  0.4107400000000 1.0
C      1  0.4830080000000  0.5477620000000  0.4020600000000 1.0
C      1  0.5153360000000  0.4872310000000  0.4175940000000 1.0
C      1  0.5863510000000  0.4970920000000  0.5459860000000 1.0
C      1  0.4581630000000  0.5447050000000  0.5524630000000 1.0
C      1  0.5436830000000  0.5531800000000  0.5200750000000 1.0
C      1  0.4908640000000  0.4108710000000  0.4885450000000 1.0
C      1  0.4696550000000  0.4130580000000  0.5362060000000 1.0
C      1  0.4788570000000  0.5778850000000  0.4612400000000 1.0
C      1  0.5025440000000  0.4357870000000  0.4226570000000 1.0
C      1  0.5065210000000  0.4690190000000  0.5749330000000 1.0
C      1  0.4998480000000  0.4944760000000  0.5635880000000 1.0
C      1  0.4992220000000  0.5558550000000  0.5699650000000 1.0
C      1  0.5538070000000  0.4448650000000  0.5204700000000 1.0
C      1  0.4245900000000  0.5120780000000  0.4932200000000 1.0
C      1  0.5071520000000  0.4456820000000  0.5170380000000 1.0
C      1  0.5432960000000  0.4920200000000  0.4154560000000 1.0
C      1  0.5301460000000  0.4900700000000  0.5231460000000 1.0
C      1  0.4285170000000  0.5057390000000  0.5478670000000 1.0
C      1  0.4449130000000  0.4650890000000  0.4759340000000 1.0
C      1  0.4674360000000  0.5691210000000  0.5373010000000 1.0
C      1  0.4410180000000  0.5375710000000  0.5057070000000 1.0
C      1  0.4644450000000  0.5369850000000  0.4839360000000 1.0
C      1  0.4748600000000  0.4977800000000  0.5036150000000 1.0
C      1  0.5562850000000  0.4738660000000  0.5805350000000 1.0
C      1  0.4864380000000  0.4712140000000  0.4504830000000 1.0
C      1  0.5035240000000  0.4642960000000  0.4980290000000 1.0
C      1  0.5811190000000  0.4419630000000  0.5135180000000 1.0
C      1  0.5191530000000  0.5037800000000  0.4748480000000 1.0
C      1  0.5091340000000  0.5034280000000  0.5377960000000 1.0
C      1  0.5859270000000  0.5137350000000  0.4272900000000 1.0
END
