TITL C-627113-6568-73 6.09659165394646e-08 125000 -575.963757901729 0 0 94 (C1) n - 1
REM
REM in /home/nfs/bkarasulu/CARBON/AIRSS/Generating-Clusters/LCBOP/Only-C1/SD-CG/FIRE-CG
REM
REM
REM
REM
REM
REM ./C.cell (11c1c37f851c82e70ff6c80c92926a4b)
REM AIRSS Version 0.9.1 bugfix July 2018 build 013d7b7c2542+ Fri, 06 Jul 2018 19:26:36 +0100
REM compiler GCC version 9.2.1 20190827 (Red Hat 9.2.1-1)
REM options -cpp -mtune=generic -march=x86-64 -g -O0 -fpre-include=/usr/include/finclude/math-vector-fortran.h
REM seed 29657844 -1870063045 386278709 1346487789 668984403 -1385695803 957257161 1873403231 -427351368 -1495858119 167961850 -275602562 -1062023864 373836135 1495193151 178450721 -57953769 -2026508847 1179442219 799808666 -565226080 1547889796 602978544 -1659374316 -517892760 -1549411761 -1148278513 896194415 -538335336 1185888496 -2119577596 2082665481 -1410582932
REM
CELL 1.54180   50.00000   50.00000   50.00000   90.00000   90.00000   90.00000
LATT -1
SFAC C  
C      1  0.4318500000000  0.3986590000000  0.5249550000000 1.0
C      1  0.4096400000000  0.5165160000000  0.5742310000000 1.0
C      1  0.4098240000000  0.5320470000000  0.4799910000000 1.0
C      1  0.4627660000000  0.5157520000000  0.4998070000000 1.0
C      1  0.5264340000000  0.4777980000000  0.5169030000000 1.0
C      1  0.4737630000000  0.4425950000000  0.5131760000000 1.0
C      1  0.5477680000000  0.4263350000000  0.5152120000000 1.0
C      1  0.5535730000000  0.5459270000000  0.5257860000000 1.0
C      1  0.5607040000000  0.4680700000000  0.5869190000000 1.0
C      1  0.5510740000000  0.4156080000000  0.4676620000000 1.0
C      1  0.4855520000000  0.4844460000000  0.4144980000000 1.0
C      1  0.4347520000000  0.5456110000000  0.4822280000000 1.0
C      1  0.5148240000000  0.5514240000000  0.3975800000000 1.0
C      1  0.5225570000000  0.5413860000000  0.4652870000000 1.0
C      1  0.4546490000000  0.5567750000000  0.4389140000000 1.0
C      1  0.4642910000000  0.5906740000000  0.4720770000000 1.0
C      1  0.5619370000000  0.4365770000000  0.4546150000000 1.0
C      1  0.5698030000000  0.5449300000000  0.5030230000000 1.0
C      1  0.5497230000000  0.4960110000000  0.5161480000000 1.0
C      1  0.4721130000000  0.3727680000000  0.5042790000000 1.0
C      1  0.4899920000000  0.5095510000000  0.4017340000000 1.0
C      1  0.5309180000000  0.4218310000000  0.5389190000000 1.0
C      1  0.5154270000000  0.6037530000000  0.4430270000000 1.0
C      1  0.5163140000000  0.4744440000000  0.4888800000000 1.0
C      1  0.5374470000000  0.5129140000000  0.4154870000000 1.0
C      1  0.4761940000000  0.4913680000000  0.5649790000000 1.0
C      1  0.4960160000000  0.5643440000000  0.4146980000000 1.0
C      1  0.5489980000000  0.5343060000000  0.4579670000000 1.0
C      1  0.6030580000000  0.4864430000000  0.4695810000000 1.0
C      1  0.5045690000000  0.5250770000000  0.5347250000000 1.0
C      1  0.5039390000000  0.5622690000000  0.4633450000000 1.0
C      1  0.5091980000000  0.4052780000000  0.4936320000000 1.0
C      1  0.4540070000000  0.4715030000000  0.5640260000000 1.0
C      1  0.4846200000000  0.5043170000000  0.5406980000000 1.0
C      1  0.4663650000000  0.5264960000000  0.4027080000000 1.0
C      1  0.4785590000000  0.5596090000000  0.5087140000000 1.0
C      1  0.5702540000000  0.4763660000000  0.5051620000000 1.0
C      1  0.4176010000000  0.4949250000000  0.4455720000000 1.0
C      1  0.4217160000000  0.5393920000000  0.5805280000000 1.0
C      1  0.4883600000000  0.5775730000000  0.4863660000000 1.0
C      1  0.4421080000000  0.5119550000000  0.4067280000000 1.0
C      1  0.5132930000000  0.4918030000000  0.5982780000000 1.0
C      1  0.4519740000000  0.5830240000000  0.4492490000000 1.0
C      1  0.4750770000000  0.4889320000000  0.4614740000000 1.0
C      1  0.5439340000000  0.5162320000000  0.5634820000000 1.0
C      1  0.4861390000000  0.5645500000000  0.5560790000000 1.0
C      1  0.5721260000000  0.5457500000000  0.4163000000000 1.0
C      1  0.4935070000000  0.5515900000000  0.5321290000000 1.0
C      1  0.4548910000000  0.5434580000000  0.5036850000000 1.0
C      1  0.5369900000000  0.4130880000000  0.4918770000000 1.0
C      1  0.5317120000000  0.5093810000000  0.5862320000000 1.0
C      1  0.4421260000000  0.5564620000000  0.5812980000000 1.0
C      1  0.4396690000000  0.4927090000000  0.4279330000000 1.0
C      1  0.4660850000000  0.4821680000000  0.4353970000000 1.0
C      1  0.5792260000000  0.4764800000000  0.4779970000000 1.0
C      1  0.4652790000000  0.5138320000000  0.4705940000000 1.0
C      1  0.4614760000000  0.4334950000000  0.5367310000000 1.0
C      1  0.5379100000000  0.5642650000000  0.3877640000000 1.0
C      1  0.5700650000000  0.4661230000000  0.6116500000000 1.0
C      1  0.5634040000000  0.5620680000000  0.3965190000000 1.0
C      1  0.4688360000000  0.4463230000000  0.5606540000000 1.0
C      1  0.5789560000000  0.4645420000000  0.6361040000000 1.0
C      1  0.5069800000000  0.6014160000000  0.4905380000000 1.0
C      1  0.5765340000000  0.4527350000000  0.5444010000000 1.0
C      1  0.5507690000000  0.5689200000000  0.5403890000000 1.0
C      1  0.5338380000000  0.4729000000000  0.4668470000000 1.0
C      1  0.5563420000000  0.4656990000000  0.5595300000000 1.0
C      1  0.4887940000000  0.4746090000000  0.4819890000000 1.0
C      1  0.5165640000000  0.4424960000000  0.5524410000000 1.0
C      1  0.4957220000000  0.4494730000000  0.5700070000000 1.0
C      1  0.5399230000000  0.5206410000000  0.5339870000000 1.0
C      1  0.5110290000000  0.4896110000000  0.6253760000000 1.0
C      1  0.4967190000000  0.4772640000000  0.5807930000000 1.0
C      1  0.5599010000000  0.4639290000000  0.4612290000000 1.0
C      1  0.4173570000000  0.4444600000000  0.5472540000000 1.0
C      1  0.4053900000000  0.5103500000000  0.4641230000000 1.0
C      1  0.4099710000000  0.4911690000000  0.5659940000000 1.0
C      1  0.4259170000000  0.4692560000000  0.5594000000000 1.0
C      1  0.4700470000000  0.5517470000000  0.4157460000000 1.0
C      1  0.5176430000000  0.6137750000000  0.4684090000000 1.0
C      1  0.4480740000000  0.3801810000000  0.5138330000000 1.0
C      1  0.4969790000000  0.3799020000000  0.4963380000000 1.0
C      1  0.5053330000000  0.5775950000000  0.4382730000000 1.0
C      1  0.4732170000000  0.4697830000000  0.5056730000000 1.0
C      1  0.4516470000000  0.5368840000000  0.4588410000000 1.0
C      1  0.4906720000000  0.4260160000000  0.4982550000000 1.0
C      1  0.5151080000000  0.5226070000000  0.4010880000000 1.0
C      1  0.4698220000000  0.4955400000000  0.5177490000000 1.0
C      1  0.5683110000000  0.4484440000000  0.5171850000000 1.0
C      1  0.4344140000000  0.4243830000000  0.5360280000000 1.0
C      1  0.4658860000000  0.5655990000000  0.5734530000000 1.0
C      1  0.5307460000000  0.4660530000000  0.5442750000000 1.0
C      1  0.5687380000000  0.5386800000000  0.4772070000000 1.0
C      1  0.5556810000000  0.5279870000000  0.4311590000000 1.0
END
