TITL C-627112-676-1049 6.23425166130866e-07 125000 -953.67599832574 0 0 154 (C1) n - 1
REM
REM in /home/nfs/bkarasulu/CARBON/AIRSS/Generating-Clusters/LCBOP/Only-C1/SD-CG/FIRE-CG
REM
REM
REM
REM
REM
REM ./C.cell (11c1c37f851c82e70ff6c80c92926a4b)
REM AIRSS Version 0.9.1 bugfix July 2018 build 013d7b7c2542+ Fri, 06 Jul 2018 19:26:36 +0100
REM compiler GCC version 9.2.1 20190827 (Red Hat 9.2.1-1)
REM options -cpp -mtune=generic -march=x86-64 -g -O0 -fpre-include=/usr/include/finclude/math-vector-fortran.h
REM seed 487295157 -101016941 1234311268 1922597956 28181419 310220428 -1310857702 -1463812949 -1632622573 747540578 1611844530 -1335914450 1498679476 -1063941333 -2024415539 -176558338 -492811358 2060434380 -1070473080 929018274 -1002150529 647426469 -831352399 219959614 -2099935875 -1479278366 1302237768 1073027900 -293031999 1557323877 1483875722 -1735181297 -1759414886
REM
CELL 1.54180   50.00000   50.00000   50.00000   90.00000   90.00000   90.00000
LATT -1
SFAC C  
C      1  0.5410410000000  0.5015980000000  0.6110310000000 1.0
C      1  0.4189460000000  0.4026310000000  0.5049810000000 1.0
C      1  0.5182690000000  0.5597160000000  0.5458140000000 1.0
C      1  0.5288740000000  0.4810320000000  0.4121240000000 1.0
C      1  0.5226280000000  0.5730520000000  0.5701960000000 1.0
C      1  0.5899090000000  0.4839180000000  0.4081390000000 1.0
C      1  0.4408620000000  0.4561590000000  0.6085420000000 1.0
C      1  0.4811880000000  0.4723510000000  0.4119460000000 1.0
C      1  0.5747500000000  0.5289520000000  0.5694880000000 1.0
C      1  0.5032520000000  0.4893840000000  0.4002540000000 1.0
C      1  0.4027090000000  0.4695540000000  0.5813420000000 1.0
C      1  0.3784380000000  0.5114410000000  0.5065120000000 1.0
C      1  0.5630410000000  0.4926780000000  0.5974040000000 1.0
C      1  0.4292270000000  0.4523280000000  0.4741510000000 1.0
C      1  0.5690700000000  0.4876230000000  0.4922010000000 1.0
C      1  0.5007910000000  0.3689030000000  0.5236570000000 1.0
C      1  0.4342890000000  0.5212280000000  0.5324130000000 1.0
C      1  0.4293230000000  0.4871200000000  0.4428650000000 1.0
C      1  0.4019990000000  0.5256710000000  0.5009520000000 1.0
C      1  0.6048930000000  0.4901130000000  0.4583060000000 1.0
C      1  0.4948520000000  0.4963930000000  0.5025030000000 1.0
C      1  0.4795690000000  0.5419150000000  0.3995940000000 1.0
C      1  0.4873900000000  0.5118200000000  0.4359510000000 1.0
C      1  0.4633170000000  0.4970050000000  0.5775330000000 1.0
C      1  0.5148230000000  0.5446520000000  0.6146910000000 1.0
C      1  0.5850060000000  0.5610940000000  0.4768550000000 1.0
C      1  0.5197400000000  0.4226430000000  0.4080900000000 1.0
C      1  0.5192120000000  0.4805170000000  0.4647500000000 1.0
C      1  0.5457800000000  0.5005640000000  0.5032630000000 1.0
C      1  0.4681410000000  0.6069230000000  0.5021490000000 1.0
C      1  0.4447030000000  0.4432250000000  0.4985410000000 1.0
C      1  0.4231240000000  0.4293410000000  0.5139030000000 1.0
C      1  0.5071550000000  0.4531540000000  0.5432430000000 1.0
C      1  0.4481850000000  0.4400380000000  0.4294960000000 1.0
C      1  0.5667000000000  0.4276650000000  0.4332440000000 1.0
C      1  0.4693190000000  0.4557790000000  0.5066510000000 1.0
C      1  0.5694070000000  0.4986880000000  0.5678810000000 1.0
C      1  0.3916680000000  0.4977860000000  0.4059000000000 1.0
C      1  0.5712710000000  0.4731740000000  0.3911730000000 1.0
C      1  0.4250350000000  0.4768840000000  0.5969530000000 1.0
C      1  0.3999280000000  0.4478230000000  0.5120640000000 1.0
C      1  0.5434560000000  0.5299980000000  0.5135820000000 1.0
C      1  0.4105080000000  0.4941620000000  0.4235420000000 1.0
C      1  0.5214140000000  0.6099850000000  0.5030220000000 1.0
C      1  0.5039050000000  0.4156340000000  0.5115210000000 1.0
C      1  0.4384750000000  0.5015400000000  0.5904080000000 1.0
C      1  0.4306910000000  0.3977250000000  0.4556760000000 1.0
C      1  0.4495980000000  0.5308870000000  0.4502510000000 1.0
C      1  0.4021090000000  0.4558250000000  0.4841850000000 1.0
C      1  0.4454610000000  0.4992150000000  0.4897320000000 1.0
C      1  0.4636490000000  0.6051780000000  0.4735320000000 1.0
C      1  0.5018260000000  0.5717760000000  0.5274090000000 1.0
C      1  0.4566190000000  0.5385280000000  0.5312930000000 1.0
C      1  0.5919270000000  0.4430710000000  0.4309660000000 1.0
C      1  0.6031820000000  0.5059560000000  0.5300120000000 1.0
C      1  0.3740050000000  0.4880620000000  0.5192540000000 1.0
C      1  0.4927710000000  0.4265880000000  0.4060900000000 1.0
C      1  0.3910930000000  0.4638680000000  0.5579700000000 1.0
C      1  0.4652590000000  0.5979300000000  0.4473900000000 1.0
C      1  0.4716790000000  0.5861770000000  0.4236440000000 1.0
C      1  0.4932920000000  0.6181970000000  0.5106160000000 1.0
C      1  0.5474610000000  0.3125460000000  0.5219280000000 1.0
C      1  0.6019610000000  0.5186980000000  0.5036420000000 1.0
C      1  0.5432740000000  0.5173400000000  0.4434810000000 1.0
C      1  0.5343060000000  0.4637200000000  0.5473740000000 1.0
C      1  0.5183910000000  0.5688380000000  0.4446530000000 1.0
C      1  0.5943370000000  0.4997690000000  0.4839290000000 1.0
C      1  0.4261580000000  0.5104180000000  0.5076600000000 1.0
C      1  0.5670840000000  0.5560980000000  0.5669090000000 1.0
C      1  0.4396280000000  0.5532820000000  0.5863400000000 1.0
C      1  0.4715910000000  0.4454570000000  0.4116400000000 1.0
C      1  0.5620770000000  0.4206180000000  0.4617560000000 1.0
C      1  0.4833930000000  0.4372730000000  0.5875810000000 1.0
C      1  0.5434730000000  0.3850710000000  0.5113200000000 1.0
C      1  0.5684190000000  0.5741190000000  0.4571170000000 1.0
C      1  0.5046540000000  0.5509610000000  0.4858020000000 1.0
C      1  0.4273440000000  0.5267980000000  0.5816890000000 1.0
C      1  0.4352870000000  0.4598280000000  0.4472650000000 1.0
C      1  0.5204330000000  0.4914690000000  0.4913600000000 1.0
C      1  0.5679420000000  0.5476420000000  0.5190080000000 1.0
C      1  0.5163940000000  0.4244130000000  0.4569520000000 1.0
C      1  0.5625190000000  0.4738440000000  0.4487600000000 1.0
C      1  0.4379280000000  0.5396550000000  0.4257080000000 1.0
C      1  0.4208250000000  0.3919730000000  0.4801590000000 1.0
C      1  0.4783420000000  0.5341360000000  0.4506470000000 1.0
C      1  0.4715440000000  0.4213370000000  0.4626930000000 1.0
C      1  0.4099050000000  0.5536090000000  0.5009860000000 1.0
C      1  0.4883600000000  0.4535430000000  0.5649590000000 1.0
C      1  0.5594280000000  0.5936150000000  0.5337740000000 1.0
C      1  0.4626550000000  0.5556670000000  0.6037250000000 1.0
C      1  0.5467780000000  0.5663590000000  0.5843310000000 1.0
C      1  0.5366240000000  0.4133730000000  0.4718580000000 1.0
C      1  0.5894420000000  0.4871250000000  0.5476110000000 1.0
C      1  0.4977240000000  0.5533460000000  0.4587790000000 1.0
C      1  0.5701520000000  0.3861820000000  0.5169190000000 1.0
C      1  0.4885030000000  0.3942610000000  0.5236160000000 1.0
C      1  0.4071440000000  0.5717300000000  0.5235590000000 1.0
C      1  0.5678480000000  0.5671530000000  0.5400130000000 1.0
C      1  0.5583010000000  0.4489950000000  0.5442460000000 1.0
C      1  0.5412750000000  0.4906120000000  0.5554650000000 1.0
C      1  0.5780030000000  0.5761150000000  0.4304890000000 1.0
C      1  0.4405750000000  0.5059620000000  0.4617020000000 1.0
C      1  0.5276730000000  0.3624980000000  0.5186900000000 1.0
C      1  0.4340090000000  0.5738200000000  0.5659830000000 1.0
C      1  0.4978130000000  0.6322410000000  0.5357200000000 1.0
C      1  0.5903200000000  0.4738850000000  0.4361740000000 1.0
C      1  0.4298580000000  0.5828710000000  0.5385530000000 1.0
C      1  0.5004570000000  0.5796620000000  0.5865010000000 1.0
C      1  0.5237840000000  0.5119770000000  0.5563750000000 1.0
C      1  0.3867560000000  0.4651120000000  0.5302280000000 1.0
C      1  0.4812030000000  0.4835770000000  0.4390180000000 1.0
C      1  0.5391730000000  0.6119140000000  0.5269120000000 1.0
C      1  0.4498020000000  0.4155850000000  0.4454830000000 1.0
C      1  0.4951710000000  0.4671740000000  0.4572660000000 1.0
C      1  0.4742310000000  0.5361160000000  0.5525410000000 1.0
C      1  0.5848260000000  0.4593270000000  0.5405220000000 1.0
C      1  0.5159600000000  0.5704880000000  0.4163240000000 1.0
C      1  0.5750470000000  0.4388780000000  0.4795730000000 1.0
C      1  0.5951690000000  0.4345760000000  0.4984240000000 1.0
C      1  0.5291050000000  0.4065370000000  0.4986710000000 1.0
C      1  0.5377050000000  0.3366640000000  0.5204000000000 1.0
C      1  0.5471420000000  0.4616510000000  0.4007940000000 1.0
C      1  0.4931640000000  0.4388300000000  0.4599900000000 1.0
C      1  0.4176050000000  0.5235360000000  0.5550820000000 1.0
C      1  0.4625630000000  0.4404920000000  0.6047810000000 1.0
C      1  0.5648410000000  0.4650690000000  0.4760460000000 1.0
C      1  0.4888790000000  0.5682550000000  0.4083960000000 1.0
C      1  0.4947660000000  0.4427200000000  0.5182520000000 1.0
C      1  0.5390080000000  0.5734590000000  0.4007890000000 1.0
C      1  0.5181690000000  0.5176650000000  0.6050140000000 1.0
C      1  0.5318300000000  0.6009670000000  0.4787320000000 1.0
C      1  0.6008390000000  0.4447480000000  0.5226360000000 1.0
C      1  0.5434600000000  0.5331760000000  0.4648750000000 1.0
C      1  0.5237510000000  0.6287360000000  0.5448300000000 1.0
C      1  0.4908860000000  0.5603120000000  0.6056610000000 1.0
C      1  0.4652640000000  0.3982860000000  0.5373140000000 1.0
C      1  0.5454700000000  0.4347560000000  0.4127620000000 1.0
C      1  0.5375710000000  0.4884400000000  0.4409740000000 1.0
C      1  0.4807330000000  0.5180930000000  0.5726810000000 1.0
C      1  0.4592450000000  0.5594510000000  0.5096070000000 1.0
C      1  0.4884660000000  0.5611740000000  0.5054190000000 1.0
C      1  0.4509700000000  0.5400030000000  0.4017140000000 1.0
C      1  0.5889220000000  0.5445300000000  0.5000640000000 1.0
C      1  0.5073750000000  0.5143020000000  0.5789900000000 1.0
C      1  0.4528620000000  0.5885030000000  0.5201990000000 1.0
C      1  0.5271530000000  0.5334690000000  0.5386730000000 1.0
C      1  0.5651230000000  0.5757000000000  0.4068440000000 1.0
C      1  0.4692150000000  0.4739670000000  0.5632730000000 1.0
C      1  0.4691200000000  0.4846630000000  0.5005280000000 1.0
C      1  0.5308320000000  0.5414290000000  0.4889090000000 1.0
C      1  0.4365620000000  0.5567860000000  0.4898510000000 1.0
C      1  0.4938420000000  0.5172490000000  0.4076330000000 1.0
C      1  0.5400370000000  0.5591450000000  0.6112590000000 1.0
C      1  0.5400520000000  0.5817490000000  0.4598260000000 1.0
END
