TITL C-627111-6168-1095 -1.7204555912018e-06 125000 -1179.46841920242 0 0 193 (C1) n - 1
REM
REM in /home/nfs/bkarasulu/CARBON/AIRSS/Generating-Clusters/LCBOP/Only-C1/SD-CG/FIRE-CG
REM
REM
REM
REM
REM
REM ./C.cell (11c1c37f851c82e70ff6c80c92926a4b)
REM AIRSS Version 0.9.1 bugfix July 2018 build 013d7b7c2542+ Fri, 06 Jul 2018 19:26:36 +0100
REM compiler GCC version 9.2.1 20190827 (Red Hat 9.2.1-1)
REM options -cpp -mtune=generic -march=x86-64 -g -O0 -fpre-include=/usr/include/finclude/math-vector-fortran.h
REM seed -1454469136 1204197361 -869994857 -542118978 460622623 -186028221 1434433823 2126124601 -1273924649 929637277 28647228 325800066 -1012128270 -335340828 -1090109391 -396083735 1872710649 804619879 -1723474897 -1399316091 824812945 -1463868994 -1311941893 -1638491476 395341561 -2040582069 1775279528 2011052616 396699268 185094855 -1097172541 234998479 453049168
REM
CELL 1.54180   50.00000   50.00000   50.00000   90.00000   90.00000   90.00000
LATT -1
SFAC C  
C      1  0.4685990000000  0.4008560000000  0.5160730000000 1.0
C      1  0.5094110000000  0.4113020000000  0.4098190000000 1.0
C      1  0.4630210000000  0.5465270000000  0.5766160000000 1.0
C      1  0.4846880000000  0.6278360000000  0.4673290000000 1.0
C      1  0.5169560000000  0.5262890000000  0.4672970000000 1.0
C      1  0.5420960000000  0.5981430000000  0.5054130000000 1.0
C      1  0.5679420000000  0.4043500000000  0.5628660000000 1.0
C      1  0.5907410000000  0.4681120000000  0.5318840000000 1.0
C      1  0.4482370000000  0.5602450000000  0.3863860000000 1.0
C      1  0.5863380000000  0.4460480000000  0.5510450000000 1.0
C      1  0.4074880000000  0.4471000000000  0.4688880000000 1.0
C      1  0.4293740000000  0.4397740000000  0.5769300000000 1.0
C      1  0.4390930000000  0.4219150000000  0.5545820000000 1.0
C      1  0.4295830000000  0.4085050000000  0.4558590000000 1.0
C      1  0.4627250000000  0.5240550000000  0.5599770000000 1.0
C      1  0.5325680000000  0.4650560000000  0.3903520000000 1.0
C      1  0.4470490000000  0.4476570000000  0.4295380000000 1.0
C      1  0.4842190000000  0.4352280000000  0.4586850000000 1.0
C      1  0.5042240000000  0.5153540000000  0.4448620000000 1.0
C      1  0.4856060000000  0.5805410000000  0.4196390000000 1.0
C      1  0.3825520000000  0.5225580000000  0.4672790000000 1.0
C      1  0.5367620000000  0.4097160000000  0.4206460000000 1.0
C      1  0.5834520000000  0.5697140000000  0.4203700000000 1.0
C      1  0.4329810000000  0.5077540000000  0.4461130000000 1.0
C      1  0.5608150000000  0.5585200000000  0.4076290000000 1.0
C      1  0.4747220000000  0.4281690000000  0.5166320000000 1.0
C      1  0.5117270000000  0.4430640000000  0.5493980000000 1.0
C      1  0.5786910000000  0.5617720000000  0.5551500000000 1.0
C      1  0.5777770000000  0.4835720000000  0.3887360000000 1.0
C      1  0.5840050000000  0.4592760000000  0.4693950000000 1.0
C      1  0.4953480000000  0.5491120000000  0.5398230000000 1.0
C      1  0.4574590000000  0.5667380000000  0.4643420000000 1.0
C      1  0.5952060000000  0.4073550000000  0.4809870000000 1.0
C      1  0.4242020000000  0.4238010000000  0.5273380000000 1.0
C      1  0.5548770000000  0.5305910000000  0.4131990000000 1.0
C      1  0.5172720000000  0.3706120000000  0.4321320000000 1.0
C      1  0.5417600000000  0.4488390000000  0.4510440000000 1.0
C      1  0.5903050000000  0.4907080000000  0.4128840000000 1.0
C      1  0.5538580000000  0.5048930000000  0.6009200000000 1.0
C      1  0.5348040000000  0.5763710000000  0.5465860000000 1.0
C      1  0.4090440000000  0.5718920000000  0.4693740000000 1.0
C      1  0.5486320000000  0.4714090000000  0.5612910000000 1.0
C      1  0.5878770000000  0.4177610000000  0.5475280000000 1.0
C      1  0.5823130000000  0.5665680000000  0.5257590000000 1.0
C      1  0.4343580000000  0.5819200000000  0.4563800000000 1.0
C      1  0.4561680000000  0.5138350000000  0.5100310000000 1.0
C      1  0.5699990000000  0.4122210000000  0.4697010000000 1.0
C      1  0.4633810000000  0.4722950000000  0.5363580000000 1.0
C      1  0.4345400000000  0.5852110000000  0.5067350000000 1.0
C      1  0.4919110000000  0.5732010000000  0.6093100000000 1.0
C      1  0.4149240000000  0.5787010000000  0.5661280000000 1.0
C      1  0.5283980000000  0.5114890000000  0.5301280000000 1.0
C      1  0.5816520000000  0.4992110000000  0.4384210000000 1.0
C      1  0.5459690000000  0.5282790000000  0.4641830000000 1.0
C      1  0.4299420000000  0.4674590000000  0.5695210000000 1.0
C      1  0.5214260000000  0.4694750000000  0.5549930000000 1.0
C      1  0.6352670000000  0.4263020000000  0.5022130000000 1.0
C      1  0.4360590000000  0.5136860000000  0.5519540000000 1.0
C      1  0.5674390000000  0.4531250000000  0.5722730000000 1.0
C      1  0.4594010000000  0.4415610000000  0.4977140000000 1.0
C      1  0.5847760000000  0.5387280000000  0.4883240000000 1.0
C      1  0.4998120000000  0.3842610000000  0.4151560000000 1.0
C      1  0.5494720000000  0.4877290000000  0.3885500000000 1.0
C      1  0.5172890000000  0.4181880000000  0.5625320000000 1.0
C      1  0.5930960000000  0.5695440000000  0.4457260000000 1.0
C      1  0.5067640000000  0.5455400000000  0.5668360000000 1.0
C      1  0.5544820000000  0.5063370000000  0.5138350000000 1.0
C      1  0.4937060000000  0.5234310000000  0.3990900000000 1.0
C      1  0.4332770000000  0.5382580000000  0.3842810000000 1.0
C      1  0.4192040000000  0.5593790000000  0.5880370000000 1.0
C      1  0.6112400000000  0.4124350000000  0.5035490000000 1.0
C      1  0.5913430000000  0.4737750000000  0.3672380000000 1.0
C      1  0.5408040000000  0.5147100000000  0.3933130000000 1.0
C      1  0.4348700000000  0.4964230000000  0.4700100000000 1.0
C      1  0.5441990000000  0.3688110000000  0.5115280000000 1.0
C      1  0.5024680000000  0.3793490000000  0.5377590000000 1.0
C      1  0.3826460000000  0.4941880000000  0.4563310000000 1.0
C      1  0.4902150000000  0.6030750000000  0.5632890000000 1.0
C      1  0.3973340000000  0.4792290000000  0.4989520000000 1.0
C      1  0.4084080000000  0.5799310000000  0.4974290000000 1.0
C      1  0.5641760000000  0.4547300000000  0.6006690000000 1.0
C      1  0.4895130000000  0.6083020000000  0.4237500000000 1.0
C      1  0.4598230000000  0.5399540000000  0.4701210000000 1.0
C      1  0.4395030000000  0.5933150000000  0.5601700000000 1.0
C      1  0.4462390000000  0.4355110000000  0.6004650000000 1.0
C      1  0.5053820000000  0.6141760000000  0.5397680000000 1.0
C      1  0.5581250000000  0.5736050000000  0.5096570000000 1.0
C      1  0.4031020000000  0.5428460000000  0.4306900000000 1.0
C      1  0.5603510000000  0.5184590000000  0.4387560000000 1.0
C      1  0.4757340000000  0.6473530000000  0.5198300000000 1.0
C      1  0.5270850000000  0.3661800000000  0.5342620000000 1.0
C      1  0.4740160000000  0.5682680000000  0.5350440000000 1.0
C      1  0.4133200000000  0.5156760000000  0.4236900000000 1.0
C      1  0.4475650000000  0.5618030000000  0.5923060000000 1.0
C      1  0.4950020000000  0.4358300000000  0.4098600000000 1.0
C      1  0.5011410000000  0.6187300000000  0.4887780000000 1.0
C      1  0.5930020000000  0.3748510000000  0.5259330000000 1.0
C      1  0.5202310000000  0.4470450000000  0.5037140000000 1.0
C      1  0.5630720000000  0.4950320000000  0.5574690000000 1.0
C      1  0.5497810000000  0.3921920000000  0.4661040000000 1.0
C      1  0.5951430000000  0.5430150000000  0.5144920000000 1.0
C      1  0.4147700000000  0.5327850000000  0.5991710000000 1.0
C      1  0.4747380000000  0.4314660000000  0.5933610000000 1.0
C      1  0.5618330000000  0.5198350000000  0.4889910000000 1.0
C      1  0.4670140000000  0.5893570000000  0.5537800000000 1.0
C      1  0.4494000000000  0.4948820000000  0.4001630000000 1.0
C      1  0.5025570000000  0.5625830000000  0.4340780000000 1.0
C      1  0.5028610000000  0.5230550000000  0.4931830000000 1.0
C      1  0.5102870000000  0.4958280000000  0.5488350000000 1.0
C      1  0.4965730000000  0.4504270000000  0.6041470000000 1.0
C      1  0.4851910000000  0.5052120000000  0.5627100000000 1.0
C      1  0.5052510000000  0.4913790000000  0.4934920000000 1.0
C      1  0.5406090000000  0.5732640000000  0.3930190000000 1.0
C      1  0.4937750000000  0.6268800000000  0.5162710000000 1.0
C      1  0.4764430000000  0.5005080000000  0.3928780000000 1.0
C      1  0.4235800000000  0.4024150000000  0.4820560000000 1.0
C      1  0.4074840000000  0.5272480000000  0.5159690000000 1.0
C      1  0.5292610000000  0.5197120000000  0.6042540000000 1.0
C      1  0.4787460000000  0.5811000000000  0.4736240000000 1.0
C      1  0.5548270000000  0.5724910000000  0.5663030000000 1.0
C      1  0.4642240000000  0.4867350000000  0.5125630000000 1.0
C      1  0.3956450000000  0.5480970000000  0.4580750000000 1.0
C      1  0.3952360000000  0.5799980000000  0.5457220000000 1.0
C      1  0.5086910000000  0.4883290000000  0.4399620000000 1.0
C      1  0.5339510000000  0.3828900000000  0.4883400000000 1.0
C      1  0.5054400000000  0.4573700000000  0.3932650000000 1.0
C      1  0.5151510000000  0.4738900000000  0.6113640000000 1.0
C      1  0.4804340000000  0.4789550000000  0.4904350000000 1.0
C      1  0.5423270000000  0.4081100000000  0.5695650000000 1.0
C      1  0.4295360000000  0.5148510000000  0.3991170000000 1.0
C      1  0.4740430000000  0.4544890000000  0.4775130000000 1.0
C      1  0.5374570000000  0.5578020000000  0.5231010000000 1.0
C      1  0.5149170000000  0.5368180000000  0.5190860000000 1.0
C      1  0.4726730000000  0.5277850000000  0.4917120000000 1.0
C      1  0.4707660000000  0.4133250000000  0.5675520000000 1.0
C      1  0.4961260000000  0.5933740000000  0.5904940000000 1.0
C      1  0.5895330000000  0.4837570000000  0.4602930000000 1.0
C      1  0.5235970000000  0.5561770000000  0.3772840000000 1.0
C      1  0.4719620000000  0.4874990000000  0.5819140000000 1.0
C      1  0.4330530000000  0.5208260000000  0.5244970000000 1.0
C      1  0.4885570000000  0.4771290000000  0.3829010000000 1.0
C      1  0.4338330000000  0.5137950000000  0.6064330000000 1.0
C      1  0.5397760000000  0.3876140000000  0.4398980000000 1.0
C      1  0.6568720000000  0.4408410000000  0.5012570000000 1.0
C      1  0.5446870000000  0.5631280000000  0.5905300000000 1.0
C      1  0.5648670000000  0.4395040000000  0.4635790000000 1.0
C      1  0.5886710000000  0.4218330000000  0.6354080000000 1.0
C      1  0.4429900000000  0.4695900000000  0.4119440000000 1.0
C      1  0.4860100000000  0.5477080000000  0.6191560000000 1.0
C      1  0.5460070000000  0.4761370000000  0.6080400000000 1.0
C      1  0.5140640000000  0.6159120000000  0.4114840000000 1.0
C      1  0.5326410000000  0.5998030000000  0.3996340000000 1.0
C      1  0.4563150000000  0.5714530000000  0.5137840000000 1.0
C      1  0.4577460000000  0.4710110000000  0.5638390000000 1.0
C      1  0.3912690000000  0.4954520000000  0.4287640000000 1.0
C      1  0.5702550000000  0.5136990000000  0.5779770000000 1.0
C      1  0.5779430000000  0.4963280000000  0.5313760000000 1.0
C      1  0.3910640000000  0.5712040000000  0.5187780000000 1.0
C      1  0.5788750000000  0.5601560000000  0.4682090000000 1.0
C      1  0.5299700000000  0.6017570000000  0.5332730000000 1.0
C      1  0.4904010000000  0.3843270000000  0.5121810000000 1.0
C      1  0.5256380000000  0.5749950000000  0.4588740000000 1.0
C      1  0.4175840000000  0.4917920000000  0.5607260000000 1.0
C      1  0.5060630000000  0.3909970000000  0.4885280000000 1.0
C      1  0.3852400000000  0.4806990000000  0.5238320000000 1.0
C      1  0.5496660000000  0.5591040000000  0.4627220000000 1.0
C      1  0.5244040000000  0.4671010000000  0.4428070000000 1.0
C      1  0.4266580000000  0.4365250000000  0.4479810000000 1.0
C      1  0.5250500000000  0.5428340000000  0.5887860000000 1.0
C      1  0.4157830000000  0.4243540000000  0.4982640000000 1.0
C      1  0.4234030000000  0.4884190000000  0.4929260000000 1.0
C      1  0.4670410000000  0.5730200000000  0.4001170000000 1.0
C      1  0.4959800000000  0.4108950000000  0.4696030000000 1.0
C      1  0.3893330000000  0.4701870000000  0.4726870000000 1.0
C      1  0.5012860000000  0.4386440000000  0.5230850000000 1.0
C      1  0.4751580000000  0.4387860000000  0.4314750000000 1.0
C      1  0.5857430000000  0.5339390000000  0.5623850000000 1.0
C      1  0.4611650000000  0.5037190000000  0.6048220000000 1.0
C      1  0.5712950000000  0.3630230000000  0.5155740000000 1.0
C      1  0.5947020000000  0.5221690000000  0.5353740000000 1.0
C      1  0.5078670000000  0.5032640000000  0.6146020000000 1.0
C      1  0.4714920000000  0.6188960000000  0.4437490000000 1.0
C      1  0.4954440000000  0.3994750000000  0.5583810000000 1.0
C      1  0.4832400000000  0.5181020000000  0.6174880000000 1.0
C      1  0.5230230000000  0.5996100000000  0.4831460000000 1.0
C      1  0.4971630000000  0.5345880000000  0.4258630000000 1.0
C      1  0.5768410000000  0.4383090000000  0.6190480000000 1.0
C      1  0.4442700000000  0.6074530000000  0.4458880000000 1.0
C      1  0.3863190000000  0.5435680000000  0.5169650000000 1.0
C      1  0.5256930000000  0.4723390000000  0.4959220000000 1.0
C      1  0.5175790000000  0.5288280000000  0.3836160000000 1.0
C      1  0.6007850000000  0.4020360000000  0.5277570000000 1.0
C      1  0.3923690000000  0.4886240000000  0.5484890000000 1.0
END
