TITL C-627107-135-1155 -26780.8682446177 125000 -890.10626657118 0 0 146 (C1) n - 1
REM
REM in /home/nfs/bkarasulu/CARBON/AIRSS/Generating-Clusters/LCBOP/Only-C1/SD-CG/FIRE-CG
REM
REM
REM
REM
REM
REM ./C.cell (11c1c37f851c82e70ff6c80c92926a4b)
REM AIRSS Version 0.9.1 bugfix July 2018 build 013d7b7c2542+ Fri, 06 Jul 2018 19:26:36 +0100
REM compiler GCC version 9.2.1 20190827 (Red Hat 9.2.1-1)
REM options -cpp -mtune=generic -march=x86-64 -g -O0 -fpre-include=/usr/include/finclude/math-vector-fortran.h
REM seed 927744409 -1671697025 -497985013 -106590132 650638313 2026614548 -1200892972 1064379993 -133246617 -582003465 202586046 811209847 270746962 -299572134 -468158285 -1674196568 1542668421 -1908837566 -1069377133 846361358 480939319 21326154 143451357 -1455554921 1194906212 -75009613 187962365 -200616885 2131173721 -605692118 1348058512 1794299071 1311826957
REM
CELL 1.54180   50.00000   50.00000   50.00000   90.00000   90.00000   90.00000
LATT -1
SFAC C  
C      1  0.5758510000000  0.6818950000000  0.4784350000000 1.0
C      1  0.4333360000000  0.4280110000000  0.5415070000000 1.0
C      1  0.5758260000000  0.6645810000000  0.5004300000000 1.0
C      1  0.5599930000000  0.3680430000000  0.5794070000000 1.0
C      1  0.5320360000000  0.4931210000000  0.3972220000000 1.0
C      1  0.5692820000000  0.3973920000000  0.4813620000000 1.0
C      1  0.6040400000000  0.5169450000000  0.4525580000000 1.0
C      1  0.4492910000000  0.5602000000000  0.4985770000000 1.0
C      1  0.4821650000000  0.6115240000000  0.4311490000000 1.0
C      1  0.5871620000000  0.4894480000000  0.5424370000000 1.0
C      1  0.5196060000000  0.6487250000000  0.4348510000000 1.0
C      1  0.5389320000000  0.6647660000000  0.4433450000000 1.0
C      1  0.5337420000000  0.4361640000000  0.5370640000000 1.0
C      1  0.4792510000000  0.4218720000000  0.5685160000000 1.0
C      1  0.5800390000000  0.4751470000000  0.4493260000000 1.0
C      1  0.5443520000000  0.5181510000000  0.4045920000000 1.0
C      1  0.4724330000000  0.3828760000000  0.5008910000000 1.0
C      1  0.5192490000000  0.4077240000000  0.4500070000000 1.0
C      1  0.5031690000000  0.3935900000000  0.5400170000000 1.0
C      1  0.4811660000000  0.4713470000000  0.4926370000000 1.0
C      1  0.5703320000000  0.4137660000000  0.5063850000000 1.0
C      1  0.4815090000000  0.3797990000000  0.5275950000000 1.0
C      1  0.4105470000000  0.5064420000000  0.6025270000000 1.0
C      1  0.4673100000000  0.5457830000000  0.4783560000000 1.0
C      1  0.5272980000000  0.4817200000000  0.5502990000000 1.0
C      1  0.4066550000000  0.5274920000000  0.5527590000000 1.0
C      1  0.6057090000000  0.5233680000000  0.4787780000000 1.0
C      1  0.5442720000000  0.3732580000000  0.5592890000000 1.0
C      1  0.5688190000000  0.6438970000000  0.5154680000000 1.0
C      1  0.4840000000000  0.4423920000000  0.5278080000000 1.0
C      1  0.4651450000000  0.4255960000000  0.4827580000000 1.0
C      1  0.5614210000000  0.5184120000000  0.4296190000000 1.0
C      1  0.4133250000000  0.4552810000000  0.4904930000000 1.0
C      1  0.3890470000000  0.5483940000000  0.5504920000000 1.0
C      1  0.4984970000000  0.4862280000000  0.5096160000000 1.0
C      1  0.5579690000000  0.6765060000000  0.4575790000000 1.0
C      1  0.5944690000000  0.4885470000000  0.5692150000000 1.0
C      1  0.5100890000000  0.5253150000000  0.5331380000000 1.0
C      1  0.4948510000000  0.5472810000000  0.4866050000000 1.0
C      1  0.5200840000000  0.3880410000000  0.4902380000000 1.0
C      1  0.5145790000000  0.5040260000000  0.4940340000000 1.0
C      1  0.4635040000000  0.5933250000000  0.4315680000000 1.0
C      1  0.4933340000000  0.4422770000000  0.4144630000000 1.0
C      1  0.4136360000000  0.4680920000000  0.5161690000000 1.0
C      1  0.4241210000000  0.4617350000000  0.4652760000000 1.0
C      1  0.5870670000000  0.5184850000000  0.4994720000000 1.0
C      1  0.5107750000000  0.6016340000000  0.5260800000000 1.0
C      1  0.4521230000000  0.4234270000000  0.5631280000000 1.0
C      1  0.4534120000000  0.4041060000000  0.4978870000000 1.0
C      1  0.5597970000000  0.5167750000000  0.4912060000000 1.0
C      1  0.5412250000000  0.4942520000000  0.4901330000000 1.0
C      1  0.6044440000000  0.4877210000000  0.6212510000000 1.0
C      1  0.5941790000000  0.5104930000000  0.5252550000000 1.0
C      1  0.5834220000000  0.4720830000000  0.4778510000000 1.0
C      1  0.5461880000000  0.4280620000000  0.5131660000000 1.0
C      1  0.5007690000000  0.6304100000000  0.4313310000000 1.0
C      1  0.5496450000000  0.4726090000000  0.3900160000000 1.0
C      1  0.4070560000000  0.5697220000000  0.4725720000000 1.0
C      1  0.4691330000000  0.4820620000000  0.4698510000000 1.0
C      1  0.4398760000000  0.5378140000000  0.5180650000000 1.0
C      1  0.3614580000000  0.4560480000000  0.5991470000000 1.0
C      1  0.4285840000000  0.6007150000000  0.5384930000000 1.0
C      1  0.5112790000000  0.5587440000000  0.5688580000000 1.0
C      1  0.5996270000000  0.4881050000000  0.5951900000000 1.0
C      1  0.5071580000000  0.4959330000000  0.5366850000000 1.0
C      1  0.5336840000000  0.3748500000000  0.5108450000000 1.0
C      1  0.5228420000000  0.5373570000000  0.4104400000000 1.0
C      1  0.3975420000000  0.5064840000000  0.4906150000000 1.0
C      1  0.4213570000000  0.5191440000000  0.5297280000000 1.0
C      1  0.4963780000000  0.5897410000000  0.5044250000000 1.0
C      1  0.5457080000000  0.4617380000000  0.5426830000000 1.0
C      1  0.4242760000000  0.5767170000000  0.4934350000000 1.0
C      1  0.4409210000000  0.4841490000000  0.4656940000000 1.0
C      1  0.5270380000000  0.4132780000000  0.4765910000000 1.0
C      1  0.5684360000000  0.4597810000000  0.4042060000000 1.0
C      1  0.5839240000000  0.4597040000000  0.5039820000000 1.0
C      1  0.4092220000000  0.5143590000000  0.5772660000000 1.0
C      1  0.6091260000000  0.4873390000000  0.6468950000000 1.0
C      1  0.4492430000000  0.5962600000000  0.5548940000000 1.0
C      1  0.5004900000000  0.4233610000000  0.5449920000000 1.0
C      1  0.5211510000000  0.4761890000000  0.4535890000000 1.0
C      1  0.5061180000000  0.5289280000000  0.5043160000000 1.0
C      1  0.5495740000000  0.5400620000000  0.4767800000000 1.0
C      1  0.4416850000000  0.4905920000000  0.3953940000000 1.0
C      1  0.5106720000000  0.5709490000000  0.4871580000000 1.0
C      1  0.5495640000000  0.5547410000000  0.5386270000000 1.0
C      1  0.3790160000000  0.4551480000000  0.5793210000000 1.0
C      1  0.5343500000000  0.4384430000000  0.4883730000000 1.0
C      1  0.5927540000000  0.7033210000000  0.4773540000000 1.0
C      1  0.4718590000000  0.4633470000000  0.5439830000000 1.0
C      1  0.4647340000000  0.4840010000000  0.5594290000000 1.0
C      1  0.5569960000000  0.6094160000000  0.6020080000000 1.0
C      1  0.5116020000000  0.5566010000000  0.3952340000000 1.0
C      1  0.5394310000000  0.5998240000000  0.5227940000000 1.0
C      1  0.5924260000000  0.4325730000000  0.5005870000000 1.0
C      1  0.5359290000000  0.4197330000000  0.4307990000000 1.0
C      1  0.4104810000000  0.4971460000000  0.5144480000000 1.0
C      1  0.4921220000000  0.3974320000000  0.4549210000000 1.0
C      1  0.4778760000000  0.4446510000000  0.4999830000000 1.0
C      1  0.5480810000000  0.5729740000000  0.5164340000000 1.0
C      1  0.4707930000000  0.4336140000000  0.4314900000000 1.0
C      1  0.4818280000000  0.5588590000000  0.5686240000000 1.0
C      1  0.4573930000000  0.4712850000000  0.4075140000000 1.0
C      1  0.5728290000000  0.5515390000000  0.5526470000000 1.0
C      1  0.3451800000000  0.4580310000000  0.6199710000000 1.0
C      1  0.5563520000000  0.6218070000000  0.5231620000000 1.0
C      1  0.5280790000000  0.3801500000000  0.5379370000000 1.0
C      1  0.3996890000000  0.5461890000000  0.4621140000000 1.0
C      1  0.4127860000000  0.4982680000000  0.6271790000000 1.0
C      1  0.5176210000000  0.5290950000000  0.4380830000000 1.0
C      1  0.5389870000000  0.5637310000000  0.4906120000000 1.0
C      1  0.4678660000000  0.5350340000000  0.5722230000000 1.0
C      1  0.4864110000000  0.4691550000000  0.4052180000000 1.0
C      1  0.6015420000000  0.4266160000000  0.4730500000000 1.0
C      1  0.5003250000000  0.5995090000000  0.5527750000000 1.0
C      1  0.4356660000000  0.4110360000000  0.5187450000000 1.0
C      1  0.4599350000000  0.5257960000000  0.4595250000000 1.0
C      1  0.5726730000000  0.4534430000000  0.4314140000000 1.0
C      1  0.4237720000000  0.4480870000000  0.4402870000000 1.0
C      1  0.4729840000000  0.4188340000000  0.4554700000000 1.0
C      1  0.5247060000000  0.5438930000000  0.5485880000000 1.0
C      1  0.5056940000000  0.5002060000000  0.4395440000000 1.0
C      1  0.5719480000000  0.4685900000000  0.5298560000000 1.0
C      1  0.3978250000000  0.4554010000000  0.5606700000000 1.0
C      1  0.4798790000000  0.5042620000000  0.4543730000000 1.0
C      1  0.5441860000000  0.5326310000000  0.4499590000000 1.0
C      1  0.5060040000000  0.4891200000000  0.4102820000000 1.0
C      1  0.5635550000000  0.4268680000000  0.4391800000000 1.0
C      1  0.4340890000000  0.5118070000000  0.4608840000000 1.0
C      1  0.4690250000000  0.5826160000000  0.5074300000000 1.0
C      1  0.3295230000000  0.4601580000000  0.6407060000000 1.0
C      1  0.4929290000000  0.3817970000000  0.4804880000000 1.0
C      1  0.4747200000000  0.5858050000000  0.5592850000000 1.0
C      1  0.5193680000000  0.4319070000000  0.4113370000000 1.0
C      1  0.4083500000000  0.5203680000000  0.4684290000000 1.0
C      1  0.5353240000000  0.4671610000000  0.4775970000000 1.0
C      1  0.4183320000000  0.5948040000000  0.5143900000000 1.0
C      1  0.5799620000000  0.4126200000000  0.4586850000000 1.0
C      1  0.5379570000000  0.5983760000000  0.5880560000000 1.0
C      1  0.4477140000000  0.4499870000000  0.4250290000000 1.0
C      1  0.4641830000000  0.5086990000000  0.5695960000000 1.0
C      1  0.5830620000000  0.5026100000000  0.4396900000000 1.0
C      1  0.4019840000000  0.4342670000000  0.4314600000000 1.0
C      1  0.4157790000000  0.4511470000000  0.5395760000000 1.0
C      1  0.5191200000000  0.5867440000000  0.5716540000000 1.0
C      1  0.4268030000000  0.5100450000000  0.3864980000000 1.0
END
