TITL C-627107-135-341 4.32132205971197e-08 125000 -351.013626766577 0 0 58 (C1) n - 1
REM
REM in /home/nfs/bkarasulu/CARBON/AIRSS/Generating-Clusters/LCBOP/Only-C1/SD-CG/FIRE-CG
REM
REM
REM
REM
REM
REM ./C.cell (11c1c37f851c82e70ff6c80c92926a4b)
REM AIRSS Version 0.9.1 bugfix July 2018 build 013d7b7c2542+ Fri, 06 Jul 2018 19:26:36 +0100
REM compiler GCC version 9.2.1 20190827 (Red Hat 9.2.1-1)
REM options -cpp -mtune=generic -march=x86-64 -g -O0 -fpre-include=/usr/include/finclude/math-vector-fortran.h
REM seed 252820321 1807345392 -586647830 -1637468054 -97146682 1295098912 768043198 -155904638 1684843920 678959964 2057255224 -1373529781 2104286474 -8364548 428542725 1249338541 -887924516 1338958427 2132922108 -1100968641 1207944763 309736207 -1904348371 1594696653 2109342220 -1073711301 -1188877413 103587651 -607499705 194686286 -1139276628 861305516 -891046595
REM
CELL 1.54180   50.00000   50.00000   50.00000   90.00000   90.00000   90.00000
LATT -1
SFAC C  
C      1  0.4816780000000  0.4332350000000  0.4702610000000 1.0
C      1  0.4766970000000  0.4768400000000  0.5759140000000 1.0
C      1  0.5327290000000  0.5239190000000  0.4977910000000 1.0
C      1  0.4943030000000  0.4446190000000  0.4473040000000 1.0
C      1  0.4422070000000  0.4353330000000  0.4995530000000 1.0
C      1  0.4869490000000  0.5655280000000  0.4826730000000 1.0
C      1  0.4914840000000  0.5220980000000  0.4612860000000 1.0
C      1  0.5105060000000  0.5035250000000  0.5334720000000 1.0
C      1  0.4501740000000  0.5072460000000  0.4297220000000 1.0
C      1  0.4932960000000  0.5582310000000  0.5372630000000 1.0
C      1  0.4967460000000  0.5039780000000  0.4396600000000 1.0
C      1  0.5392870000000  0.4473090000000  0.4655910000000 1.0
C      1  0.5276150000000  0.4278730000000  0.4829950000000 1.0
C      1  0.4833580000000  0.4619110000000  0.5534190000000 1.0
C      1  0.5826790000000  0.5265700000000  0.5305800000000 1.0
C      1  0.4633900000000  0.4556040000000  0.5353200000000 1.0
C      1  0.4521460000000  0.5162820000000  0.5591690000000 1.0
C      1  0.4378410000000  0.5116000000000  0.5114590000000 1.0
C      1  0.5189030000000  0.4589640000000  0.4474280000000 1.0
C      1  0.4402470000000  0.4561880000000  0.4596020000000 1.0
C      1  0.5937720000000  0.5026450000000  0.5243160000000 1.0
C      1  0.4391360000000  0.4845470000000  0.5006350000000 1.0
C      1  0.4536320000000  0.4355740000000  0.4736030000000 1.0
C      1  0.5446660000000  0.5363060000000  0.5872620000000 1.0
C      1  0.4901480000000  0.5506440000000  0.4584030000000 1.0
C      1  0.4613520000000  0.4988930000000  0.5773050000000 1.0
C      1  0.5691260000000  0.4634440000000  0.5041390000000 1.0
C      1  0.5437480000000  0.5602100000000  0.5302710000000 1.0
C      1  0.4962740000000  0.4397160000000  0.5175430000000 1.0
C      1  0.4453660000000  0.4593980000000  0.5147610000000 1.0
C      1  0.5621070000000  0.4625320000000  0.4748250000000 1.0
C      1  0.5169640000000  0.5669580000000  0.5232270000000 1.0
C      1  0.5072220000000  0.4563100000000  0.5371610000000 1.0
C      1  0.5640360000000  0.5453610000000  0.5709530000000 1.0
C      1  0.5216790000000  0.5239550000000  0.5811000000000 1.0
C      1  0.4636980000000  0.5600680000000  0.4988140000000 1.0
C      1  0.4378850000000  0.5544900000000  0.4886670000000 1.0
C      1  0.5239080000000  0.4781310000000  0.5303440000000 1.0
C      1  0.5452960000000  0.4983360000000  0.4448670000000 1.0
C      1  0.5098330000000  0.5144480000000  0.5591520000000 1.0
C      1  0.5467190000000  0.4800690000000  0.5135930000000 1.0
C      1  0.4762620000000  0.5029550000000  0.4198470000000 1.0
C      1  0.4534340000000  0.5248550000000  0.5325050000000 1.0
C      1  0.4359400000000  0.5025110000000  0.4519850000000 1.0
C      1  0.5493520000000  0.5022640000000  0.4936860000000 1.0
C      1  0.5197310000000  0.4868680000000  0.4403130000000 1.0
C      1  0.4890370000000  0.5123830000000  0.4878280000000 1.0
C      1  0.5650570000000  0.5455320000000  0.5426170000000 1.0
C      1  0.5588520000000  0.4916040000000  0.4685580000000 1.0
C      1  0.5098680000000  0.5752480000000  0.4967480000000 1.0
C      1  0.5004420000000  0.4295860000000  0.4919590000000 1.0
C      1  0.4814480000000  0.4984310000000  0.3934800000000 1.0
C      1  0.4361020000000  0.4819800000000  0.4711940000000 1.0
C      1  0.5921680000000  0.4769870000000  0.5149050000000 1.0
C      1  0.5074720000000  0.5167750000000  0.5085130000000 1.0
C      1  0.4250960000000  0.5313230000000  0.4949660000000 1.0
C      1  0.4689680000000  0.5486750000000  0.5253070000000 1.0
C      1  0.4919660000000  0.5631330000000  0.4341870000000 1.0
END
