TITL C-627107-135-1670 2718.70814212011 125000 -982.088625566436 0 0 163 (C1) n - 1
REM
REM in /home/nfs/bkarasulu/CARBON/AIRSS/Generating-Clusters/LCBOP/Only-C1/SD-CG/FIRE-CG
REM
REM
REM
REM
REM
REM ./C.cell (11c1c37f851c82e70ff6c80c92926a4b)
REM AIRSS Version 0.9.1 bugfix July 2018 build 013d7b7c2542+ Fri, 06 Jul 2018 19:26:36 +0100
REM compiler GCC version 9.2.1 20190827 (Red Hat 9.2.1-1)
REM options -cpp -mtune=generic -march=x86-64 -g -O0 -fpre-include=/usr/include/finclude/math-vector-fortran.h
REM seed 1897678748 1183777823 -2088748196 1644763725 1485939539 -684610057 -504282974 -52716662 -419406407 -1982754782 -1409103448 356262381 2085060290 -1029441565 1927024829 253886943 -10282259 -342314546 -560198638 -648023692 -29549068 -2039373130 653767989 -889047991 180314364 -2105719030 130120823 440961981 -408705309 -1389380676 -1398719815 -1843202685 1711954772
REM
CELL 1.54180   50.00000   50.00000   50.00000   90.00000   90.00000   90.00000
LATT -1
SFAC C  
C      1  0.5747650000000  0.4967820000000  0.5301710000000 1.0
C      1  0.4417590000000  0.4684430000000  0.5788080000000 1.0
C      1  0.6180040000000  0.5108600000000  0.5273760000000 1.0
C      1  0.4293100000000  0.5190900000000  0.4190150000000 1.0
C      1  0.4647840000000  0.3961900000000  0.5667840000000 1.0
C      1  0.5097670000000  0.5239580000000  0.5374270000000 1.0
C      1  0.5776840000000  0.5437350000000  0.4851990000000 1.0
C      1  0.4477800000000  0.4400290000000  0.5260280000000 1.0
C      1  0.4916460000000  0.5833050000000  0.5723960000000 1.0
C      1  0.4547950000000  0.4809610000000  0.5008610000000 1.0
C      1  0.4926680000000  0.5366330000000  0.6040030000000 1.0
C      1  0.5999230000000  0.4635680000000  0.4507740000000 1.0
C      1  0.5525760000000  0.5156710000000  0.4584610000000 1.0
C      1  0.5696290000000  0.5433680000000  0.5840020000000 1.0
C      1  0.4131570000000  0.5046510000000  0.4013370000000 1.0
C      1  0.5867030000000  0.5599410000000  0.5055700000000 1.0
C      1  0.5798030000000  0.6072570000000  0.5036320000000 1.0
C      1  0.5896180000000  0.4983400000000  0.5766280000000 1.0
C      1  0.4815410000000  0.3905900000000  0.5464310000000 1.0
C      1  0.5083450000000  0.6137470000000  0.5274200000000 1.0
C      1  0.5726060000000  0.4217750000000  0.4992060000000 1.0
C      1  0.4915160000000  0.5213750000000  0.6275200000000 1.0
C      1  0.4878300000000  0.4442610000000  0.5874420000000 1.0
C      1  0.5850880000000  0.4234540000000  0.5700370000000 1.0
C      1  0.5906800000000  0.4391890000000  0.4569620000000 1.0
C      1  0.4387640000000  0.5038870000000  0.4911530000000 1.0
C      1  0.4682290000000  0.4749410000000  0.4016690000000 1.0
C      1  0.5964630000000  0.5852340000000  0.4974340000000 1.0
C      1  0.4903880000000  0.5070610000000  0.6492660000000 1.0
C      1  0.4963970000000  0.5934330000000  0.5449610000000 1.0
C      1  0.4730590000000  0.5022010000000  0.3863680000000 1.0
C      1  0.4900190000000  0.5733630000000  0.5258790000000 1.0
C      1  0.4163600000000  0.4693830000000  0.5612610000000 1.0
C      1  0.5447340000000  0.4802960000000  0.5020600000000 1.0
C      1  0.4956330000000  0.4712810000000  0.5911890000000 1.0
C      1  0.5151410000000  0.5779980000000  0.5881970000000 1.0
C      1  0.4673050000000  0.5373300000000  0.5159290000000 1.0
C      1  0.4847020000000  0.4908250000000  0.5708480000000 1.0
C      1  0.3900610000000  0.5000600000000  0.5297000000000 1.0
C      1  0.4676750000000  0.5417990000000  0.5890010000000 1.0
C      1  0.5651550000000  0.4997050000000  0.5037310000000 1.0
C      1  0.4121400000000  0.4250640000000  0.4955970000000 1.0
C      1  0.5375950000000  0.4604200000000  0.4518110000000 1.0
C      1  0.4886920000000  0.5568680000000  0.4794270000000 1.0
C      1  0.3819970000000  0.4138270000000  0.4231800000000 1.0
C      1  0.5325430000000  0.5410800000000  0.5294730000000 1.0
C      1  0.4640370000000  0.5444620000000  0.4893300000000 1.0
C      1  0.6249090000000  0.5292950000000  0.4754460000000 1.0
C      1  0.4523680000000  0.5684610000000  0.5536880000000 1.0
C      1  0.4216140000000  0.5661340000000  0.4725740000000 1.0
C      1  0.3903150000000  0.4827560000000  0.4440680000000 1.0
C      1  0.4596630000000  0.6014340000000  0.4803150000000 1.0
C      1  0.6277270000000  0.5573650000000  0.4704210000000 1.0
C      1  0.3891380000000  0.5211390000000  0.5098960000000 1.0
C      1  0.5940590000000  0.4911620000000  0.4480420000000 1.0
C      1  0.4512660000000  0.3879820000000  0.4767600000000 1.0
C      1  0.5570090000000  0.5503630000000  0.5415910000000 1.0
C      1  0.5311810000000  0.5495230000000  0.5031820000000 1.0
C      1  0.6282590000000  0.5212090000000  0.5025960000000 1.0
C      1  0.4474190000000  0.5262560000000  0.4768850000000 1.0
C      1  0.5872440000000  0.4344290000000  0.5211940000000 1.0
C      1  0.5344430000000  0.5356280000000  0.4491180000000 1.0
C      1  0.5303710000000  0.4908490000000  0.5659170000000 1.0
C      1  0.4144520000000  0.4761800000000  0.4023270000000 1.0
C      1  0.5678440000000  0.5918370000000  0.5632010000000 1.0
C      1  0.5197750000000  0.4506910000000  0.4036640000000 1.0
C      1  0.4384910000000  0.6012210000000  0.4993030000000 1.0
C      1  0.5661040000000  0.4966060000000  0.4420930000000 1.0
C      1  0.4878030000000  0.5162380000000  0.5172570000000 1.0
C      1  0.5472290000000  0.4128710000000  0.5386610000000 1.0
C      1  0.4464970000000  0.5029940000000  0.4355560000000 1.0
C      1  0.4213680000000  0.5780860000000  0.4997330000000 1.0
C      1  0.5269560000000  0.4164740000000  0.5590610000000 1.0
C      1  0.4674310000000  0.5681810000000  0.5771800000000 1.0
C      1  0.4398670000000  0.4651320000000  0.3942910000000 1.0
C      1  0.5446200000000  0.4635610000000  0.5245410000000 1.0
C      1  0.5099750000000  0.5792630000000  0.4214180000000 1.0
C      1  0.4965850000000  0.5035100000000  0.3697560000000 1.0
C      1  0.4141800000000  0.5635130000000  0.5232770000000 1.0
C      1  0.4563790000000  0.4941360000000  0.5803360000000 1.0
C      1  0.5391060000000  0.4132840000000  0.4339220000000 1.0
C      1  0.5794500000000  0.4860420000000  0.5546950000000 1.0
C      1  0.3980880000000  0.4241400000000  0.5225750000000 1.0
C      1  0.4458090000000  0.5418860000000  0.4129230000000 1.0
C      1  0.5074630000000  0.5086660000000  0.5613540000000 1.0
C      1  0.4645180000000  0.4805060000000  0.4315570000000 1.0
C      1  0.5280470000000  0.4058720000000  0.3878690000000 1.0
C      1  0.3799540000000  0.4772250000000  0.5159640000000 1.0
C      1  0.4157960000000  0.5456690000000  0.5438930000000 1.0
C      1  0.5090720000000  0.3813100000000  0.4782160000000 1.0
C      1  0.4800640000000  0.4769220000000  0.5447340000000 1.0
C      1  0.3973940000000  0.4653940000000  0.4226040000000 1.0
C      1  0.5739240000000  0.4239670000000  0.5451520000000 1.0
C      1  0.5342420000000  0.3958330000000  0.4832770000000 1.0
C      1  0.3886300000000  0.4389940000000  0.4218650000000 1.0
C      1  0.4575890000000  0.5625800000000  0.4332930000000 1.0
C      1  0.4351510000000  0.4272400000000  0.5476430000000 1.0
C      1  0.5464330000000  0.5522000000000  0.4291380000000 1.0
C      1  0.5573870000000  0.6174360000000  0.5147740000000 1.0
C      1  0.6182730000000  0.5813630000000  0.4794690000000 1.0
C      1  0.4886430000000  0.5104790000000  0.4609600000000 1.0
C      1  0.5289720000000  0.4235450000000  0.4090340000000 1.0
C      1  0.4038840000000  0.5436550000000  0.4688580000000 1.0
C      1  0.5652480000000  0.5192440000000  0.4833780000000 1.0
C      1  0.4922080000000  0.4566700000000  0.3985300000000 1.0
C      1  0.4962490000000  0.4507440000000  0.5101640000000 1.0
C      1  0.5730140000000  0.4222040000000  0.4705100000000 1.0
C      1  0.5381340000000  0.4731530000000  0.4063510000000 1.0
C      1  0.5211570000000  0.4895110000000  0.4912930000000 1.0
C      1  0.6058890000000  0.4564060000000  0.5222130000000 1.0
C      1  0.6125100000000  0.5110720000000  0.4571030000000 1.0
C      1  0.5187230000000  0.5495910000000  0.5966680000000 1.0
C      1  0.5306040000000  0.5621230000000  0.4078270000000 1.0
C      1  0.4668980000000  0.5589980000000  0.5321220000000 1.0
C      1  0.5493950000000  0.4081160000000  0.4601110000000 1.0
C      1  0.5304660000000  0.6021140000000  0.5851750000000 1.0
C      1  0.5634780000000  0.5643810000000  0.5657920000000 1.0
C      1  0.4730980000000  0.4636840000000  0.4826850000000 1.0
C      1  0.5922450000000  0.5266110000000  0.5734230000000 1.0
C      1  0.4367790000000  0.4145740000000  0.4812610000000 1.0
C      1  0.5211230000000  0.5150050000000  0.3798420000000 1.0
C      1  0.4602210000000  0.5185520000000  0.4542490000000 1.0
C      1  0.4139940000000  0.4541640000000  0.4928080000000 1.0
C      1  0.6020870000000  0.5305830000000  0.5448220000000 1.0
C      1  0.4365720000000  0.4600340000000  0.5094750000000 1.0
C      1  0.5022640000000  0.5407330000000  0.4545280000000 1.0
C      1  0.4586780000000  0.4430430000000  0.5837450000000 1.0
C      1  0.3927500000000  0.5200250000000  0.4810730000000 1.0
C      1  0.5453450000000  0.6094060000000  0.5615010000000 1.0
C      1  0.4809980000000  0.3898610000000  0.4757580000000 1.0
C      1  0.4951490000000  0.4236370000000  0.5064740000000 1.0
C      1  0.4835440000000  0.4177320000000  0.4816560000000 1.0
C      1  0.5442480000000  0.5321110000000  0.5942180000000 1.0
C      1  0.5475920000000  0.4067830000000  0.5089530000000 1.0
C      1  0.5493290000000  0.4761910000000  0.4321290000000 1.0
C      1  0.4671050000000  0.5287480000000  0.3968820000000 1.0
C      1  0.4088920000000  0.4970220000000  0.5517290000000 1.0
C      1  0.4461650000000  0.5767570000000  0.4568160000000 1.0
C      1  0.4471120000000  0.5213460000000  0.5782830000000 1.0
C      1  0.4914390000000  0.6045210000000  0.4953070000000 1.0
C      1  0.4998740000000  0.5075000000000  0.4899600000000 1.0
C      1  0.6167450000000  0.4812420000000  0.5273160000000 1.0
C      1  0.5194830000000  0.4467440000000  0.4642100000000 1.0
C      1  0.4825510000000  0.4789430000000  0.4559270000000 1.0
C      1  0.4967050000000  0.5772030000000  0.4976610000000 1.0
C      1  0.5836350000000  0.5476620000000  0.5301760000000 1.0
C      1  0.3922280000000  0.4717310000000  0.4908410000000 1.0
C      1  0.4932230000000  0.4035720000000  0.5261300000000 1.0
C      1  0.5013110000000  0.4612850000000  0.5357320000000 1.0
C      1  0.5365480000000  0.6173670000000  0.5343310000000 1.0
C      1  0.4703690000000  0.4923870000000  0.5236770000000 1.0
C      1  0.4602810000000  0.4350170000000  0.4761820000000 1.0
C      1  0.4497280000000  0.4197580000000  0.5699310000000 1.0
C      1  0.5081390000000  0.4265600000000  0.5763750000000 1.0
C      1  0.5171280000000  0.5404700000000  0.3928500000000 1.0
C      1  0.5275920000000  0.4685290000000  0.5464820000000 1.0
C      1  0.3908030000000  0.4924560000000  0.4705250000000 1.0
C      1  0.4891870000000  0.5580990000000  0.4301270000000 1.0
C      1  0.5391090000000  0.4952800000000  0.3888630000000 1.0
C      1  0.5423370000000  0.5035280000000  0.5887680000000 1.0
C      1  0.4233580000000  0.5224980000000  0.5596900000000 1.0
C      1  0.4087410000000  0.4387090000000  0.5468640000000 1.0
C      1  0.4907260000000  0.5416360000000  0.4044520000000 1.0
END
