TITL C-627111-6168-1533 -1.54931076972017e-06 125000 -953.947697998181 0 0 155 (C1) n - 1
REM
REM in /home/nfs/bkarasulu/CARBON/AIRSS/Generating-Clusters/LCBOP/Only-C1/SD-CG/FIRE-CG
REM
REM
REM
REM
REM
REM ./C.cell (11c1c37f851c82e70ff6c80c92926a4b)
REM AIRSS Version 0.9.1 bugfix July 2018 build 013d7b7c2542+ Fri, 06 Jul 2018 19:26:36 +0100
REM compiler GCC version 9.2.1 20190827 (Red Hat 9.2.1-1)
REM options -cpp -mtune=generic -march=x86-64 -g -O0 -fpre-include=/usr/include/finclude/math-vector-fortran.h
REM seed 1448950002 -1728402776 -1909766019 29224344 1245901289 -1740087861 2043576344 -2113117276 -1114661969 -1370655517 -1183930026 1500482495 1459592205 1788196956 705297859 2131855744 59555026 286209038 -899506295 1569399022 -315468832 -871538417 -1896571940 -1101800745 -1145914017 -1953093326 1763410066 638961251 1532939622 -925082799 1211483687 -1902553506 248774621
REM
CELL 1.54180   50.00000   50.00000   50.00000   90.00000   90.00000   90.00000
LATT -1
SFAC C  
C      1  0.5261800000000  0.4628130000000  0.5469440000000 1.0
C      1  0.5279090000000  0.4598350000000  0.6112150000000 1.0
C      1  0.4339750000000  0.5527790000000  0.5354750000000 1.0
C      1  0.4439240000000  0.5769650000000  0.5286310000000 1.0
C      1  0.4863050000000  0.6003870000000  0.4924910000000 1.0
C      1  0.3940900000000  0.4388010000000  0.5205020000000 1.0
C      1  0.5371740000000  0.4822470000000  0.5058690000000 1.0
C      1  0.3887840000000  0.5479360000000  0.5594680000000 1.0
C      1  0.5387770000000  0.5404770000000  0.3878060000000 1.0
C      1  0.3858560000000  0.5454230000000  0.5328760000000 1.0
C      1  0.5448410000000  0.5660140000000  0.4297210000000 1.0
C      1  0.5096840000000  0.4619310000000  0.4718100000000 1.0
C      1  0.6064420000000  0.5672430000000  0.4976470000000 1.0
C      1  0.5463870000000  0.4645780000000  0.5262900000000 1.0
C      1  0.5409860000000  0.5343970000000  0.6133880000000 1.0
C      1  0.4017600000000  0.4648070000000  0.5278790000000 1.0
C      1  0.5813740000000  0.5648110000000  0.4599880000000 1.0
C      1  0.5541030000000  0.5602890000000  0.4560740000000 1.0
C      1  0.6106100000000  0.5402920000000  0.4859510000000 1.0
C      1  0.5095270000000  0.5382000000000  0.5112630000000 1.0
C      1  0.5657440000000  0.4193310000000  0.5274680000000 1.0
C      1  0.5545900000000  0.4941480000000  0.4856550000000 1.0
C      1  0.5076040000000  0.4402230000000  0.5405710000000 1.0
C      1  0.4288150000000  0.5306660000000  0.4741620000000 1.0
C      1  0.4465400000000  0.4556970000000  0.4673590000000 1.0
C      1  0.4629140000000  0.4709650000000  0.5677140000000 1.0
C      1  0.4704580000000  0.5572990000000  0.6084190000000 1.0
C      1  0.5571060000000  0.4443350000000  0.4626790000000 1.0
C      1  0.5215740000000  0.5895870000000  0.5584290000000 1.0
C      1  0.4914330000000  0.4316180000000  0.5630660000000 1.0
C      1  0.5527360000000  0.5445990000000  0.4117480000000 1.0
C      1  0.4515110000000  0.4621110000000  0.6205080000000 1.0
C      1  0.4583010000000  0.4906430000000  0.4980410000000 1.0
C      1  0.5720790000000  0.5139720000000  0.4968220000000 1.0
C      1  0.4191990000000  0.4419590000000  0.4619340000000 1.0
C      1  0.5160700000000  0.6001960000000  0.5310490000000 1.0
C      1  0.4147400000000  0.4186190000000  0.4803450000000 1.0
C      1  0.4320170000000  0.4936910000000  0.4040570000000 1.0
C      1  0.4812970000000  0.4384870000000  0.4114740000000 1.0
C      1  0.5884110000000  0.5836080000000  0.4812650000000 1.0
C      1  0.4899740000000  0.4901080000000  0.6138180000000 1.0
C      1  0.5007350000000  0.4133170000000  0.4513870000000 1.0
C      1  0.4602770000000  0.4194910000000  0.4133100000000 1.0
C      1  0.4358440000000  0.5096830000000  0.5609790000000 1.0
C      1  0.5259810000000  0.4509360000000  0.4270890000000 1.0
C      1  0.4705040000000  0.5829580000000  0.5353620000000 1.0
C      1  0.4473650000000  0.5134260000000  0.4602210000000 1.0
C      1  0.3963370000000  0.4858510000000  0.4810690000000 1.0
C      1  0.5078160000000  0.4298990000000  0.5109860000000 1.0
C      1  0.4624550000000  0.4890590000000  0.6217980000000 1.0
C      1  0.5467410000000  0.4095550000000  0.6074320000000 1.0
C      1  0.6116990000000  0.4346060000000  0.4526540000000 1.0
C      1  0.5275730000000  0.4651810000000  0.4028020000000 1.0
C      1  0.4317060000000  0.5448070000000  0.4081570000000 1.0
C      1  0.4202930000000  0.5185270000000  0.4147160000000 1.0
C      1  0.4471700000000  0.5408000000000  0.6114420000000 1.0
C      1  0.5016680000000  0.5112470000000  0.5994190000000 1.0
C      1  0.5280420000000  0.5087810000000  0.4439820000000 1.0
C      1  0.4090680000000  0.5969560000000  0.4589130000000 1.0
C      1  0.4886600000000  0.5293150000000  0.4929350000000 1.0
C      1  0.5352480000000  0.5454120000000  0.5014500000000 1.0
C      1  0.4103830000000  0.5494730000000  0.4846020000000 1.0
C      1  0.4343680000000  0.4954360000000  0.5119770000000 1.0
C      1  0.5049130000000  0.4315470000000  0.4284600000000 1.0
C      1  0.5719220000000  0.6061470000000  0.4816080000000 1.0
C      1  0.5946690000000  0.4797210000000  0.4379890000000 1.0
C      1  0.5564070000000  0.4080540000000  0.5017870000000 1.0
C      1  0.4770940000000  0.4081260000000  0.5725560000000 1.0
C      1  0.5334050000000  0.5552570000000  0.4748220000000 1.0
C      1  0.4494780000000  0.4849390000000  0.4701570000000 1.0
C      1  0.4094200000000  0.4484550000000  0.4101160000000 1.0
C      1  0.4139830000000  0.4360790000000  0.4333230000000 1.0
C      1  0.4763730000000  0.5777960000000  0.4104880000000 1.0
C      1  0.6299600000000  0.4887140000000  0.5239870000000 1.0
C      1  0.3965170000000  0.4602110000000  0.4695530000000 1.0
C      1  0.4891290000000  0.5975520000000  0.5205020000000 1.0
C      1  0.4020640000000  0.5499760000000  0.5827180000000 1.0
C      1  0.5108710000000  0.4934350000000  0.5124760000000 1.0
C      1  0.4775220000000  0.5115390000000  0.4030420000000 1.0
C      1  0.4938870000000  0.4443190000000  0.4889770000000 1.0
C      1  0.4698750000000  0.5286150000000  0.4493170000000 1.0
C      1  0.5195640000000  0.5240760000000  0.3792950000000 1.0
C      1  0.4816050000000  0.4529910000000  0.5833470000000 1.0
C      1  0.5737760000000  0.3859700000000  0.4915490000000 1.0
C      1  0.5514110000000  0.5041090000000  0.5579760000000 1.0
C      1  0.4813330000000  0.5650510000000  0.5545240000000 1.0
C      1  0.5263510000000  0.5892360000000  0.4314610000000 1.0
C      1  0.5015490000000  0.5053980000000  0.3887990000000 1.0
C      1  0.5133900000000  0.5364390000000  0.6060860000000 1.0
C      1  0.4600980000000  0.4881250000000  0.4031820000000 1.0
C      1  0.5056540000000  0.5625620000000  0.4672190000000 1.0
C      1  0.5255850000000  0.4093470000000  0.4973890000000 1.0
C      1  0.5653260000000  0.4300570000000  0.4827600000000 1.0
C      1  0.3931250000000  0.5057030000000  0.4604980000000 1.0
C      1  0.5577090000000  0.5321180000000  0.5139960000000 1.0
C      1  0.5381640000000  0.4339560000000  0.6106200000000 1.0
C      1  0.6170820000000  0.4930800000000  0.4996580000000 1.0
C      1  0.5296450000000  0.3484150000000  0.4567150000000 1.0
C      1  0.5493390000000  0.4907140000000  0.4551840000000 1.0
C      1  0.6005470000000  0.5157790000000  0.4959560000000 1.0
C      1  0.5945920000000  0.3899760000000  0.4742970000000 1.0
C      1  0.5009120000000  0.4652060000000  0.6036150000000 1.0
C      1  0.4154520000000  0.4676880000000  0.5525370000000 1.0
C      1  0.4743250000000  0.5375920000000  0.5542120000000 1.0
C      1  0.5671300000000  0.4462910000000  0.5304490000000 1.0
C      1  0.4376350000000  0.4818950000000  0.5623180000000 1.0
C      1  0.5014680000000  0.5732860000000  0.5725560000000 1.0
C      1  0.5064710000000  0.5032500000000  0.5727840000000 1.0
C      1  0.5602230000000  0.5761840000000  0.5894520000000 1.0
C      1  0.4469070000000  0.5325020000000  0.5500820000000 1.0
C      1  0.4976340000000  0.5594190000000  0.5984640000000 1.0
C      1  0.5172470000000  0.3992420000000  0.4706390000000 1.0
C      1  0.5436940000000  0.6093720000000  0.4827370000000 1.0
C      1  0.4947440000000  0.5184730000000  0.5528020000000 1.0
C      1  0.4493930000000  0.5142170000000  0.6217830000000 1.0
C      1  0.4866600000000  0.4987420000000  0.4941870000000 1.0
C      1  0.4589320000000  0.5551540000000  0.4112810000000 1.0
C      1  0.5244870000000  0.3728900000000  0.4640320000000 1.0
C      1  0.5495000000000  0.5082710000000  0.6206170000000 1.0
C      1  0.4725290000000  0.4143970000000  0.4587740000000 1.0
C      1  0.5025790000000  0.5022690000000  0.4472580000000 1.0
C      1  0.5687520000000  0.5219620000000  0.4213690000000 1.0
C      1  0.5284070000000  0.4872840000000  0.5634270000000 1.0
C      1  0.4556850000000  0.4071620000000  0.4372070000000 1.0
C      1  0.5470060000000  0.5898380000000  0.5705520000000 1.0
C      1  0.4011980000000  0.5149720000000  0.4361130000000 1.0
C      1  0.5046830000000  0.4769470000000  0.3913260000000 1.0
C      1  0.4683200000000  0.4372660000000  0.4757750000000 1.0
C      1  0.5339670000000  0.6090080000000  0.5103160000000 1.0
C      1  0.4788510000000  0.4648270000000  0.4000220000000 1.0
C      1  0.5579960000000  0.5555030000000  0.6063050000000 1.0
C      1  0.5007110000000  0.5905570000000  0.4706420000000 1.0
C      1  0.4078780000000  0.4852700000000  0.5080800000000 1.0
C      1  0.5355620000000  0.4615820000000  0.4536010000000 1.0
C      1  0.5252780000000  0.6027920000000  0.4596390000000 1.0
C      1  0.6018710000000  0.5450420000000  0.4585100000000 1.0
C      1  0.4858240000000  0.5426080000000  0.4683950000000 1.0
C      1  0.6196210000000  0.4748970000000  0.4784630000000 1.0
C      1  0.6099180000000  0.4627950000000  0.4549630000000 1.0
C      1  0.4606430000000  0.4404170000000  0.6035130000000 1.0
C      1  0.6075140000000  0.4091370000000  0.4603350000000 1.0
C      1  0.5727190000000  0.4976080000000  0.4367920000000 1.0
C      1  0.4149980000000  0.4719540000000  0.3987440000000 1.0
C      1  0.5441090000000  0.4819110000000  0.6191410000000 1.0
C      1  0.5585750000000  0.5244310000000  0.5414640000000 1.0
C      1  0.4223980000000  0.5487290000000  0.6001770000000 1.0
C      1  0.4725350000000  0.5320370000000  0.4214960000000 1.0
C      1  0.4020160000000  0.4190740000000  0.5041260000000 1.0
C      1  0.4604070000000  0.4129430000000  0.5943130000000 1.0
C      1  0.6405080000000  0.4845850000000  0.5474570000000 1.0
C      1  0.3940780000000  0.5447770000000  0.5073130000000 1.0
C      1  0.5011300000000  0.5877040000000  0.4167110000000 1.0
C      1  0.5093330000000  0.5168010000000  0.5295490000000 1.0
C      1  0.4961330000000  0.4865730000000  0.4688920000000 1.0
C      1  0.4083890000000  0.5742880000000  0.4717500000000 1.0
END
