TITL C-627110-360-2086 -1.50108184724595e-07 125000 -18.9723641415036 0 0 4 (D(inf)h) n - 1
REM
REM in /home/nfs/bkarasulu/CARBON/AIRSS/Generating-Clusters/LCBOP/Only-C1/SD-CG/FIRE-CG
REM
REM
REM
REM
REM
REM ./C.cell (11c1c37f851c82e70ff6c80c92926a4b)
REM AIRSS Version 0.9.1 bugfix July 2018 build 013d7b7c2542+ Fri, 06 Jul 2018 19:26:36 +0100
REM compiler GCC version 9.2.1 20190827 (Red Hat 9.2.1-1)
REM options -cpp -mtune=generic -march=x86-64 -g -O0 -fpre-include=/usr/include/finclude/math-vector-fortran.h
REM seed -852843160 -757451467 1041157753 1981431598 -1042239413 -2122143047 1862153226 -1581932275 1757696582 -1308847644 -1436061343 1578248829 -2072552308 -1013004785 1505560697 -845652206 1830959913 -2005981978 -1591596755 -1738055468 1932500429 -1032726215 -3694487 -1672981263 965997195 612516236 -90740315 -503291134 78265517 -1207324521 1338041843 -874102255 -262433487
REM
CELL 1.54180   50.00000   50.00000   50.00000   90.00000   90.00000   90.00000
LATT -1
SFAC C  
C      1  0.4867940000000  0.5006430000000  0.5009580000000 1.0
C      1  0.4608220000000  0.5019090000000  0.5028420000000 1.0
C      1  0.5132060000000  0.4993570000000  0.4990420000000 1.0
C      1  0.5391780000000  0.4980910000000  0.4971580000000 1.0
END
