TITL C-627106-156-37 -1.24241720200331e-06 125000 -761.605136747232 0 0 125 (C1) n - 1
REM
REM in /home/nfs/bkarasulu/CARBON/AIRSS/Generating-Clusters/LCBOP/Only-C1/SD-CG/FIRE-CG
REM
REM
REM
REM
REM
REM ./C.cell (11c1c37f851c82e70ff6c80c92926a4b)
REM AIRSS Version 0.9.1 bugfix July 2018 build 013d7b7c2542+ Fri, 06 Jul 2018 19:26:36 +0100
REM compiler GCC version 9.2.1 20190827 (Red Hat 9.2.1-1)
REM options -cpp -mtune=generic -march=x86-64 -g -O0 -fpre-include=/usr/include/finclude/math-vector-fortran.h
REM seed -29454424 963325989 1178582012 -1171186415 1099751876 -1179382750 -216031114 -1586531412 2036606641 -1514774346 -2087601702 1380432451 -984487909 1817304804 -1322974756 1774731663 -560731752 1309838996 -801674472 -1507749709 -1590287817 1779611787 -918153043 170906987 2046363104 -1590790904 292186665 -122598528 492179023 760807340 119378311 220709886 -1592053545
REM
CELL 1.54180   50.00000   50.00000   50.00000   90.00000   90.00000   90.00000
LATT -1
SFAC C  
C      1  0.5369950000000  0.4754050000000  0.5932300000000 1.0
C      1  0.4568660000000  0.5196560000000  0.5403380000000 1.0
C      1  0.4577510000000  0.5774010000000  0.5340450000000 1.0
C      1  0.5291630000000  0.5073130000000  0.5362060000000 1.0
C      1  0.4886160000000  0.4184740000000  0.4206710000000 1.0
C      1  0.5123960000000  0.4718550000000  0.4912240000000 1.0
C      1  0.5976520000000  0.5151940000000  0.4722070000000 1.0
C      1  0.5240130000000  0.5646300000000  0.4909570000000 1.0
C      1  0.5162400000000  0.4035030000000  0.4632090000000 1.0
C      1  0.3935270000000  0.5234900000000  0.4662550000000 1.0
C      1  0.4962270000000  0.4968440000000  0.5970950000000 1.0
C      1  0.5011610000000  0.4044960000000  0.5346390000000 1.0
C      1  0.4956530000000  0.5519070000000  0.5546760000000 1.0
C      1  0.5180530000000  0.4575360000000  0.5788820000000 1.0
C      1  0.5188500000000  0.4558910000000  0.4412530000000 1.0
C      1  0.4474490000000  0.4525310000000  0.5812830000000 1.0
C      1  0.5732800000000  0.4490210000000  0.5370040000000 1.0
C      1  0.5650100000000  0.4852550000000  0.4078530000000 1.0
C      1  0.4127870000000  0.4838570000000  0.4348870000000 1.0
C      1  0.5610330000000  0.5434970000000  0.5255110000000 1.0
C      1  0.5863630000000  0.5349400000000  0.5352760000000 1.0
C      1  0.4785540000000  0.5103460000000  0.4956850000000 1.0
C      1  0.5217250000000  0.4976190000000  0.4825550000000 1.0
C      1  0.4112270000000  0.5574400000000  0.5131730000000 1.0
C      1  0.4508780000000  0.5638520000000  0.4888320000000 1.0
C      1  0.5023610000000  0.5602430000000  0.4119350000000 1.0
C      1  0.4339800000000  0.4560290000000  0.5572630000000 1.0
C      1  0.3718630000000  0.5410330000000  0.5329400000000 1.0
C      1  0.5644820000000  0.4753500000000  0.5869730000000 1.0
C      1  0.4012390000000  0.4849830000000  0.5332130000000 1.0
C      1  0.4511450000000  0.4506990000000  0.4147540000000 1.0
C      1  0.4841560000000  0.5235860000000  0.5471950000000 1.0
C      1  0.4308230000000  0.5027900000000  0.4983730000000 1.0
C      1  0.5980570000000  0.4986490000000  0.4969090000000 1.0
C      1  0.4397690000000  0.5306790000000  0.4572840000000 1.0
C      1  0.5047400000000  0.5808820000000  0.5063750000000 1.0
C      1  0.5446530000000  0.5080890000000  0.4037170000000 1.0
C      1  0.4800460000000  0.6221610000000  0.4919510000000 1.0
C      1  0.5997160000000  0.5145850000000  0.5206120000000 1.0
C      1  0.5674420000000  0.4942530000000  0.5661570000000 1.0
C      1  0.5581860000000  0.4738250000000  0.4889120000000 1.0
C      1  0.5363640000000  0.4624820000000  0.5058850000000 1.0
C      1  0.5492270000000  0.4891890000000  0.5443210000000 1.0
C      1  0.4953450000000  0.4605400000000  0.3946520000000 1.0
C      1  0.4957100000000  0.4715360000000  0.4462450000000 1.0
C      1  0.3676660000000  0.5356220000000  0.5063320000000 1.0
C      1  0.4724830000000  0.4497840000000  0.4938080000000 1.0
C      1  0.5479270000000  0.4614060000000  0.4035080000000 1.0
C      1  0.5246190000000  0.5446920000000  0.5618690000000 1.0
C      1  0.4799740000000  0.5497760000000  0.4259390000000 1.0
C      1  0.4535450000000  0.5750040000000  0.5633580000000 1.0
C      1  0.6224920000000  0.5670300000000  0.5913000000000 1.0
C      1  0.5272400000000  0.5394090000000  0.4455790000000 1.0
C      1  0.4856620000000  0.4684780000000  0.4749260000000 1.0
C      1  0.3908260000000  0.5395390000000  0.4897580000000 1.0
C      1  0.4795190000000  0.5215400000000  0.4318840000000 1.0
C      1  0.5224050000000  0.5843490000000  0.4498900000000 1.0
C      1  0.4747840000000  0.5524830000000  0.4951090000000 1.0
C      1  0.5555490000000  0.5018610000000  0.4480380000000 1.0
C      1  0.4308530000000  0.4662840000000  0.4243440000000 1.0
C      1  0.4325110000000  0.4369920000000  0.5091180000000 1.0
C      1  0.5854650000000  0.4714320000000  0.4969200000000 1.0
C      1  0.5239010000000  0.5637710000000  0.4297360000000 1.0
C      1  0.5242050000000  0.4677040000000  0.3871190000000 1.0
C      1  0.4543660000000  0.5119050000000  0.5135590000000 1.0
C      1  0.4849890000000  0.4936050000000  0.4283260000000 1.0
C      1  0.4778300000000  0.4410660000000  0.4073870000000 1.0
C      1  0.5014510000000  0.5015870000000  0.5401040000000 1.0
C      1  0.5379360000000  0.5272870000000  0.5829940000000 1.0
C      1  0.4481020000000  0.5581650000000  0.4612620000000 1.0
C      1  0.5852630000000  0.5421910000000  0.4716440000000 1.0
C      1  0.4273860000000  0.5685490000000  0.5717930000000 1.0
C      1  0.5367520000000  0.5350620000000  0.5366580000000 1.0
C      1  0.4757030000000  0.5612090000000  0.5761050000000 1.0
C      1  0.4713530000000  0.5683580000000  0.4467040000000 1.0
C      1  0.5269630000000  0.4445010000000  0.5536810000000 1.0
C      1  0.5247380000000  0.5031710000000  0.5952940000000 1.0
C      1  0.5479410000000  0.4948200000000  0.4731920000000 1.0
C      1  0.5164860000000  0.5412350000000  0.4744700000000 1.0
C      1  0.5682700000000  0.5640220000000  0.4701660000000 1.0
C      1  0.5781770000000  0.4914180000000  0.4331330000000 1.0
C      1  0.5403640000000  0.4480430000000  0.4271900000000 1.0
C      1  0.4703900000000  0.4529890000000  0.5971560000000 1.0
C      1  0.4983550000000  0.5065620000000  0.3835020000000 1.0
C      1  0.4914960000000  0.5980470000000  0.4861570000000 1.0
C      1  0.4143370000000  0.4559510000000  0.4980160000000 1.0
C      1  0.4788820000000  0.5178460000000  0.6035820000000 1.0
C      1  0.5454040000000  0.4609860000000  0.5359630000000 1.0
C      1  0.6008250000000  0.5008840000000  0.4472540000000 1.0
C      1  0.4691330000000  0.4025910000000  0.4965500000000 1.0
C      1  0.4952560000000  0.3993090000000  0.5071160000000 1.0
C      1  0.4342020000000  0.5243710000000  0.5562930000000 1.0
C      1  0.5871000000000  0.5372030000000  0.5639780000000 1.0
C      1  0.3981390000000  0.5504630000000  0.5382570000000 1.0
C      1  0.5193350000000  0.4044250000000  0.4911930000000 1.0
C      1  0.4888880000000  0.4767500000000  0.5348400000000 1.0
C      1  0.5924640000000  0.3905120000000  0.4625520000000 1.0
C      1  0.5690520000000  0.4214790000000  0.5001900000000 1.0
C      1  0.5245110000000  0.4198860000000  0.5389820000000 1.0
C      1  0.4121540000000  0.4831610000000  0.5071050000000 1.0
C      1  0.4371130000000  0.5700840000000  0.5126370000000 1.0
C      1  0.5664290000000  0.5215290000000  0.5757380000000 1.0
C      1  0.5025220000000  0.4064270000000  0.4402750000000 1.0
C      1  0.4463700000000  0.4481650000000  0.5331360000000 1.0
C      1  0.5396490000000  0.5183780000000  0.4312550000000 1.0
C      1  0.5414070000000  0.4149420000000  0.5084200000000 1.0
C      1  0.5818190000000  0.4050300000000  0.4813930000000 1.0
C      1  0.4156860000000  0.5457280000000  0.5597420000000 1.0
C      1  0.4415650000000  0.5051150000000  0.4707750000000 1.0
C      1  0.4889790000000  0.5729180000000  0.5305360000000 1.0
C      1  0.5258310000000  0.4982140000000  0.3840440000000 1.0
C      1  0.4549570000000  0.4267370000000  0.4930690000000 1.0
C      1  0.4675720000000  0.4928940000000  0.4749290000000 1.0
C      1  0.4923620000000  0.4686990000000  0.5889850000000 1.0
C      1  0.5842190000000  0.4450280000000  0.5108380000000 1.0
C      1  0.4106310000000  0.4717430000000  0.5548360000000 1.0
C      1  0.5424140000000  0.5779720000000  0.4720780000000 1.0
C      1  0.5046350000000  0.5188610000000  0.4869610000000 1.0
C      1  0.4932960000000  0.5872470000000  0.4588850000000 1.0
C      1  0.4737160000000  0.5437130000000  0.5982540000000 1.0
C      1  0.3990710000000  0.5031850000000  0.4486390000000 1.0
C      1  0.4715310000000  0.4585580000000  0.5225180000000 1.0
C      1  0.6053490000000  0.5525590000000  0.5780410000000 1.0
C      1  0.4716030000000  0.4384950000000  0.6203180000000 1.0
C      1  0.4848790000000  0.4874750000000  0.4002030000000 1.0
END
