TITL C-627108-131-1806 -0.253661160387726 125000 -607.963084086249 0 0 100 (C1) n - 1
REM
REM in /home/nfs/bkarasulu/CARBON/AIRSS/Generating-Clusters/LCBOP/Only-C1/SD-CG/FIRE-CG
REM
REM
REM
REM
REM
REM ./C.cell (11c1c37f851c82e70ff6c80c92926a4b)
REM AIRSS Version 0.9.1 bugfix July 2018 build 013d7b7c2542+ Fri, 06 Jul 2018 19:26:36 +0100
REM compiler GCC version 9.2.1 20190827 (Red Hat 9.2.1-1)
REM options -cpp -mtune=generic -march=x86-64 -g -O0 -fpre-include=/usr/include/finclude/math-vector-fortran.h
REM seed 178687213 875708649 -936971903 -1434487174 -1631053595 1502199719 54858952 -1517555709 2027789881 -1854459617 -2003786119 1991156283 1104969609 -818544726 -166486380 434924596 -2128866497 348789975 1995456247 -2086515605 838737484 -78886125 763085012 911283504 -1036154517 209969274 904640683 1690893641 126814367 1354430282 747598638 2105936106 -1224317975
REM
CELL 1.54180   50.00000   50.00000   50.00000   90.00000   90.00000   90.00000
LATT -1
SFAC C  
C      1  0.4133810000000  0.4752690000000  0.5055750000000 1.0
C      1  0.4658300000000  0.5022550000000  0.4777270000000 1.0
C      1  0.5701480000000  0.5366890000000  0.4839890000000 1.0
C      1  0.5074810000000  0.5099450000000  0.4240900000000 1.0
C      1  0.4192730000000  0.5318800000000  0.5095130000000 1.0
C      1  0.4460830000000  0.4519320000000  0.4361000000000 1.0
C      1  0.4647830000000  0.4600220000000  0.5346510000000 1.0
C      1  0.4196860000000  0.4901720000000  0.4565780000000 1.0
C      1  0.4810670000000  0.6065220000000  0.5612340000000 1.0
C      1  0.4689320000000  0.4692930000000  0.4384320000000 1.0
C      1  0.5579630000000  0.5578980000000  0.4700690000000 1.0
C      1  0.5412580000000  0.5465230000000  0.5247500000000 1.0
C      1  0.6459980000000  0.4625800000000  0.5169620000000 1.0
C      1  0.4342330000000  0.5557010000000  0.4702120000000 1.0
C      1  0.4442460000000  0.4748340000000  0.5479970000000 1.0
C      1  0.4403510000000  0.5018970000000  0.5896640000000 1.0
C      1  0.4356240000000  0.5277340000000  0.5939040000000 1.0
C      1  0.5885700000000  0.5188380000000  0.4706590000000 1.0
C      1  0.5285080000000  0.4288310000000  0.4233870000000 1.0
C      1  0.4489410000000  0.4491980000000  0.4866480000000 1.0
C      1  0.4383970000000  0.5512790000000  0.4217460000000 1.0
C      1  0.6009040000000  0.4400310000000  0.5207270000000 1.0
C      1  0.4813510000000  0.5098400000000  0.4135310000000 1.0
C      1  0.4530090000000  0.5475290000000  0.3995040000000 1.0
C      1  0.3882060000000  0.5961070000000  0.4290010000000 1.0
C      1  0.4241510000000  0.5825750000000  0.4668420000000 1.0
C      1  0.5081210000000  0.5644330000000  0.4637060000000 1.0
C      1  0.4390310000000  0.5093240000000  0.4453720000000 1.0
C      1  0.4012670000000  0.5198320000000  0.4909790000000 1.0
C      1  0.4226520000000  0.4494890000000  0.4973290000000 1.0
C      1  0.5603530000000  0.5298900000000  0.5103230000000 1.0
C      1  0.4060500000000  0.5892250000000  0.4467080000000 1.0
C      1  0.4571550000000  0.3767490000000  0.4108070000000 1.0
C      1  0.5256180000000  0.5008550000000  0.5811870000000 1.0
C      1  0.5430060000000  0.4851480000000  0.5643050000000 1.0
C      1  0.4759980000000  0.4727680000000  0.5124300000000 1.0
C      1  0.4826920000000  0.4784940000000  0.5783840000000 1.0
C      1  0.5838830000000  0.4550280000000  0.5378520000000 1.0
C      1  0.4539250000000  0.4831170000000  0.5740960000000 1.0
C      1  0.4685590000000  0.4284520000000  0.4896160000000 1.0
C      1  0.5606170000000  0.5029330000000  0.6147420000000 1.0
C      1  0.5606530000000  0.5712770000000  0.5688350000000 1.0
C      1  0.5159130000000  0.4305550000000  0.5129480000000 1.0
C      1  0.4787720000000  0.4414650000000  0.5507960000000 1.0
C      1  0.5358250000000  0.5046500000000  0.4183670000000 1.0
C      1  0.5331780000000  0.4748090000000  0.5383290000000 1.0
C      1  0.5106260000000  0.4439130000000  0.4358100000000 1.0
C      1  0.4217620000000  0.4644750000000  0.4442660000000 1.0
C      1  0.6287210000000  0.4434170000000  0.5243070000000 1.0
C      1  0.5070930000000  0.5122720000000  0.4531290000000 1.0
C      1  0.5363510000000  0.5107240000000  0.6052810000000 1.0
C      1  0.5524680000000  0.5028040000000  0.4425190000000 1.0
C      1  0.5755030000000  0.4848910000000  0.6008800000000 1.0
C      1  0.4518420000000  0.4011390000000  0.4183230000000 1.0
C      1  0.4388180000000  0.5533100000000  0.5874390000000 1.0
C      1  0.5313240000000  0.4482430000000  0.5267740000000 1.0
C      1  0.4615710000000  0.5595700000000  0.5131460000000 1.0
C      1  0.5346300000000  0.5681080000000  0.4618600000000 1.0
C      1  0.5720160000000  0.5069180000000  0.5223590000000 1.0
C      1  0.5701920000000  0.4487420000000  0.5627500000000 1.0
C      1  0.5516170000000  0.5603570000000  0.5469680000000 1.0
C      1  0.4241500000000  0.4869450000000  0.5310000000000 1.0
C      1  0.4883590000000  0.5526260000000  0.5059470000000 1.0
C      1  0.4393390000000  0.5482980000000  0.4979670000000 1.0
C      1  0.5133080000000  0.5504460000000  0.5196020000000 1.0
C      1  0.4363110000000  0.5383230000000  0.4469640000000 1.0
C      1  0.4618500000000  0.5884940000000  0.5538850000000 1.0
C      1  0.6477570000000  0.4859080000000  0.5040760000000 1.0
C      1  0.5462390000000  0.4334040000000  0.5702680000000 1.0
C      1  0.5329050000000  0.5075570000000  0.4632100000000 1.0
C      1  0.4621360000000  0.4966780000000  0.4307460000000 1.0
C      1  0.5200330000000  0.4391130000000  0.5771410000000 1.0
C      1  0.5151800000000  0.4924310000000  0.5248190000000 1.0
C      1  0.4480020000000  0.5737900000000  0.5732770000000 1.0
C      1  0.4560210000000  0.5841700000000  0.5265750000000 1.0
C      1  0.4859810000000  0.5210110000000  0.4693620000000 1.0
C      1  0.5891160000000  0.4495070000000  0.4709460000000 1.0
C      1  0.4932580000000  0.4232080000000  0.4998430000000 1.0
C      1  0.6154770000000  0.5175380000000  0.4785340000000 1.0
C      1  0.5471520000000  0.4147340000000  0.4118460000000 1.0
C      1  0.5868720000000  0.4717670000000  0.4563710000000 1.0
C      1  0.4474580000000  0.4260260000000  0.4262740000000 1.0
C      1  0.4227960000000  0.5155140000000  0.5321630000000 1.0
C      1  0.4075660000000  0.4934110000000  0.4828290000000 1.0
C      1  0.6361620000000  0.5055870000000  0.4903280000000 1.0
C      1  0.4429200000000  0.6032050000000  0.5104410000000 1.0
C      1  0.4946160000000  0.4617000000000  0.4505780000000 1.0
C      1  0.4600560000000  0.4764760000000  0.4891190000000 1.0
C      1  0.4994450000000  0.5079320000000  0.5432340000000 1.0
C      1  0.4313240000000  0.6016340000000  0.4863160000000 1.0
C      1  0.4994480000000  0.5007780000000  0.5710000000000 1.0
C      1  0.4907960000000  0.5474820000000  0.4782090000000 1.0
C      1  0.5663720000000  0.4736930000000  0.5768460000000 1.0
C      1  0.5781310000000  0.4983360000000  0.4530980000000 1.0
C      1  0.5922580000000  0.4363780000000  0.4940530000000 1.0
C      1  0.5812090000000  0.4826240000000  0.5291370000000 1.0
C      1  0.5020080000000  0.4797090000000  0.5033900000000 1.0
C      1  0.4942410000000  0.4513870000000  0.5729080000000 1.0
C      1  0.5056820000000  0.4706140000000  0.4761300000000 1.0
C      1  0.4718850000000  0.5288120000000  0.3951540000000 1.0
END
