TITL C-627108-131-827 2.74094415974379e-08 125000 -565.232023046144 0 0 92 (C1) n - 1
REM
REM in /home/nfs/bkarasulu/CARBON/AIRSS/Generating-Clusters/LCBOP/Only-C1/SD-CG/FIRE-CG
REM
REM
REM
REM
REM
REM ./C.cell (11c1c37f851c82e70ff6c80c92926a4b)
REM AIRSS Version 0.9.1 bugfix July 2018 build 013d7b7c2542+ Fri, 06 Jul 2018 19:26:36 +0100
REM compiler GCC version 9.2.1 20190827 (Red Hat 9.2.1-1)
REM options -cpp -mtune=generic -march=x86-64 -g -O0 -fpre-include=/usr/include/finclude/math-vector-fortran.h
REM seed 784994166 -1533427698 2087503086 1165269173 -250152974 1327826732 565526840 1958528114 -988193788 -1362490946 -1053467074 1753553645 -835100294 1674016417 -1218554440 -1868035532 1496551565 1309819389 1647132461 -1767757068 -1545411480 973505832 1742878890 617315733 -2038947499 2010211451 781930176 -1242663063 654446234 436622572 1580541482 1309647563 -23481315
REM
CELL 1.54180   50.00000   50.00000   50.00000   90.00000   90.00000   90.00000
LATT -1
SFAC C  
C      1  0.5066940000000  0.5124650000000  0.4074050000000 1.0
C      1  0.5177460000000  0.3974840000000  0.4748760000000 1.0
C      1  0.4061500000000  0.4643400000000  0.4735550000000 1.0
C      1  0.5310580000000  0.5321740000000  0.5790250000000 1.0
C      1  0.4609030000000  0.4511600000000  0.5104940000000 1.0
C      1  0.4450890000000  0.5517070000000  0.5326490000000 1.0
C      1  0.4810760000000  0.5831320000000  0.5406130000000 1.0
C      1  0.5363390000000  0.5250660000000  0.4719700000000 1.0
C      1  0.6111120000000  0.5524860000000  0.4632970000000 1.0
C      1  0.5297610000000  0.5459730000000  0.5349490000000 1.0
C      1  0.4659400000000  0.4480870000000  0.5869060000000 1.0
C      1  0.5800080000000  0.5472920000000  0.5028220000000 1.0
C      1  0.5394770000000  0.5495210000000  0.4234500000000 1.0
C      1  0.5426810000000  0.4801170000000  0.4002510000000 1.0
C      1  0.4970030000000  0.4978170000000  0.5981980000000 1.0
C      1  0.5230510000000  0.5217590000000  0.5228610000000 1.0
C      1  0.4950550000000  0.4503740000000  0.4540760000000 1.0
C      1  0.4650690000000  0.4231470000000  0.5154410000000 1.0
C      1  0.5011540000000  0.4557830000000  0.4819590000000 1.0
C      1  0.5380250000000  0.5675370000000  0.5490070000000 1.0
C      1  0.5048930000000  0.5402940000000  0.5777080000000 1.0
C      1  0.4420780000000  0.5017800000000  0.4286010000000 1.0
C      1  0.5167810000000  0.5558010000000  0.4395010000000 1.0
C      1  0.5175960000000  0.4859280000000  0.5539480000000 1.0
C      1  0.4914410000000  0.4382480000000  0.5785870000000 1.0
C      1  0.4805720000000  0.5373280000000  0.4879160000000 1.0
C      1  0.4716660000000  0.4050410000000  0.4947720000000 1.0
C      1  0.5020020000000  0.5553290000000  0.4853020000000 1.0
C      1  0.5059130000000  0.5009320000000  0.5322560000000 1.0
C      1  0.5337630000000  0.5158160000000  0.4977970000000 1.0
C      1  0.4846950000000  0.4650520000000  0.5029040000000 1.0
C      1  0.4134750000000  0.4746060000000  0.3999620000000 1.0
C      1  0.4044970000000  0.4755950000000  0.4473280000000 1.0
C      1  0.5263990000000  0.5918220000000  0.5510410000000 1.0
C      1  0.5741350000000  0.4383240000000  0.5366490000000 1.0
C      1  0.4779830000000  0.4985480000000  0.4621130000000 1.0
C      1  0.4223310000000  0.4992440000000  0.4491330000000 1.0
C      1  0.5469520000000  0.4548220000000  0.5025590000000 1.0
C      1  0.5641750000000  0.5712090000000  0.5034470000000 1.0
C      1  0.4369540000000  0.4672880000000  0.5129390000000 1.0
C      1  0.4886350000000  0.4920500000000  0.5105280000000 1.0
C      1  0.4579330000000  0.3946890000000  0.5539940000000 1.0
C      1  0.4236760000000  0.4795970000000  0.4910040000000 1.0
C      1  0.5708320000000  0.5202790000000  0.5459590000000 1.0
C      1  0.4691250000000  0.4987410000000  0.5947280000000 1.0
C      1  0.5147680000000  0.5954030000000  0.5053020000000 1.0
C      1  0.5547690000000  0.5242920000000  0.5677070000000 1.0
C      1  0.4960820000000  0.4247670000000  0.5536780000000 1.0
C      1  0.4886700000000  0.5511670000000  0.4327090000000 1.0
C      1  0.4928010000000  0.3925900000000  0.4838650000000 1.0
C      1  0.5728420000000  0.4707450000000  0.5019970000000 1.0
C      1  0.5431200000000  0.5885970000000  0.5018340000000 1.0
C      1  0.4675860000000  0.5592430000000  0.5483500000000 1.0
C      1  0.5803840000000  0.5130400000000  0.4706010000000 1.0
C      1  0.4772080000000  0.5413010000000  0.5693720000000 1.0
C      1  0.5396050000000  0.4705320000000  0.5460840000000 1.0
C      1  0.4688100000000  0.5637680000000  0.4516110000000 1.0
C      1  0.4571110000000  0.5456490000000  0.4720560000000 1.0
C      1  0.5446890000000  0.4444380000000  0.5325780000000 1.0
C      1  0.4726730000000  0.4140260000000  0.5413830000000 1.0
C      1  0.5922930000000  0.5390200000000  0.4774950000000 1.0
C      1  0.5149880000000  0.4330750000000  0.4420410000000 1.0
C      1  0.5217180000000  0.4264860000000  0.5405390000000 1.0
C      1  0.4853460000000  0.5244250000000  0.4218970000000 1.0
C      1  0.4785650000000  0.5882830000000  0.4647860000000 1.0
C      1  0.4686190000000  0.5067700000000  0.4365330000000 1.0
C      1  0.5384520000000  0.4538550000000  0.4016700000000 1.0
C      1  0.4590960000000  0.5208030000000  0.5795240000000 1.0
C      1  0.4275800000000  0.4755910000000  0.5380450000000 1.0
C      1  0.5774540000000  0.5213610000000  0.5180900000000 1.0
C      1  0.5779220000000  0.4986500000000  0.4972860000000 1.0
C      1  0.3987680000000  0.4664770000000  0.4213710000000 1.0
C      1  0.5262850000000  0.4357000000000  0.4169270000000 1.0
C      1  0.4830740000000  0.5093130000000  0.4882070000000 1.0
C      1  0.5283490000000  0.4220690000000  0.4658950000000 1.0
C      1  0.4973230000000  0.5837760000000  0.4863280000000 1.0
C      1  0.5280220000000  0.4444460000000  0.4851600000000 1.0
C      1  0.4572020000000  0.4727520000000  0.5943110000000 1.0
C      1  0.4347450000000  0.5325900000000  0.4850850000000 1.0
C      1  0.4336730000000  0.5160380000000  0.5684860000000 1.0
C      1  0.4342930000000  0.4918460000000  0.4031680000000 1.0
C      1  0.5567990000000  0.5160750000000  0.4539210000000 1.0
C      1  0.4272660000000  0.5060510000000  0.4772410000000 1.0
C      1  0.5496150000000  0.5223940000000  0.4264250000000 1.0
C      1  0.5126860000000  0.4539760000000  0.5886990000000 1.0
C      1  0.5340430000000  0.5046150000000  0.4101670000000 1.0
C      1  0.5214370000000  0.5480090000000  0.4664730000000 1.0
C      1  0.5895700000000  0.4546980000000  0.5200180000000 1.0
C      1  0.5051730000000  0.5961210000000  0.5327330000000 1.0
C      1  0.4313250000000  0.5418650000000  0.5117370000000 1.0
C      1  0.5124780000000  0.4815250000000  0.5816460000000 1.0
C      1  0.4228310000000  0.4960020000000  0.5544920000000 1.0
END
