TITL C-627111-6168-1949 0.000682028004789413 125000 -262.028046328074 0 0 45 (C1) n - 1
REM
REM in /home/nfs/bkarasulu/CARBON/AIRSS/Generating-Clusters/LCBOP/Only-C1/SD-CG/FIRE-CG
REM
REM
REM
REM
REM
REM ./C.cell (11c1c37f851c82e70ff6c80c92926a4b)
REM AIRSS Version 0.9.1 bugfix July 2018 build 013d7b7c2542+ Fri, 06 Jul 2018 19:26:36 +0100
REM compiler GCC version 9.2.1 20190827 (Red Hat 9.2.1-1)
REM options -cpp -mtune=generic -march=x86-64 -g -O0 -fpre-include=/usr/include/finclude/math-vector-fortran.h
REM seed 1167664418 -279068581 -1855121746 -1682628056 -24507089 1977939596 249544273 -1628544452 1781653521 -1949180313 1857976379 -1690325866 1803210292 1225859467 1635342235 -2093518158 -984788163 1962238902 -785982315 2069218537 -411750635 304353000 -31663872 904246903 1007402138 1518251343 466364312 100874703 -95061707 -661034871 -572927614 -1129048209 1201098676
REM
CELL 1.54180   50.00000   50.00000   50.00000   90.00000   90.00000   90.00000
LATT -1
SFAC C  
C      1  0.4590870000000  0.5388450000000  0.4586410000000 1.0
C      1  0.4462540000000  0.5033460000000  0.5305320000000 1.0
C      1  0.5395440000000  0.4913220000000  0.4622160000000 1.0
C      1  0.4687620000000  0.4446480000000  0.4521440000000 1.0
C      1  0.5134030000000  0.4418430000000  0.5346320000000 1.0
C      1  0.5116530000000  0.5068080000000  0.5185690000000 1.0
C      1  0.4524900000000  0.4858760000000  0.5089030000000 1.0
C      1  0.5421900000000  0.5356520000000  0.4946830000000 1.0
C      1  0.5146660000000  0.5696620000000  0.4847250000000 1.0
C      1  0.5657590000000  0.4832120000000  0.5045180000000 1.0
C      1  0.4958470000000  0.5894530000000  0.4104910000000 1.0
C      1  0.4469000000000  0.5170520000000  0.4711990000000 1.0
C      1  0.4602800000000  0.5196330000000  0.5489680000000 1.0
C      1  0.4513540000000  0.4575590000000  0.5147630000000 1.0
C      1  0.4631260000000  0.4972490000000  0.4840130000000 1.0
C      1  0.5176230000000  0.4657780000000  0.5520010000000 1.0
C      1  0.4871860000000  0.4306850000000  0.5345460000000 1.0
C      1  0.4838050000000  0.4668460000000  0.4525080000000 1.0
C      1  0.5895450000000  0.4912680000000  0.5457080000000 1.0
C      1  0.4929190000000  0.4806850000000  0.5617280000000 1.0
C      1  0.4690680000000  0.4644080000000  0.5608830000000 1.0
C      1  0.4698060000000  0.5568070000000  0.4423890000000 1.0
C      1  0.4513970000000  0.4337170000000  0.4694430000000 1.0
C      1  0.5501610000000  0.5133410000000  0.4467310000000 1.0
C      1  0.5393460000000  0.4481920000000  0.4882710000000 1.0
C      1  0.4436910000000  0.4397790000000  0.4943960000000 1.0
C      1  0.5434750000000  0.4774930000000  0.5487850000000 1.0
C      1  0.5359830000000  0.5540810000000  0.4731680000000 1.0
C      1  0.4873610000000  0.4891950000000  0.4694630000000 1.0
C      1  0.4653670000000  0.5471470000000  0.5405710000000 1.0
C      1  0.5517530000000  0.4730510000000  0.4817100000000 1.0
C      1  0.5008860000000  0.5658660000000  0.5081860000000 1.0
C      1  0.5001070000000  0.4823090000000  0.5159330000000 1.0
C      1  0.5289200000000  0.4380020000000  0.5110570000000 1.0
C      1  0.4196680000000  0.5142370000000  0.4705310000000 1.0
C      1  0.4871340000000  0.5090630000000  0.5574530000000 1.0
C      1  0.4923730000000  0.5501520000000  0.5303500000000 1.0
C      1  0.5446810000000  0.5404220000000  0.4493350000000 1.0
C      1  0.5662910000000  0.4841520000000  0.5330490000000 1.0
C      1  0.4646710000000  0.4476470000000  0.5382590000000 1.0
C      1  0.5136590000000  0.5002000000000  0.4726370000000 1.0
C      1  0.4822520000000  0.5734200000000  0.4259080000000 1.0
C      1  0.5630720000000  0.5394230000000  0.5116440000000 1.0
C      1  0.5044770000000  0.5243920000000  0.5391740000000 1.0
C      1  0.5220100000000  0.5160840000000  0.4951870000000 1.0
END
