TITL C-627109-622-1461 2.74944589555992e-07 125000 -473.220137116286 0 0 77 (C1) n - 1
REM
REM in /home/nfs/bkarasulu/CARBON/AIRSS/Generating-Clusters/LCBOP/Only-C1/SD-CG/FIRE-CG
REM
REM
REM
REM
REM
REM ./C.cell (11c1c37f851c82e70ff6c80c92926a4b)
REM AIRSS Version 0.9.1 bugfix July 2018 build 013d7b7c2542+ Fri, 06 Jul 2018 19:26:36 +0100
REM compiler GCC version 9.2.1 20190827 (Red Hat 9.2.1-1)
REM options -cpp -mtune=generic -march=x86-64 -g -O0 -fpre-include=/usr/include/finclude/math-vector-fortran.h
REM seed 1874414098 -743018477 1587466944 1142420933 1589540729 918417460 2051263270 -343782540 -751095186 1346747105 914681731 -1848003412 -100359502 59067448 18981617 -1432134489 683962713 1910631776 1008079873 263879639 999460605 597897991 125175494 1520988059 -1339418672 347260407 -646731008 265928166 -826610769 -889208484 1232394783 -1346075762 -437107369
REM
CELL 1.54180   50.00000   50.00000   50.00000   90.00000   90.00000   90.00000
LATT -1
SFAC C  
C      1  0.4947730000000  0.5780360000000  0.5524710000000 1.0
C      1  0.4802840000000  0.5642220000000  0.4672350000000 1.0
C      1  0.5615960000000  0.4037780000000  0.3916310000000 1.0
C      1  0.4888570000000  0.4469750000000  0.5127270000000 1.0
C      1  0.4114060000000  0.4503860000000  0.5653780000000 1.0
C      1  0.4352160000000  0.4716840000000  0.4688590000000 1.0
C      1  0.5122420000000  0.5037150000000  0.4320950000000 1.0
C      1  0.4654380000000  0.5307670000000  0.5677810000000 1.0
C      1  0.5151950000000  0.4624760000000  0.4779490000000 1.0
C      1  0.5224700000000  0.4581540000000  0.4181930000000 1.0
C      1  0.4204040000000  0.4949430000000  0.4809340000000 1.0
C      1  0.5808630000000  0.4257460000000  0.5575310000000 1.0
C      1  0.5352620000000  0.5299360000000  0.5373650000000 1.0
C      1  0.4913850000000  0.4668490000000  0.5587720000000 1.0
C      1  0.5370570000000  0.5016390000000  0.4475850000000 1.0
C      1  0.5221370000000  0.4809900000000  0.5254230000000 1.0
C      1  0.4684050000000  0.4951540000000  0.5017760000000 1.0
C      1  0.5142290000000  0.5183170000000  0.4963180000000 1.0
C      1  0.5465820000000  0.4442640000000  0.4241210000000 1.0
C      1  0.4120170000000  0.4952720000000  0.5091310000000 1.0
C      1  0.4309830000000  0.5446230000000  0.4772020000000 1.0
C      1  0.5709570000000  0.4499660000000  0.5171350000000 1.0
C      1  0.4882100000000  0.5807540000000  0.4896300000000 1.0
C      1  0.6045970000000  0.4811700000000  0.4985720000000 1.0
C      1  0.4878640000000  0.5367180000000  0.5837570000000 1.0
C      1  0.5830880000000  0.4946110000000  0.4603500000000 1.0
C      1  0.5252280000000  0.5089290000000  0.5202850000000 1.0
C      1  0.4674180000000  0.5065020000000  0.4779560000000 1.0
C      1  0.4708590000000  0.5811120000000  0.5120150000000 1.0
C      1  0.6403840000000  0.5413810000000  0.4718580000000 1.0
C      1  0.3981100000000  0.4734740000000  0.5207920000000 1.0
C      1  0.4591130000000  0.5029980000000  0.5663830000000 1.0
C      1  0.4453770000000  0.4499560000000  0.4853320000000 1.0
C      1  0.4031500000000  0.5220470000000  0.4441210000000 1.0
C      1  0.4182210000000  0.5205690000000  0.4670520000000 1.0
C      1  0.5834280000000  0.4614430000000  0.4946480000000 1.0
C      1  0.6054100000000  0.5011470000000  0.4778470000000 1.0
C      1  0.5210350000000  0.5749700000000  0.5471120000000 1.0
C      1  0.4697770000000  0.5128220000000  0.4519870000000 1.0
C      1  0.4764730000000  0.4598790000000  0.5344690000000 1.0
C      1  0.5755020000000  0.4662770000000  0.4663110000000 1.0
C      1  0.5019260000000  0.4765660000000  0.4258820000000 1.0
C      1  0.4713090000000  0.5707740000000  0.5383450000000 1.0
C      1  0.5000870000000  0.5454580000000  0.4575180000000 1.0
C      1  0.4803460000000  0.4655180000000  0.4425320000000 1.0
C      1  0.4547650000000  0.4619660000000  0.5908550000000 1.0
C      1  0.5631370000000  0.4506250000000  0.4463790000000 1.0
C      1  0.5628980000000  0.5135090000000  0.4525360000000 1.0
C      1  0.6237610000000  0.5215450000000  0.4749150000000 1.0
C      1  0.4260580000000  0.5115340000000  0.5290580000000 1.0
C      1  0.5141300000000  0.5311550000000  0.5835050000000 1.0
C      1  0.5194980000000  0.4700830000000  0.5522090000000 1.0
C      1  0.5158160000000  0.5865500000000  0.4946370000000 1.0
C      1  0.5190200000000  0.5375010000000  0.4767770000000 1.0
C      1  0.4726940000000  0.4795120000000  0.5774580000000 1.0
C      1  0.5353630000000  0.5581150000000  0.5290100000000 1.0
C      1  0.5423450000000  0.4546030000000  0.5581560000000 1.0
C      1  0.4525510000000  0.5581590000000  0.4644540000000 1.0
C      1  0.4905990000000  0.4527150000000  0.4663100000000 1.0
C      1  0.5333410000000  0.5261630000000  0.5653900000000 1.0
C      1  0.4309320000000  0.4515920000000  0.5837000000000 1.0
C      1  0.4518290000000  0.4714540000000  0.4443810000000 1.0
C      1  0.4931120000000  0.5235340000000  0.4402350000000 1.0
C      1  0.5543750000000  0.4233220000000  0.4072860000000 1.0
C      1  0.4332080000000  0.5392700000000  0.5285600000000 1.0
C      1  0.5317990000000  0.4808400000000  0.4662600000000 1.0
C      1  0.4452050000000  0.4961640000000  0.5427920000000 1.0
C      1  0.4550840000000  0.5482290000000  0.5463030000000 1.0
C      1  0.4264650000000  0.5518010000000  0.5042600000000 1.0
C      1  0.5137920000000  0.4610790000000  0.5060830000000 1.0
C      1  0.4730720000000  0.4433220000000  0.4880740000000 1.0
C      1  0.4610450000000  0.4815870000000  0.5251050000000 1.0
C      1  0.5439460000000  0.5511890000000  0.4802280000000 1.0
C      1  0.5646830000000  0.4434840000000  0.5442340000000 1.0
C      1  0.5637730000000  0.5397940000000  0.4639490000000 1.0
C      1  0.3994890000000  0.4577630000000  0.5425500000000 1.0
C      1  0.5375460000000  0.5688750000000  0.5019870000000 1.0
END
