TITL C-627111-6168-827 -2.53282815088269e-07 125000 -469.899663917018 0 0 78 (C1) n - 1
REM
REM in /home/nfs/bkarasulu/CARBON/AIRSS/Generating-Clusters/LCBOP/Only-C1/SD-CG/FIRE-CG
REM
REM
REM
REM
REM
REM ./C.cell (11c1c37f851c82e70ff6c80c92926a4b)
REM AIRSS Version 0.9.1 bugfix July 2018 build 013d7b7c2542+ Fri, 06 Jul 2018 19:26:36 +0100
REM compiler GCC version 9.2.1 20190827 (Red Hat 9.2.1-1)
REM options -cpp -mtune=generic -march=x86-64 -g -O0 -fpre-include=/usr/include/finclude/math-vector-fortran.h
REM seed 578609902 832243287 1045521876 763801458 1470596599 1987615997 -820561017 -406230594 -1939726676 -588195126 523758034 1927619928 1757625981 1910322267 1970303448 274086784 -659490254 -1080375598 -298372729 -1247477080 406268765 -1448898867 255241805 1768559303 -1497459427 -962720239 -1138575647 -921880379 -397054912 1207836137 -904969893 -873250410 399784882
REM
CELL 1.54180   50.00000   50.00000   50.00000   90.00000   90.00000   90.00000
LATT -1
SFAC C  
C      1  0.4958440000000  0.4610810000000  0.5627030000000 1.0
C      1  0.4340510000000  0.4898280000000  0.5114600000000 1.0
C      1  0.5363850000000  0.5498350000000  0.4204480000000 1.0
C      1  0.5547490000000  0.5606270000000  0.5109740000000 1.0
C      1  0.5206680000000  0.5371790000000  0.4031110000000 1.0
C      1  0.5191150000000  0.4455070000000  0.5664660000000 1.0
C      1  0.5223120000000  0.4744410000000  0.4207390000000 1.0
C      1  0.4991420000000  0.4907250000000  0.4119270000000 1.0
C      1  0.5309960000000  0.5742580000000  0.5134900000000 1.0
C      1  0.4856000000000  0.4618780000000  0.5362940000000 1.0
C      1  0.4334300000000  0.4204050000000  0.5168630000000 1.0
C      1  0.4101160000000  0.5434720000000  0.4794650000000 1.0
C      1  0.5473680000000  0.4794800000000  0.4083250000000 1.0
C      1  0.5006530000000  0.5476660000000  0.5620500000000 1.0
C      1  0.5191430000000  0.4969560000000  0.5860630000000 1.0
C      1  0.4796420000000  0.5793580000000  0.5299800000000 1.0
C      1  0.5469370000000  0.4323480000000  0.5294580000000 1.0
C      1  0.4230010000000  0.5350010000000  0.5034580000000 1.0
C      1  0.4899390000000  0.4892490000000  0.4671650000000 1.0
C      1  0.5854270000000  0.4958430000000  0.4377500000000 1.0
C      1  0.5780970000000  0.4587720000000  0.4669110000000 1.0
C      1  0.5326190000000  0.5080650000000  0.4782060000000 1.0
C      1  0.5248300000000  0.4659710000000  0.4483810000000 1.0
C      1  0.5075660000000  0.5442060000000  0.5878870000000 1.0
C      1  0.5155880000000  0.4410540000000  0.4604190000000 1.0
C      1  0.4313280000000  0.4819110000000  0.4512010000000 1.0
C      1  0.5667300000000  0.5356160000000  0.5491470000000 1.0
C      1  0.5440340000000  0.5197360000000  0.5530870000000 1.0
C      1  0.4213140000000  0.5311670000000  0.5328320000000 1.0
C      1  0.5862820000000  0.4863360000000  0.4641260000000 1.0
C      1  0.5418680000000  0.4958100000000  0.5679720000000 1.0
C      1  0.5472480000000  0.4357990000000  0.5011420000000 1.0
C      1  0.4686020000000  0.5237970000000  0.4944090000000 1.0
C      1  0.5809910000000  0.5150370000000  0.5097250000000 1.0
C      1  0.5164540000000  0.5216540000000  0.6000750000000 1.0
C      1  0.4870110000000  0.4416490000000  0.4561910000000 1.0
C      1  0.5555350000000  0.4750510000000  0.5532760000000 1.0
C      1  0.4553950000000  0.5233610000000  0.5671520000000 1.0
C      1  0.4141940000000  0.5263260000000  0.4566880000000 1.0
C      1  0.5804120000000  0.4683500000000  0.5115480000000 1.0
C      1  0.5053900000000  0.5813970000000  0.5203620000000 1.0
C      1  0.4432000000000  0.5422560000000  0.5489030000000 1.0
C      1  0.4865050000000  0.4862760000000  0.5241910000000 1.0
C      1  0.4471040000000  0.4985110000000  0.4317300000000 1.0
C      1  0.4464120000000  0.4673090000000  0.4702930000000 1.0
C      1  0.4048200000000  0.4864570000000  0.5533040000000 1.0
C      1  0.5721160000000  0.5396020000000  0.5213190000000 1.0
C      1  0.3950530000000  0.5661600000000  0.4780780000000 1.0
C      1  0.4426840000000  0.5145080000000  0.4981570000000 1.0
C      1  0.4712360000000  0.4901270000000  0.4190300000000 1.0
C      1  0.5497840000000  0.5495270000000  0.4450570000000 1.0
C      1  0.5305740000000  0.5103140000000  0.5060910000000 1.0
C      1  0.5686740000000  0.5683400000000  0.4509750000000 1.0
C      1  0.5432580000000  0.4488860000000  0.5520610000000 1.0
C      1  0.5731250000000  0.4837950000000  0.5320200000000 1.0
C      1  0.4356520000000  0.5255710000000  0.4362450000000 1.0
C      1  0.4500850000000  0.4414240000000  0.5115530000000 1.0
C      1  0.5435790000000  0.5289300000000  0.4630670000000 1.0
C      1  0.4085200000000  0.4977430000000  0.4592560000000 1.0
C      1  0.5181670000000  0.4874800000000  0.4656400000000 1.0
C      1  0.5697520000000  0.4509000000000  0.4925570000000 1.0
C      1  0.4989240000000  0.4285790000000  0.5041940000000 1.0
C      1  0.5068610000000  0.5147650000000  0.3989490000000 1.0
C      1  0.4706970000000  0.5025930000000  0.5756300000000 1.0
C      1  0.4778920000000  0.4407500000000  0.5190150000000 1.0
C      1  0.5016520000000  0.5349520000000  0.5366600000000 1.0
C      1  0.5253950000000  0.5209030000000  0.5314860000000 1.0
C      1  0.4738610000000  0.4654720000000  0.4640650000000 1.0
C      1  0.4831490000000  0.5343990000000  0.5156230000000 1.0
C      1  0.4804610000000  0.5149610000000  0.4712220000000 1.0
C      1  0.5221800000000  0.4328000000000  0.4874150000000 1.0
C      1  0.5878910000000  0.4995050000000  0.4889390000000 1.0
C      1  0.4189530000000  0.5008090000000  0.5343120000000 1.0
C      1  0.4578870000000  0.5661040000000  0.5405720000000 1.0
C      1  0.5708050000000  0.4903060000000  0.4158700000000 1.0
C      1  0.4403870000000  0.4652200000000  0.4984600000000 1.0
C      1  0.4937520000000  0.4854910000000  0.5776410000000 1.0
C      1  0.3929450000000  0.4720730000000  0.5714990000000 1.0
END
