TITL C-627107-135-1553 78118.6574567356 125000 -1168.42561531621 0 0 189 (C1) n - 1
REM
REM in /home/nfs/bkarasulu/CARBON/AIRSS/Generating-Clusters/LCBOP/Only-C1/SD-CG/FIRE-CG
REM
REM
REM
REM
REM
REM ./C.cell (11c1c37f851c82e70ff6c80c92926a4b)
REM AIRSS Version 0.9.1 bugfix July 2018 build 013d7b7c2542+ Fri, 06 Jul 2018 19:26:36 +0100
REM compiler GCC version 9.2.1 20190827 (Red Hat 9.2.1-1)
REM options -cpp -mtune=generic -march=x86-64 -g -O0 -fpre-include=/usr/include/finclude/math-vector-fortran.h
REM seed 1835674525 1914362422 1155135777 2083075426 -1245275344 979972462 -1055802200 1142641956 1503749257 -1167919142 538726519 -1226164214 2018662903 1795494425 957140167 -830609357 -575159053 -1244408075 1572618906 2061045886 2095601018 972709978 1430383127 589140953 -115507002 -231090611 1765829737 -1523225983 -1051965885 -1080950805 -540553659 674912215 -931081608
REM
CELL 1.54180   50.00000   50.00000   50.00000   90.00000   90.00000   90.00000
LATT -1
SFAC C  
C      1  0.5749060000000  0.4555340000000  0.4877620000000 1.0
C      1  0.4285890000000  0.5936600000000  0.3904980000000 1.0
C      1  0.3982970000000  0.4831210000000  0.4415680000000 1.0
C      1  0.5046560000000  0.5115250000000  0.6026660000000 1.0
C      1  0.3930030000000  0.5839000000000  0.5772330000000 1.0
C      1  0.3925540000000  0.5145620000000  0.4788670000000 1.0
C      1  0.4743280000000  0.5426560000000  0.5698470000000 1.0
C      1  0.4251660000000  0.5295820000000  0.5913730000000 1.0
C      1  0.5319030000000  0.5163150000000  0.4593630000000 1.0
C      1  0.4153200000000  0.4985890000000  0.4859050000000 1.0
C      1  0.5413770000000  0.4912840000000  0.5384490000000 1.0
C      1  0.5500280000000  0.4621710000000  0.5437490000000 1.0
C      1  0.5998370000000  0.4440100000000  0.5232470000000 1.0
C      1  0.4952500000000  0.5665010000000  0.4630770000000 1.0
C      1  0.5257450000000  0.4438840000000  0.4026260000000 1.0
C      1  0.4212030000000  0.5141870000000  0.4083500000000 1.0
C      1  0.4550340000000  0.4633230000000  0.4822040000000 1.0
C      1  0.5637810000000  0.5833930000000  0.5426300000000 1.0
C      1  0.5105120000000  0.5010650000000  0.3658080000000 1.0
C      1  0.5166090000000  0.4988000000000  0.4772170000000 1.0
C      1  0.4024860000000  0.4369590000000  0.5308680000000 1.0
C      1  0.4265040000000  0.3726980000000  0.5588970000000 1.0
C      1  0.6175040000000  0.4848350000000  0.4641660000000 1.0
C      1  0.5213360000000  0.6286840000000  0.5169380000000 1.0
C      1  0.4593790000000  0.4852280000000  0.6409100000000 1.0
C      1  0.4655360000000  0.5435210000000  0.6208340000000 1.0
C      1  0.5274490000000  0.4816200000000  0.4957030000000 1.0
C      1  0.4682770000000  0.4676570000000  0.6586850000000 1.0
C      1  0.4865700000000  0.5604300000000  0.6098860000000 1.0
C      1  0.5455680000000  0.4884710000000  0.5999390000000 1.0
C      1  0.6031100000000  0.5742960000000  0.4910950000000 1.0
C      1  0.4952330000000  0.5703000000000  0.3851890000000 1.0
C      1  0.5736800000000  0.5534650000000  0.4235170000000 1.0
C      1  0.5658770000000  0.4699360000000  0.5902840000000 1.0
C      1  0.4280130000000  0.5444370000000  0.4462030000000 1.0
C      1  0.5560310000000  0.5352860000000  0.4091370000000 1.0
C      1  0.4801000000000  0.5674370000000  0.5826100000000 1.0
C      1  0.5372560000000  0.5904160000000  0.5440370000000 1.0
C      1  0.5154350000000  0.4836550000000  0.5980470000000 1.0
C      1  0.4631690000000  0.3865140000000  0.6213080000000 1.0
C      1  0.4227510000000  0.5842330000000  0.5372260000000 1.0
C      1  0.5546970000000  0.3829160000000  0.5153620000000 1.0
C      1  0.5780220000000  0.3830130000000  0.5012840000000 1.0
C      1  0.4762040000000  0.4170330000000  0.6608130000000 1.0
C      1  0.4541450000000  0.6286130000000  0.3707100000000 1.0
C      1  0.4548860000000  0.4248700000000  0.4141320000000 1.0
C      1  0.5220570000000  0.3993820000000  0.4226920000000 1.0
C      1  0.5024800000000  0.5475050000000  0.5137250000000 1.0
C      1  0.4192050000000  0.4379410000000  0.4501850000000 1.0
C      1  0.5939030000000  0.5080330000000  0.4209550000000 1.0
C      1  0.4375640000000  0.5182030000000  0.3859420000000 1.0
C      1  0.5706860000000  0.5646590000000  0.5232070000000 1.0
C      1  0.4071430000000  0.4700840000000  0.4874610000000 1.0
C      1  0.4702980000000  0.6022230000000  0.5275400000000 1.0
C      1  0.5088040000000  0.4222000000000  0.3970240000000 1.0
C      1  0.5129430000000  0.5535230000000  0.3955330000000 1.0
C      1  0.5519080000000  0.5003770000000  0.3414360000000 1.0
C      1  0.5028930000000  0.4893870000000  0.4366050000000 1.0
C      1  0.4747390000000  0.4430140000000  0.6662050000000 1.0
C      1  0.4519270000000  0.3860770000000  0.5973080000000 1.0
C      1  0.5383160000000  0.4966840000000  0.3649440000000 1.0
C      1  0.5285050000000  0.5390910000000  0.4136300000000 1.0
C      1  0.5039180000000  0.4316490000000  0.4499980000000 1.0
C      1  0.5683120000000  0.5082900000000  0.4039710000000 1.0
C      1  0.4849420000000  0.5086590000000  0.3652650000000 1.0
C      1  0.4390000000000  0.4860980000000  0.5477080000000 1.0
C      1  0.4380230000000  0.4197000000000  0.5644270000000 1.0
C      1  0.4510480000000  0.4943210000000  0.6157190000000 1.0
C      1  0.6094680000000  0.5370110000000  0.5271160000000 1.0
C      1  0.6047920000000  0.5025600000000  0.4834220000000 1.0
C      1  0.5132700000000  0.6395670000000  0.4939090000000 1.0
C      1  0.4773540000000  0.4382040000000  0.4033730000000 1.0
C      1  0.5257450000000  0.5166490000000  0.5443650000000 1.0
C      1  0.3932460000000  0.4317040000000  0.5775450000000 1.0
C      1  0.6019710000000  0.4903240000000  0.5105000000000 1.0
C      1  0.4789750000000  0.4969600000000  0.4226490000000 1.0
C      1  0.4116310000000  0.4294490000000  0.5570720000000 1.0
C      1  0.5183390000000  0.5322800000000  0.4393520000000 1.0
C      1  0.5268920000000  0.4741230000000  0.4367470000000 1.0
C      1  0.5153960000000  0.5562890000000  0.6077480000000 1.0
C      1  0.4707600000000  0.5225990000000  0.4382950000000 1.0
C      1  0.4469420000000  0.5243090000000  0.4543870000000 1.0
C      1  0.4828490000000  0.4952570000000  0.5669540000000 1.0
C      1  0.4087210000000  0.4590260000000  0.5142810000000 1.0
C      1  0.4870530000000  0.5194290000000  0.5808750000000 1.0
C      1  0.4938410000000  0.4890230000000  0.4641780000000 1.0
C      1  0.4345160000000  0.4413060000000  0.4261560000000 1.0
C      1  0.5527000000000  0.4883650000000  0.3881970000000 1.0
C      1  0.4516520000000  0.5508340000000  0.5258400000000 1.0
C      1  0.5520260000000  0.5481030000000  0.5091440000000 1.0
C      1  0.5523760000000  0.4443330000000  0.5867160000000 1.0
C      1  0.5027630000000  0.5224490000000  0.5270190000000 1.0
C      1  0.5492230000000  0.3960450000000  0.4351210000000 1.0
C      1  0.5868950000000  0.4743340000000  0.5685090000000 1.0
C      1  0.5977840000000  0.5605800000000  0.5156370000000 1.0
C      1  0.5578430000000  0.4524770000000  0.4663770000000 1.0
C      1  0.5916680000000  0.4425310000000  0.4179970000000 1.0
C      1  0.3911470000000  0.5392820000000  0.4924530000000 1.0
C      1  0.4430730000000  0.6044850000000  0.5362420000000 1.0
C      1  0.4386070000000  0.4685660000000  0.4171320000000 1.0
C      1  0.4640270000000  0.4336370000000  0.5640860000000 1.0
C      1  0.4820540000000  0.4245250000000  0.5414850000000 1.0
C      1  0.4599200000000  0.5155720000000  0.3715500000000 1.0
C      1  0.4653530000000  0.4973880000000  0.5456180000000 1.0
C      1  0.4247750000000  0.4162150000000  0.4672220000000 1.0
C      1  0.5245430000000  0.5301730000000  0.6116590000000 1.0
C      1  0.5356240000000  0.4018970000000  0.5124930000000 1.0
C      1  0.6058260000000  0.5092260000000  0.5337130000000 1.0
C      1  0.5875040000000  0.4314200000000  0.4985080000000 1.0
C      1  0.5509480000000  0.4942370000000  0.5098490000000 1.0
C      1  0.5815940000000  0.5202310000000  0.4765880000000 1.0
C      1  0.3736650000000  0.5939940000000  0.5914890000000 1.0
C      1  0.4772520000000  0.5092030000000  0.5229530000000 1.0
C      1  0.4748750000000  0.5866130000000  0.3805970000000 1.0
C      1  0.5804370000000  0.4570020000000  0.5446950000000 1.0
C      1  0.5971420000000  0.5403110000000  0.4598010000000 1.0
C      1  0.5280190000000  0.5704060000000  0.5762810000000 1.0
C      1  0.5541340000000  0.5802910000000  0.5877410000000 1.0
C      1  0.5747710000000  0.4777200000000  0.5052370000000 1.0
C      1  0.5227620000000  0.5681250000000  0.4738670000000 1.0
C      1  0.4106290000000  0.5354650000000  0.4249010000000 1.0
C      1  0.5697250000000  0.5726430000000  0.4466820000000 1.0
C      1  0.4550710000000  0.3972570000000  0.5059080000000 1.0
C      1  0.5181620000000  0.6081840000000  0.5355820000000 1.0
C      1  0.5493950000000  0.5173450000000  0.6024820000000 1.0
C      1  0.5681910000000  0.4570940000000  0.4196270000000 1.0
C      1  0.4762150000000  0.5591260000000  0.5129430000000 1.0
C      1  0.4320340000000  0.4710100000000  0.5253570000000 1.0
C      1  0.4619210000000  0.5115960000000  0.4992610000000 1.0
C      1  0.4512850000000  0.5441880000000  0.5538230000000 1.0
C      1  0.5170620000000  0.4484230000000  0.4305460000000 1.0
C      1  0.4797090000000  0.4661530000000  0.4706870000000 1.0
C      1  0.4284480000000  0.4842310000000  0.5739190000000 1.0
C      1  0.5597800000000  0.5124960000000  0.4573030000000 1.0
C      1  0.4969870000000  0.4437070000000  0.5250590000000 1.0
C      1  0.6095090000000  0.4893460000000  0.4368220000000 1.0
C      1  0.4745420000000  0.5859540000000  0.5032630000000 1.0
C      1  0.4269170000000  0.5639430000000  0.5165570000000 1.0
C      1  0.3841710000000  0.5072210000000  0.4521250000000 1.0
C      1  0.5960520000000  0.5353200000000  0.4315280000000 1.0
C      1  0.4179260000000  0.4877920000000  0.4201120000000 1.0
C      1  0.5456250000000  0.4272100000000  0.4707050000000 1.0
C      1  0.4972350000000  0.6348450000000  0.4729620000000 1.0
C      1  0.6190520000000  0.4640160000000  0.5102630000000 1.0
C      1  0.4926560000000  0.6012750000000  0.5461420000000 1.0
C      1  0.5323790000000  0.4243040000000  0.4957900000000 1.0
C      1  0.4866430000000  0.3851360000000  0.4538590000000 1.0
C      1  0.4387860000000  0.3923910000000  0.5734520000000 1.0
C      1  0.4119930000000  0.5055640000000  0.5829060000000 1.0
C      1  0.4043490000000  0.4608390000000  0.4600470000000 1.0
C      1  0.5577570000000  0.5296670000000  0.5784250000000 1.0
C      1  0.5918270000000  0.5677370000000  0.4660470000000 1.0
C      1  0.4472690000000  0.4744220000000  0.5938580000000 1.0
C      1  0.5442150000000  0.5776090000000  0.4580060000000 1.0
C      1  0.5136640000000  0.4464970000000  0.5000370000000 1.0
C      1  0.5497520000000  0.4606130000000  0.3974500000000 1.0
C      1  0.6289980000000  0.4641480000000  0.4820320000000 1.0
C      1  0.4662850000000  0.4732240000000  0.4105620000000 1.0
C      1  0.4795870000000  0.5880770000000  0.4749440000000 1.0
C      1  0.4462620000000  0.5235880000000  0.6114760000000 1.0
C      1  0.4136460000000  0.5728240000000  0.5623290000000 1.0
C      1  0.5545410000000  0.4671670000000  0.4429680000000 1.0
C      1  0.4822110000000  0.6141620000000  0.4646230000000 1.0
C      1  0.4969180000000  0.4442500000000  0.4742840000000 1.0
C      1  0.5261200000000  0.5562450000000  0.4998690000000 1.0
C      1  0.4380000000000  0.4027200000000  0.4860990000000 1.0
C      1  0.5619280000000  0.4057280000000  0.4605540000000 1.0
C      1  0.4919870000000  0.5423290000000  0.4461060000000 1.0
C      1  0.5621870000000  0.5223810000000  0.5015980000000 1.0
C      1  0.6124950000000  0.4269150000000  0.4167300000000 1.0
C      1  0.4121770000000  0.5586270000000  0.4928740000000 1.0
C      1  0.4785100000000  0.4644840000000  0.5224030000000 1.0
C      1  0.6010200000000  0.4977660000000  0.5597200000000 1.0
C      1  0.5825360000000  0.4050310000000  0.4833440000000 1.0
C      1  0.3842710000000  0.5291080000000  0.4338500000000 1.0
C      1  0.4719310000000  0.3967840000000  0.6441590000000 1.0
C      1  0.4960180000000  0.5845800000000  0.5686170000000 1.0
C      1  0.4415640000000  0.5104850000000  0.4796000000000 1.0
C      1  0.5366830000000  0.5381540000000  0.5613420000000 1.0
C      1  0.5026260000000  0.4041860000000  0.4430740000000 1.0
C      1  0.5391770000000  0.4432310000000  0.5626080000000 1.0
C      1  0.4933800000000  0.4719190000000  0.5815260000000 1.0
C      1  0.4718190000000  0.4027780000000  0.5260890000000 1.0
C      1  0.4689980000000  0.4556350000000  0.5835420000000 1.0
C      1  0.4220730000000  0.5635840000000  0.4664420000000 1.0
C      1  0.5741910000000  0.5842630000000  0.5691930000000 1.0
C      1  0.4540870000000  0.4644410000000  0.5098030000000 1.0
C      1  0.4278840000000  0.5491120000000  0.5701950000000 1.0
C      1  0.4522810000000  0.6031360000000  0.3805630000000 1.0
END
