TITL C-627112-676-1374 0.000742135947838963 125000 -510.456774421973 0 0 85 (C1) n - 1
REM
REM in /home/nfs/bkarasulu/CARBON/AIRSS/Generating-Clusters/LCBOP/Only-C1/SD-CG/FIRE-CG
REM
REM
REM
REM
REM
REM ./C.cell (11c1c37f851c82e70ff6c80c92926a4b)
REM AIRSS Version 0.9.1 bugfix July 2018 build 013d7b7c2542+ Fri, 06 Jul 2018 19:26:36 +0100
REM compiler GCC version 9.2.1 20190827 (Red Hat 9.2.1-1)
REM options -cpp -mtune=generic -march=x86-64 -g -O0 -fpre-include=/usr/include/finclude/math-vector-fortran.h
REM seed -1818613572 579416710 1790069419 495947051 399854545 -1118378579 -506134478 1289490196 325989852 622600963 -1389843115 718030358 708011615 939310586 -1113695901 577553825 -1462217054 1356680678 983238065 2050233804 -1917672572 1783872614 1621125981 -1257466841 203954128 417705597 634909118 535724314 -1598842539 1973853966 -46368919 1903135853 2046223576
REM
CELL 1.54180   50.00000   50.00000   50.00000   90.00000   90.00000   90.00000
LATT -1
SFAC C  
C      1  0.5465260000000  0.5698900000000  0.5154540000000 1.0
C      1  0.4397360000000  0.5568050000000  0.5570590000000 1.0
C      1  0.5658690000000  0.4293070000000  0.6162920000000 1.0
C      1  0.4863700000000  0.5840770000000  0.5164040000000 1.0
C      1  0.5289110000000  0.4957220000000  0.5952720000000 1.0
C      1  0.5079690000000  0.5397880000000  0.5725340000000 1.0
C      1  0.4776570000000  0.4877210000000  0.4564760000000 1.0
C      1  0.5610840000000  0.4570860000000  0.4377870000000 1.0
C      1  0.4918450000000  0.5569340000000  0.3995960000000 1.0
C      1  0.4912420000000  0.5930120000000  0.4379710000000 1.0
C      1  0.5436320000000  0.4938850000000  0.4929140000000 1.0
C      1  0.5571390000000  0.4850980000000  0.4459640000000 1.0
C      1  0.4648900000000  0.4077300000000  0.5144860000000 1.0
C      1  0.5453180000000  0.4997390000000  0.5215820000000 1.0
C      1  0.5761230000000  0.4173280000000  0.4692020000000 1.0
C      1  0.5395500000000  0.4998620000000  0.4298820000000 1.0
C      1  0.5259650000000  0.5581250000000  0.5583560000000 1.0
C      1  0.4510620000000  0.5747890000000  0.4612260000000 1.0
C      1  0.5347750000000  0.5909040000000  0.4686300000000 1.0
C      1  0.4691020000000  0.5969090000000  0.4560550000000 1.0
C      1  0.5633360000000  0.4865910000000  0.4742730000000 1.0
C      1  0.5761400000000  0.4472050000000  0.5047470000000 1.0
C      1  0.5546480000000  0.4522050000000  0.6108720000000 1.0
C      1  0.5446320000000  0.4041590000000  0.5029860000000 1.0
C      1  0.5395890000000  0.4454890000000  0.4230650000000 1.0
C      1  0.4723250000000  0.4669510000000  0.5816260000000 1.0
C      1  0.5107890000000  0.4070150000000  0.4377990000000 1.0
C      1  0.5773650000000  0.4437980000000  0.4579210000000 1.0
C      1  0.5788750000000  0.4632690000000  0.4810480000000 1.0
C      1  0.4933860000000  0.5066710000000  0.4142160000000 1.0
C      1  0.4608450000000  0.4662520000000  0.4618120000000 1.0
C      1  0.4889720000000  0.5796360000000  0.4133940000000 1.0
C      1  0.4317940000000  0.5764230000000  0.4820770000000 1.0
C      1  0.4989330000000  0.4965460000000  0.4732530000000 1.0
C      1  0.4133350000000  0.5150220000000  0.5096350000000 1.0
C      1  0.5167310000000  0.4822330000000  0.4893180000000 1.0
C      1  0.4833140000000  0.5541690000000  0.5791210000000 1.0
C      1  0.4718250000000  0.5610820000000  0.5227210000000 1.0
C      1  0.4282400000000  0.5734970000000  0.5087690000000 1.0
C      1  0.4879230000000  0.5457400000000  0.4680280000000 1.0
C      1  0.5160800000000  0.5155720000000  0.5833030000000 1.0
C      1  0.4725010000000  0.5049800000000  0.4340080000000 1.0
C      1  0.4665580000000  0.4347360000000  0.5180850000000 1.0
C      1  0.5142120000000  0.3928780000000  0.4620420000000 1.0
C      1  0.4742920000000  0.6136980000000  0.4782800000000 1.0
C      1  0.4444020000000  0.5656010000000  0.5305780000000 1.0
C      1  0.5424160000000  0.4747700000000  0.6042610000000 1.0
C      1  0.4899990000000  0.5826160000000  0.5790490000000 1.0
C      1  0.4754620000000  0.6031030000000  0.5892050000000 1.0
C      1  0.4881870000000  0.4213860000000  0.4284410000000 1.0
C      1  0.5621770000000  0.3934910000000  0.4618390000000 1.0
C      1  0.4627730000000  0.5495020000000  0.4556410000000 1.0
C      1  0.4573510000000  0.5431600000000  0.5750110000000 1.0
C      1  0.3909720000000  0.4987430000000  0.5119750000000 1.0
C      1  0.4907640000000  0.4484660000000  0.5155250000000 1.0
C      1  0.5345920000000  0.4175920000000  0.4256830000000 1.0
C      1  0.4596480000000  0.4903540000000  0.5834090000000 1.0
C      1  0.4881660000000  0.4460240000000  0.5768700000000 1.0
C      1  0.5683280000000  0.4203670000000  0.4984150000000 1.0
C      1  0.5027960000000  0.5244880000000  0.4737570000000 1.0
C      1  0.5504460000000  0.5248780000000  0.5322340000000 1.0
C      1  0.4557750000000  0.5276940000000  0.4390090000000 1.0
C      1  0.4842240000000  0.6067650000000  0.5023120000000 1.0
C      1  0.5157830000000  0.5841630000000  0.5660160000000 1.0
C      1  0.5272060000000  0.4802550000000  0.5333920000000 1.0
C      1  0.4281320000000  0.4725290000000  0.5212860000000 1.0
C      1  0.5162000000000  0.4896690000000  0.4171850000000 1.0
C      1  0.5307730000000  0.4043420000000  0.5271710000000 1.0
C      1  0.5044690000000  0.4275910000000  0.5665400000000 1.0
C      1  0.3991910000000  0.4732630000000  0.5191780000000 1.0
C      1  0.4532420000000  0.5162300000000  0.5820410000000 1.0
C      1  0.5376480000000  0.3907350000000  0.4776000000000 1.0
C      1  0.4943580000000  0.5303210000000  0.3989840000000 1.0
C      1  0.5188970000000  0.4130380000000  0.5494270000000 1.0
C      1  0.4776820000000  0.5337580000000  0.5198740000000 1.0
C      1  0.4416410000000  0.4486190000000  0.4613720000000 1.0
C      1  0.4376560000000  0.5000470000000  0.5159580000000 1.0
C      1  0.4629450000000  0.5114070000000  0.5179740000000 1.0
C      1  0.5170160000000  0.5957120000000  0.4493200000000 1.0
C      1  0.4915260000000  0.4457540000000  0.4165320000000 1.0
C      1  0.5156460000000  0.4610520000000  0.4157890000000 1.0
C      1  0.5421840000000  0.5514750000000  0.5362660000000 1.0
C      1  0.5443670000000  0.5820530000000  0.4918600000000 1.0
C      1  0.4439180000000  0.4500470000000  0.5237590000000 1.0
C      1  0.5096400000000  0.4684080000000  0.5137200000000 1.0
END
