TITL C-627110-360-1591 495.957604628694 125000 -1054.51340154062 0 0 169 (C1) n - 1
REM
REM in /home/nfs/bkarasulu/CARBON/AIRSS/Generating-Clusters/LCBOP/Only-C1/SD-CG/FIRE-CG
REM
REM
REM
REM
REM
REM ./C.cell (11c1c37f851c82e70ff6c80c92926a4b)
REM AIRSS Version 0.9.1 bugfix July 2018 build 013d7b7c2542+ Fri, 06 Jul 2018 19:26:36 +0100
REM compiler GCC version 9.2.1 20190827 (Red Hat 9.2.1-1)
REM options -cpp -mtune=generic -march=x86-64 -g -O0 -fpre-include=/usr/include/finclude/math-vector-fortran.h
REM seed -16725393 -973743199 883447771 -553356246 -1564268503 -1924805934 41597548 1118302050 703016886 -7293828 559009867 -1010197434 -1390194047 184019295 1431413398 1762971379 1796625207 -278915295 -1420401704 -1223483611 565276304 -497076446 1635504501 54591680 -1052318705 -1970847077 1193663576 -1314109185 629670716 -1218490428 -124681656 -367459029 2006331612
REM
CELL 1.54180   50.00000   50.00000   50.00000   90.00000   90.00000   90.00000
LATT -1
SFAC C  
C      1  0.5417650000000  0.3932100000000  0.4691360000000 1.0
C      1  0.5762520000000  0.4922840000000  0.4474080000000 1.0
C      1  0.5499300000000  0.6104670000000  0.5332790000000 1.0
C      1  0.4999610000000  0.4637890000000  0.4606290000000 1.0
C      1  0.5363250000000  0.4830200000000  0.6023600000000 1.0
C      1  0.4921920000000  0.5550730000000  0.5981780000000 1.0
C      1  0.4984420000000  0.4374160000000  0.5006610000000 1.0
C      1  0.5919110000000  0.5138020000000  0.4356800000000 1.0
C      1  0.4618750000000  0.4847480000000  0.4718710000000 1.0
C      1  0.4731190000000  0.4540800000000  0.3900310000000 1.0
C      1  0.4957440000000  0.4537090000000  0.5647240000000 1.0
C      1  0.3980490000000  0.4890230000000  0.4703160000000 1.0
C      1  0.4919200000000  0.5095010000000  0.5188870000000 1.0
C      1  0.5794190000000  0.4990980000000  0.6139450000000 1.0
C      1  0.4421060000000  0.5194090000000  0.5943730000000 1.0
C      1  0.6380560000000  0.5006040000000  0.4108330000000 1.0
C      1  0.5533030000000  0.5263090000000  0.5428090000000 1.0
C      1  0.5341290000000  0.5203850000000  0.4230760000000 1.0
C      1  0.4133430000000  0.5303970000000  0.4043990000000 1.0
C      1  0.4682170000000  0.4671990000000  0.5175060000000 1.0
C      1  0.5134230000000  0.4307830000000  0.4018430000000 1.0
C      1  0.6244200000000  0.3954120000000  0.4458450000000 1.0
C      1  0.4185070000000  0.5306810000000  0.5818050000000 1.0
C      1  0.5917950000000  0.4791200000000  0.5997380000000 1.0
C      1  0.5829160000000  0.5735470000000  0.4938380000000 1.0
C      1  0.5263430000000  0.6235030000000  0.5299030000000 1.0
C      1  0.4891300000000  0.3803450000000  0.5185010000000 1.0
C      1  0.4576640000000  0.4734280000000  0.5896120000000 1.0
C      1  0.5331410000000  0.5373030000000  0.5587140000000 1.0
C      1  0.4757210000000  0.4402150000000  0.5175620000000 1.0
C      1  0.5231040000000  0.5677580000000  0.4679230000000 1.0
C      1  0.5161010000000  0.3849800000000  0.4602080000000 1.0
C      1  0.4997610000000  0.4021870000000  0.4440350000000 1.0
C      1  0.4934010000000  0.3610310000000  0.4981820000000 1.0
C      1  0.4096010000000  0.5761570000000  0.5951360000000 1.0
C      1  0.5525950000000  0.5819810000000  0.4348930000000 1.0
C      1  0.5274830000000  0.5778910000000  0.4935130000000 1.0
C      1  0.5666050000000  0.5010630000000  0.5436370000000 1.0
C      1  0.4530830000000  0.4782670000000  0.4973030000000 1.0
C      1  0.4903410000000  0.4395130000000  0.4732760000000 1.0
C      1  0.6158660000000  0.5071460000000  0.4228310000000 1.0
C      1  0.5384860000000  0.5267560000000  0.4503490000000 1.0
C      1  0.4032820000000  0.4981770000000  0.4401770000000 1.0
C      1  0.5527700000000  0.5190920000000  0.4745480000000 1.0
C      1  0.6203620000000  0.4027150000000  0.4705390000000 1.0
C      1  0.5061980000000  0.4997200000000  0.5675400000000 1.0
C      1  0.4446680000000  0.4341570000000  0.4246100000000 1.0
C      1  0.4808920000000  0.4980540000000  0.4078120000000 1.0
C      1  0.5091030000000  0.4101430000000  0.4185520000000 1.0
C      1  0.5014980000000  0.4556480000000  0.3961220000000 1.0
C      1  0.5169460000000  0.5410200000000  0.4612820000000 1.0
C      1  0.4428180000000  0.3835060000000  0.5000390000000 1.0
C      1  0.4876020000000  0.4838300000000  0.5276220000000 1.0
C      1  0.4794870000000  0.5591860000000  0.5739730000000 1.0
C      1  0.4504280000000  0.6178070000000  0.5072860000000 1.0
C      1  0.4561400000000  0.4208250000000  0.5223760000000 1.0
C      1  0.3861110000000  0.5283150000000  0.5385320000000 1.0
C      1  0.5063370000000  0.5337180000000  0.6118930000000 1.0
C      1  0.4273170000000  0.4054400000000  0.4903740000000 1.0
C      1  0.3917750000000  0.5109490000000  0.4907780000000 1.0
C      1  0.4818140000000  0.5724430000000  0.4258270000000 1.0
C      1  0.5129550000000  0.3906180000000  0.5298370000000 1.0
C      1  0.5879490000000  0.4431910000000  0.5616620000000 1.0
C      1  0.3809780000000  0.5073410000000  0.5180330000000 1.0
C      1  0.4565720000000  0.5342520000000  0.4422540000000 1.0
C      1  0.4506440000000  0.4185440000000  0.4480340000000 1.0
C      1  0.5695430000000  0.5665170000000  0.5177150000000 1.0
C      1  0.5608540000000  0.5760600000000  0.5657590000000 1.0
C      1  0.4782850000000  0.5649710000000  0.4988710000000 1.0
C      1  0.4631480000000  0.5005360000000  0.6007740000000 1.0
C      1  0.4992530000000  0.5228460000000  0.4761750000000 1.0
C      1  0.5807930000000  0.4251800000000  0.5296310000000 1.0
C      1  0.5216800000000  0.4438880000000  0.5579900000000 1.0
C      1  0.4980030000000  0.5539900000000  0.4107010000000 1.0
C      1  0.4341500000000  0.4891530000000  0.3972140000000 1.0
C      1  0.5610750000000  0.4785330000000  0.4984480000000 1.0
C      1  0.3779620000000  0.5546890000000  0.5325380000000 1.0
C      1  0.5973340000000  0.5470320000000  0.5811290000000 1.0
C      1  0.3824190000000  0.5408480000000  0.6121500000000 1.0
C      1  0.5351080000000  0.5639680000000  0.5668490000000 1.0
C      1  0.4576390000000  0.4325830000000  0.3997390000000 1.0
C      1  0.4359100000000  0.5268150000000  0.4936340000000 1.0
C      1  0.4045460000000  0.5627570000000  0.4918570000000 1.0
C      1  0.4339780000000  0.4596090000000  0.4318720000000 1.0
C      1  0.5545230000000  0.4396940000000  0.4695340000000 1.0
C      1  0.4893710000000  0.4901220000000  0.4672260000000 1.0
C      1  0.4738480000000  0.6258200000000  0.5184130000000 1.0
C      1  0.4922160000000  0.5661100000000  0.5248430000000 1.0
C      1  0.4293930000000  0.4269490000000  0.5106000000000 1.0
C      1  0.5684720000000  0.4955160000000  0.4757530000000 1.0
C      1  0.4043940000000  0.4602780000000  0.4803170000000 1.0
C      1  0.4253930000000  0.4799110000000  0.5465490000000 1.0
C      1  0.5344730000000  0.4569690000000  0.5349470000000 1.0
C      1  0.4709660000000  0.5262860000000  0.5295850000000 1.0
C      1  0.5408620000000  0.5270020000000  0.4991000000000 1.0
C      1  0.5841310000000  0.5414820000000  0.4366420000000 1.0
C      1  0.4336710000000  0.6031240000000  0.4917620000000 1.0
C      1  0.5219880000000  0.5394210000000  0.4049110000000 1.0
C      1  0.4980530000000  0.5923720000000  0.4393470000000 1.0
C      1  0.6304110000000  0.6134860000000  0.4568570000000 1.0
C      1  0.4912750000000  0.5076690000000  0.6091550000000 1.0
C      1  0.5241120000000  0.4481650000000  0.5085210000000 1.0
C      1  0.6269580000000  0.4285260000000  0.5395150000000 1.0
C      1  0.5108840000000  0.4920740000000  0.5944560000000 1.0
C      1  0.3864180000000  0.5702080000000  0.5121010000000 1.0
C      1  0.4535260000000  0.5314430000000  0.4713600000000 1.0
C      1  0.5746350000000  0.5626030000000  0.5876190000000 1.0
C      1  0.4772970000000  0.4527480000000  0.5861210000000 1.0
C      1  0.4770430000000  0.5408510000000  0.4835540000000 1.0
C      1  0.5596740000000  0.4125950000000  0.5129650000000 1.0
C      1  0.4227690000000  0.5808640000000  0.4776560000000 1.0
C      1  0.4999940000000  0.6277570000000  0.5252100000000 1.0
C      1  0.4266930000000  0.4163780000000  0.4644680000000 1.0
C      1  0.5040400000000  0.3634500000000  0.4736700000000 1.0
C      1  0.5758580000000  0.5677030000000  0.4447260000000 1.0
C      1  0.4026330000000  0.5269800000000  0.4309770000000 1.0
C      1  0.5175900000000  0.5764070000000  0.5185000000000 1.0
C      1  0.5364350000000  0.4377080000000  0.5807500000000 1.0
C      1  0.5196620000000  0.4560630000000  0.4429110000000 1.0
C      1  0.4634980000000  0.3925530000000  0.5184810000000 1.0
C      1  0.6146720000000  0.4106480000000  0.4951700000000 1.0
C      1  0.4377750000000  0.5177420000000  0.3999890000000 1.0
C      1  0.4098710000000  0.5240230000000  0.5549380000000 1.0
C      1  0.4850000000000  0.6032240000000  0.4620480000000 1.0
C      1  0.5342790000000  0.4921820000000  0.4171000000000 1.0
C      1  0.4132690000000  0.4509910000000  0.5075910000000 1.0
C      1  0.5343550000000  0.5438950000000  0.3807680000000 1.0
C      1  0.5449280000000  0.4562430000000  0.4903930000000 1.0
C      1  0.5777720000000  0.4596590000000  0.5840200000000 1.0
C      1  0.4360480000000  0.4712550000000  0.5710850000000 1.0
C      1  0.5647820000000  0.5864310000000  0.5391180000000 1.0
C      1  0.5567530000000  0.4772490000000  0.4316840000000 1.0
C      1  0.5502480000000  0.4590670000000  0.5923110000000 1.0
C      1  0.5564080000000  0.5405620000000  0.5185240000000 1.0
C      1  0.6038630000000  0.5244220000000  0.5680410000000 1.0
C      1  0.6161920000000  0.4399720000000  0.5617050000000 1.0
C      1  0.5081100000000  0.5261040000000  0.5579310000000 1.0
C      1  0.4090400000000  0.5341260000000  0.4896410000000 1.0
C      1  0.5927180000000  0.5040440000000  0.5541850000000 1.0
C      1  0.4854120000000  0.5460610000000  0.5472240000000 1.0
C      1  0.5898010000000  0.5793570000000  0.4671170000000 1.0
C      1  0.4777210000000  0.5889160000000  0.4837070000000 1.0
C      1  0.5514280000000  0.5047880000000  0.6137510000000 1.0
C      1  0.5134720000000  0.5180990000000  0.5022650000000 1.0
C      1  0.5557520000000  0.4790360000000  0.5283460000000 1.0
C      1  0.6108640000000  0.5970250000000  0.4619670000000 1.0
C      1  0.4173060000000  0.4793020000000  0.4196450000000 1.0
C      1  0.5259710000000  0.5846260000000  0.4447480000000 1.0
C      1  0.4618140000000  0.5192800000000  0.4180150000000 1.0
C      1  0.4613550000000  0.4796470000000  0.3934410000000 1.0
C      1  0.5476630000000  0.4525060000000  0.4444170000000 1.0
C      1  0.4069760000000  0.4376550000000  0.4622760000000 1.0
C      1  0.5382850000000  0.3990420000000  0.5265060000000 1.0
C      1  0.3813750000000  0.4806850000000  0.5277410000000 1.0
C      1  0.4284880000000  0.5078320000000  0.5405770000000 1.0
C      1  0.5376700000000  0.5313360000000  0.6140330000000 1.0
C      1  0.4446240000000  0.5209510000000  0.5210820000000 1.0
C      1  0.6078310000000  0.4207200000000  0.5200750000000 1.0
C      1  0.4956060000000  0.4791970000000  0.5528760000000 1.0
C      1  0.4060410000000  0.4667250000000  0.5300730000000 1.0
C      1  0.5080190000000  0.4829240000000  0.4064920000000 1.0
C      1  0.4555790000000  0.5637970000000  0.4374420000000 1.0
C      1  0.4789800000000  0.4183760000000  0.4566720000000 1.0
C      1  0.4073030000000  0.5525210000000  0.4429420000000 1.0
C      1  0.4032420000000  0.5495610000000  0.5966450000000 1.0
C      1  0.4288410000000  0.5709830000000  0.4505740000000 1.0
C      1  0.4485900000000  0.4722970000000  0.4516360000000 1.0
C      1  0.5563930000000  0.5528700000000  0.6082570000000 1.0
C      1  0.5564860000000  0.4135010000000  0.4826190000000 1.0
END
