TITL C-627113-6568-261 4.56435408789472e-06 125000 -230.058936511151 0 0 39 (C1) n - 1
REM
REM in /home/nfs/bkarasulu/CARBON/AIRSS/Generating-Clusters/LCBOP/Only-C1/SD-CG/FIRE-CG
REM
REM
REM
REM
REM
REM ./C.cell (11c1c37f851c82e70ff6c80c92926a4b)
REM AIRSS Version 0.9.1 bugfix July 2018 build 013d7b7c2542+ Fri, 06 Jul 2018 19:26:36 +0100
REM compiler GCC version 9.2.1 20190827 (Red Hat 9.2.1-1)
REM options -cpp -mtune=generic -march=x86-64 -g -O0 -fpre-include=/usr/include/finclude/math-vector-fortran.h
REM seed 1907700759 -1987288506 -1198350226 1649014883 1580646196 -190031011 1742356326 1610051853 -742424281 1700148346 -1797381045 474208025 844276783 1597893813 -1862328833 2099155644 -860643898 598029745 186924632 1189930965 -145032513 1135343409 2080300818 949531487 -2095922615 964732676 846912628 1973407292 -1264080813 528897894 265339691 1424116141 -209995885
REM
CELL 1.54180   50.00000   50.00000   50.00000   90.00000   90.00000   90.00000
LATT -1
SFAC C  
C      1  0.5555590000000  0.4974580000000  0.4509070000000 1.0
C      1  0.5629730000000  0.5021090000000  0.4242690000000 1.0
C      1  0.4985790000000  0.5003880000000  0.4359610000000 1.0
C      1  0.4938400000000  0.4939020000000  0.5145760000000 1.0
C      1  0.4475930000000  0.4783290000000  0.4888240000000 1.0
C      1  0.5319830000000  0.5208450000000  0.5140800000000 1.0
C      1  0.5765090000000  0.5383410000000  0.4685130000000 1.0
C      1  0.5620290000000  0.5155370000000  0.4723120000000 1.0
C      1  0.4654000000000  0.4646270000000  0.4719420000000 1.0
C      1  0.5089580000000  0.4767770000000  0.4481770000000 1.0
C      1  0.5510010000000  0.5064570000000  0.4006470000000 1.0
C      1  0.5368440000000  0.4767700000000  0.4571850000000 1.0
C      1  0.5521890000000  0.5078860000000  0.4978460000000 1.0
C      1  0.5250540000000  0.5077280000000  0.3936630000000 1.0
C      1  0.4962670000000  0.5278950000000  0.4795840000000 1.0
C      1  0.4273600000000  0.5088000000000  0.5992480000000 1.0
C      1  0.4463720000000  0.4757460000000  0.5181940000000 1.0
C      1  0.5054580000000  0.5174240000000  0.5038380000000 1.0
C      1  0.4855340000000  0.5185380000000  0.5569170000000 1.0
C      1  0.4385120000000  0.5055660000000  0.4845660000000 1.0
C      1  0.4997020000000  0.4675230000000  0.5137640000000 1.0
C      1  0.5564120000000  0.4740760000000  0.5309950000000 1.0
C      1  0.4465330000000  0.5026230000000  0.5299410000000 1.0
C      1  0.5028720000000  0.5050190000000  0.4086220000000 1.0
C      1  0.4313730000000  0.5471810000000  0.5116550000000 1.0
C      1  0.4427490000000  0.5097400000000  0.5777040000000 1.0
C      1  0.5104360000000  0.4563840000000  0.4901480000000 1.0
C      1  0.4435760000000  0.4524080000000  0.5319140000000 1.0
C      1  0.4381090000000  0.5210730000000  0.5089320000000 1.0
C      1  0.5481740000000  0.4924570000000  0.5494550000000 1.0
C      1  0.5530720000000  0.4791080000000  0.5032830000000 1.0
C      1  0.4584990000000  0.5103090000000  0.5545720000000 1.0
C      1  0.4921960000000  0.5211730000000  0.4539490000000 1.0
C      1  0.5194810000000  0.5441220000000  0.5796510000000 1.0
C      1  0.5330910000000  0.5158140000000  0.5428690000000 1.0
C      1  0.5378900000000  0.4644890000000  0.4839650000000 1.0
C      1  0.5126840000000  0.5262620000000  0.5600130000000 1.0
C      1  0.4121490000000  0.5078260000000  0.6203980000000 1.0
C      1  0.4929880000000  0.4612930000000  0.4669190000000 1.0
END
