TITL C-627113-6568-350 -1.35539355600095e-06 125000 -556.320531856244 0 0 93 (C1) n - 1
REM
REM in /home/nfs/bkarasulu/CARBON/AIRSS/Generating-Clusters/LCBOP/Only-C1/SD-CG/FIRE-CG
REM
REM
REM
REM
REM
REM ./C.cell (11c1c37f851c82e70ff6c80c92926a4b)
REM AIRSS Version 0.9.1 bugfix July 2018 build 013d7b7c2542+ Fri, 06 Jul 2018 19:26:36 +0100
REM compiler GCC version 9.2.1 20190827 (Red Hat 9.2.1-1)
REM options -cpp -mtune=generic -march=x86-64 -g -O0 -fpre-include=/usr/include/finclude/math-vector-fortran.h
REM seed 555726694 1904504069 -1349990707 -917517875 -1799166707 -960570133 -63896231 -637189336 -654885517 -1547898134 -875285247 1907765783 -1581759681 1289007876 -1322613916 -965235703 1522111228 1362124033 174325225 95748184 -1912481514 -1024140545 1147948127 1467298229 -1507495322 -1240111339 1795735356 -1174324332 1980605262 -2074132776 66810158 -1527578122 1413300445
REM
CELL 1.54180   50.00000   50.00000   50.00000   90.00000   90.00000   90.00000
LATT -1
SFAC C  
C      1  0.5001800000000  0.4794150000000  0.5419530000000 1.0
C      1  0.5171660000000  0.4687530000000  0.4398760000000 1.0
C      1  0.5679710000000  0.5580640000000  0.4740530000000 1.0
C      1  0.5140400000000  0.5171890000000  0.3982790000000 1.0
C      1  0.5371620000000  0.4144430000000  0.4534100000000 1.0
C      1  0.5363800000000  0.4882430000000  0.4304050000000 1.0
C      1  0.5620820000000  0.4438780000000  0.5104360000000 1.0
C      1  0.4607950000000  0.4916320000000  0.4953830000000 1.0
C      1  0.4353050000000  0.4345710000000  0.5542530000000 1.0
C      1  0.5843040000000  0.5051630000000  0.5253850000000 1.0
C      1  0.5261360000000  0.4986560000000  0.5086190000000 1.0
C      1  0.4926030000000  0.4177220000000  0.4915500000000 1.0
C      1  0.5719070000000  0.5377840000000  0.5927900000000 1.0
C      1  0.4478370000000  0.4284810000000  0.4723030000000 1.0
C      1  0.5581490000000  0.5440930000000  0.5422580000000 1.0
C      1  0.4970560000000  0.5570760000000  0.5156900000000 1.0
C      1  0.4139300000000  0.3902760000000  0.5400370000000 1.0
C      1  0.5467710000000  0.4894960000000  0.5938590000000 1.0
C      1  0.4584440000000  0.4706900000000  0.4557080000000 1.0
C      1  0.5149720000000  0.4646700000000  0.5613640000000 1.0
C      1  0.4915140000000  0.4261090000000  0.4429270000000 1.0
C      1  0.4619340000000  0.5681340000000  0.4905250000000 1.0
C      1  0.5394220000000  0.4293050000000  0.5135560000000 1.0
C      1  0.5264990000000  0.5753900000000  0.4520820000000 1.0
C      1  0.5148210000000  0.4198970000000  0.5069720000000 1.0
C      1  0.4496710000000  0.4845440000000  0.4332010000000 1.0
C      1  0.5401160000000  0.4379260000000  0.4668170000000 1.0
C      1  0.5983030000000  0.5624370000000  0.6328800000000 1.0
C      1  0.5787260000000  0.5354710000000  0.4891050000000 1.0
C      1  0.5227370000000  0.5167310000000  0.4863760000000 1.0
C      1  0.5634520000000  0.4939570000000  0.5408660000000 1.0
C      1  0.4420150000000  0.5462150000000  0.5513840000000 1.0
C      1  0.5855880000000  0.5505190000000  0.6135020000000 1.0
C      1  0.5068550000000  0.5786270000000  0.4726900000000 1.0
C      1  0.5221460000000  0.4600130000000  0.4671470000000 1.0
C      1  0.5812780000000  0.4975620000000  0.4537900000000 1.0
C      1  0.5029340000000  0.5184280000000  0.4655300000000 1.0
C      1  0.5043120000000  0.5298950000000  0.5563190000000 1.0
C      1  0.5634220000000  0.4850340000000  0.4382940000000 1.0
C      1  0.4785340000000  0.5842750000000  0.4724240000000 1.0
C      1  0.4293050000000  0.5320190000000  0.4695970000000 1.0
C      1  0.4441900000000  0.4860420000000  0.5424640000000 1.0
C      1  0.4971190000000  0.4509690000000  0.4279210000000 1.0
C      1  0.4711310000000  0.5697490000000  0.5189950000000 1.0
C      1  0.4407810000000  0.5235800000000  0.5711240000000 1.0
C      1  0.4393430000000  0.4560440000000  0.4731920000000 1.0
C      1  0.4570740000000  0.5388430000000  0.4797040000000 1.0
C      1  0.5599910000000  0.5125190000000  0.5970620000000 1.0
C      1  0.5316570000000  0.4711590000000  0.5814800000000 1.0
C      1  0.4168290000000  0.3894340000000  0.4900280000000 1.0
C      1  0.5856850000000  0.5085720000000  0.4790270000000 1.0
C      1  0.4106320000000  0.3820230000000  0.5148780000000 1.0
C      1  0.4148040000000  0.4956700000000  0.5049190000000 1.0
C      1  0.5764490000000  0.5337860000000  0.5198180000000 1.0
C      1  0.4606140000000  0.5031680000000  0.5603600000000 1.0
C      1  0.5698840000000  0.5501320000000  0.5674200000000 1.0
C      1  0.5457890000000  0.5363560000000  0.4318050000000 1.0
C      1  0.4889740000000  0.5541390000000  0.5626190000000 1.0
C      1  0.4886060000000  0.5042570000000  0.5540250000000 1.0
C      1  0.4427540000000  0.4584700000000  0.5454890000000 1.0
C      1  0.4888740000000  0.5292880000000  0.5142790000000 1.0
C      1  0.4110050000000  0.5177970000000  0.4866130000000 1.0
C      1  0.4300010000000  0.4072610000000  0.4753370000000 1.0
C      1  0.4863900000000  0.4777730000000  0.3853980000000 1.0
C      1  0.4131490000000  0.5108790000000  0.5646960000000 1.0
C      1  0.5646160000000  0.5817070000000  0.4905290000000 1.0
C      1  0.4344940000000  0.4769220000000  0.4946100000000 1.0
C      1  0.4966450000000  0.5700950000000  0.5836360000000 1.0
C      1  0.4194410000000  0.5044630000000  0.5341370000000 1.0
C      1  0.4271310000000  0.5275410000000  0.4417120000000 1.0
C      1  0.5493320000000  0.5573380000000  0.4506200000000 1.0
C      1  0.4798630000000  0.5319170000000  0.4592230000000 1.0
C      1  0.4652030000000  0.5615210000000  0.5465290000000 1.0
C      1  0.5019430000000  0.4681560000000  0.4861730000000 1.0
C      1  0.4675810000000  0.6035500000000  0.4564320000000 1.0
C      1  0.5315310000000  0.5146840000000  0.4200010000000 1.0
C      1  0.4275590000000  0.5346030000000  0.5287040000000 1.0
C      1  0.4763410000000  0.4233850000000  0.4682480000000 1.0
C      1  0.4240490000000  0.4105050000000  0.5541060000000 1.0
C      1  0.5319240000000  0.5297570000000  0.5453600000000 1.0
C      1  0.4659390000000  0.5188930000000  0.5011550000000 1.0
C      1  0.4778110000000  0.4784890000000  0.4757710000000 1.0
C      1  0.5184020000000  0.5680580000000  0.4989270000000 1.0
C      1  0.4867890000000  0.4573150000000  0.4026710000000 1.0
C      1  0.4363060000000  0.5069460000000  0.4270220000000 1.0
C      1  0.5136610000000  0.4078070000000  0.4413040000000 1.0
C      1  0.5385800000000  0.5046060000000  0.5331700000000 1.0
C      1  0.5416250000000  0.5859170000000  0.5051620000000 1.0
C      1  0.5325870000000  0.5422100000000  0.4920780000000 1.0
C      1  0.4968590000000  0.5023970000000  0.3840500000000 1.0
C      1  0.5074190000000  0.4774370000000  0.5129950000000 1.0
C      1  0.5794510000000  0.4630090000000  0.5022420000000 1.0
C      1  0.5884190000000  0.4900810000000  0.5011860000000 1.0
END
