TITL C-627108-131-659 -1.94148791515275e-07 125000 -785.144884507024 0 0 128 (C1) n - 1
REM
REM in /home/nfs/bkarasulu/CARBON/AIRSS/Generating-Clusters/LCBOP/Only-C1/SD-CG/FIRE-CG
REM
REM
REM
REM
REM
REM ./C.cell (11c1c37f851c82e70ff6c80c92926a4b)
REM AIRSS Version 0.9.1 bugfix July 2018 build 013d7b7c2542+ Fri, 06 Jul 2018 19:26:36 +0100
REM compiler GCC version 9.2.1 20190827 (Red Hat 9.2.1-1)
REM options -cpp -mtune=generic -march=x86-64 -g -O0 -fpre-include=/usr/include/finclude/math-vector-fortran.h
REM seed -518225064 -113328651 1613120641 1276352243 -1938867254 -1613934153 -1518107752 -190952001 1622918909 -298535446 1784229056 -1816148757 1937402641 -1927788868 1961749601 -726605324 -460156050 734864197 -225241287 618961792 1444888965 40757080 936213380 1627172787 -332375546 1444610809 -557518808 -1885273677 698843926 64119432 -2058970895 1155477835 1394573606
REM
CELL 1.54180   50.00000   50.00000   50.00000   90.00000   90.00000   90.00000
LATT -1
SFAC C  
C      1  0.4853080000000  0.5001070000000  0.4495330000000 1.0
C      1  0.4550630000000  0.4533990000000  0.5384920000000 1.0
C      1  0.5612860000000  0.4769850000000  0.5142410000000 1.0
C      1  0.4442520000000  0.4501030000000  0.5642970000000 1.0
C      1  0.4550720000000  0.5769930000000  0.5745940000000 1.0
C      1  0.4422610000000  0.5401890000000  0.5368240000000 1.0
C      1  0.5349260000000  0.4696770000000  0.5201810000000 1.0
C      1  0.5451240000000  0.4052620000000  0.4732840000000 1.0
C      1  0.4350880000000  0.4991430000000  0.4257610000000 1.0
C      1  0.5731740000000  0.4623450000000  0.5908980000000 1.0
C      1  0.5682180000000  0.5248810000000  0.5086310000000 1.0
C      1  0.5948440000000  0.4735670000000  0.4741420000000 1.0
C      1  0.4988510000000  0.5833160000000  0.5575120000000 1.0
C      1  0.4890840000000  0.6005890000000  0.4405210000000 1.0
C      1  0.5821520000000  0.5260130000000  0.5541330000000 1.0
C      1  0.4772740000000  0.5964880000000  0.5391730000000 1.0
C      1  0.4974680000000  0.4423090000000  0.4693610000000 1.0
C      1  0.5264610000000  0.5730980000000  0.5575810000000 1.0
C      1  0.4075840000000  0.4818300000000  0.5532970000000 1.0
C      1  0.4051490000000  0.4900730000000  0.5245650000000 1.0
C      1  0.5505170000000  0.5701360000000  0.5006410000000 1.0
C      1  0.4194040000000  0.5272700000000  0.5477480000000 1.0
C      1  0.5319800000000  0.4900310000000  0.4551140000000 1.0
C      1  0.4457740000000  0.5921080000000  0.4669320000000 1.0
C      1  0.5252880000000  0.4476010000000  0.4775470000000 1.0
C      1  0.4361390000000  0.4965140000000  0.4832970000000 1.0
C      1  0.4803660000000  0.5267990000000  0.3963640000000 1.0
C      1  0.5127190000000  0.4389120000000  0.5806100000000 1.0
C      1  0.4589010000000  0.4124070000000  0.5162040000000 1.0
C      1  0.5284430000000  0.4227730000000  0.5202480000000 1.0
C      1  0.5325390000000  0.5341150000000  0.4733140000000 1.0
C      1  0.4961830000000  0.4193850000000  0.4516640000000 1.0
C      1  0.4251700000000  0.4499230000000  0.5028220000000 1.0
C      1  0.4961000000000  0.4497250000000  0.4109730000000 1.0
C      1  0.4176180000000  0.4766690000000  0.4304370000000 1.0
C      1  0.4185170000000  0.5233970000000  0.4770980000000 1.0
C      1  0.5332670000000  0.5760200000000  0.4323600000000 1.0
C      1  0.5104570000000  0.4000430000000  0.5213220000000 1.0
C      1  0.5669570000000  0.4991410000000  0.4973720000000 1.0
C      1  0.5942370000000  0.4529810000000  0.6030550000000 1.0
C      1  0.5392680000000  0.5511010000000  0.5721550000000 1.0
C      1  0.5592430000000  0.4533080000000  0.4163450000000 1.0
C      1  0.4637140000000  0.4505980000000  0.5846800000000 1.0
C      1  0.5179590000000  0.3792880000000  0.5028320000000 1.0
C      1  0.4690320000000  0.4762290000000  0.5947160000000 1.0
C      1  0.4829860000000  0.3723510000000  0.4518370000000 1.0
C      1  0.4337980000000  0.4557600000000  0.4438590000000 1.0
C      1  0.5041190000000  0.5589120000000  0.5085760000000 1.0
C      1  0.5719500000000  0.5148190000000  0.4527760000000 1.0
C      1  0.4596010000000  0.4942210000000  0.4411680000000 1.0
C      1  0.4083750000000  0.5366060000000  0.5016960000000 1.0
C      1  0.4931760000000  0.5471420000000  0.5908130000000 1.0
C      1  0.4826670000000  0.4030770000000  0.5245730000000 1.0
C      1  0.4852070000000  0.5163650000000  0.4740030000000 1.0
C      1  0.5903610000000  0.5209860000000  0.5274160000000 1.0
C      1  0.5119870000000  0.4790460000000  0.5074790000000 1.0
C      1  0.4712500000000  0.4752410000000  0.5310810000000 1.0
C      1  0.5322300000000  0.4531850000000  0.5657090000000 1.0
C      1  0.5685420000000  0.4392400000000  0.4401820000000 1.0
C      1  0.5600970000000  0.4134840000000  0.4501530000000 1.0
C      1  0.4846100000000  0.4724890000000  0.5056130000000 1.0
C      1  0.5003390000000  0.3920700000000  0.4594180000000 1.0
C      1  0.5250140000000  0.5028540000000  0.5483600000000 1.0
C      1  0.4721000000000  0.5037200000000  0.3854400000000 1.0
C      1  0.5040550000000  0.5374350000000  0.4671990000000 1.0
C      1  0.5017810000000  0.5050200000000  0.6115550000000 1.0
C      1  0.5808140000000  0.4605380000000  0.5262040000000 1.0
C      1  0.4582370000000  0.5261940000000  0.5176520000000 1.0
C      1  0.4237080000000  0.5458420000000  0.4326360000000 1.0
C      1  0.4824760000000  0.5700510000000  0.5787250000000 1.0
C      1  0.5136800000000  0.4713650000000  0.4163760000000 1.0
C      1  0.5481260000000  0.5025900000000  0.4024750000000 1.0
C      1  0.5146870000000  0.5966960000000  0.4784310000000 1.0
C      1  0.5377020000000  0.4264500000000  0.4923300000000 1.0
C      1  0.4876970000000  0.4807630000000  0.6160340000000 1.0
C      1  0.5826650000000  0.4993070000000  0.4728240000000 1.0
C      1  0.4504660000000  0.4736980000000  0.4635030000000 1.0
C      1  0.4883000000000  0.6087870000000  0.4861160000000 1.0
C      1  0.5219180000000  0.5427820000000  0.5940330000000 1.0
C      1  0.4783870000000  0.5978890000000  0.5105860000000 1.0
C      1  0.5000660000000  0.4255170000000  0.4244400000000 1.0
C      1  0.5461380000000  0.5296790000000  0.4066920000000 1.0
C      1  0.4270980000000  0.5242980000000  0.4171280000000 1.0
C      1  0.5516260000000  0.5428320000000  0.4944290000000 1.0
C      1  0.4495200000000  0.4439360000000  0.4225150000000 1.0
C      1  0.4365590000000  0.5679780000000  0.5295860000000 1.0
C      1  0.6129650000000  0.4791560000000  0.4974280000000 1.0
C      1  0.5471350000000  0.5028460000000  0.5846310000000 1.0
C      1  0.5419280000000  0.5545630000000  0.4175370000000 1.0
C      1  0.5161310000000  0.5923010000000  0.4488210000000 1.0
C      1  0.4502210000000  0.5860900000000  0.5474390000000 1.0
C      1  0.4142920000000  0.5068250000000  0.5665980000000 1.0
C      1  0.4688890000000  0.4552090000000  0.4043350000000 1.0
C      1  0.4785820000000  0.5695210000000  0.5041100000000 1.0
C      1  0.4214420000000  0.5644480000000  0.5043030000000 1.0
C      1  0.5583840000000  0.5274250000000  0.5697660000000 1.0
C      1  0.4250950000000  0.5469180000000  0.4604080000000 1.0
C      1  0.5011710000000  0.5133280000000  0.5407730000000 1.0
C      1  0.5233840000000  0.3862800000000  0.4756030000000 1.0
C      1  0.6100740000000  0.5005800000000  0.5165520000000 1.0
C      1  0.4448200000000  0.4365270000000  0.5180450000000 1.0
C      1  0.4301630000000  0.5705840000000  0.4766790000000 1.0
C      1  0.4172880000000  0.4583990000000  0.5654320000000 1.0
C      1  0.4872730000000  0.5427530000000  0.4167860000000 1.0
C      1  0.5950250000000  0.4410010000000  0.5360860000000 1.0
C      1  0.4823920000000  0.5207640000000  0.5939110000000 1.0
C      1  0.5413130000000  0.4746830000000  0.4077000000000 1.0
C      1  0.4706820000000  0.6049970000000  0.4625970000000 1.0
C      1  0.4957310000000  0.5480260000000  0.4417960000000 1.0
C      1  0.4784850000000  0.4972680000000  0.5489960000000 1.0
C      1  0.5717220000000  0.5862720000000  0.5079520000000 1.0
C      1  0.5084520000000  0.4873190000000  0.4396350000000 1.0
C      1  0.4706520000000  0.4997650000000  0.5767780000000 1.0
C      1  0.5724410000000  0.4576790000000  0.4623610000000 1.0
C      1  0.4651880000000  0.4778120000000  0.3877570000000 1.0
C      1  0.5919650000000  0.6004600000000  0.5161940000000 1.0
C      1  0.5041860000000  0.5362170000000  0.5248260000000 1.0
C      1  0.5319910000000  0.4466300000000  0.5370790000000 1.0
C      1  0.5273760000000  0.5148410000000  0.6028280000000 1.0
C      1  0.4196030000000  0.4780620000000  0.5027130000000 1.0
C      1  0.4865860000000  0.4339640000000  0.5847320000000 1.0
C      1  0.5497570000000  0.4736120000000  0.5794760000000 1.0
C      1  0.4629450000000  0.5128130000000  0.4929700000000 1.0
C      1  0.4037230000000  0.5195210000000  0.5237420000000 1.0
C      1  0.5238890000000  0.5778190000000  0.4979890000000 1.0
C      1  0.4763120000000  0.4604020000000  0.4798060000000 1.0
C      1  0.5441220000000  0.5154100000000  0.4554260000000 1.0
C      1  0.5436780000000  0.4668490000000  0.4669150000000 1.0
END
