TITL C-627111-6168-1704 9.13641148222501e-07 125000 -702.033058588338 0 0 116 (C1) n - 1
REM
REM in /home/nfs/bkarasulu/CARBON/AIRSS/Generating-Clusters/LCBOP/Only-C1/SD-CG/FIRE-CG
REM
REM
REM
REM
REM
REM ./C.cell (11c1c37f851c82e70ff6c80c92926a4b)
REM AIRSS Version 0.9.1 bugfix July 2018 build 013d7b7c2542+ Fri, 06 Jul 2018 19:26:36 +0100
REM compiler GCC version 9.2.1 20190827 (Red Hat 9.2.1-1)
REM options -cpp -mtune=generic -march=x86-64 -g -O0 -fpre-include=/usr/include/finclude/math-vector-fortran.h
REM seed -1179599841 -1815283034 1514163203 -679572873 -649774870 -1471783556 -1409836375 -1523406014 -1022411056 -494426446 413723266 -1779437537 -1709312231 1275835548 -861398844 -211885237 717250089 -876034764 123580649 1422047327 -1565690225 296091803 -1613061802 -146240453 -313330265 -939851248 347084612 2027316812 1375652261 786399607 699757349 -205210032 -276854320
REM
CELL 1.54180   50.00000   50.00000   50.00000   90.00000   90.00000   90.00000
LATT -1
SFAC C  
C      1  0.5360360000000  0.5450180000000  0.5221120000000 1.0
C      1  0.5804730000000  0.5428430000000  0.4864190000000 1.0
C      1  0.4705540000000  0.5584840000000  0.5658050000000 1.0
C      1  0.5231440000000  0.4264120000000  0.5852690000000 1.0
C      1  0.4810560000000  0.4867390000000  0.4112260000000 1.0
C      1  0.4519790000000  0.5777780000000  0.5556360000000 1.0
C      1  0.4790170000000  0.4425190000000  0.5963070000000 1.0
C      1  0.5198690000000  0.5968230000000  0.5196550000000 1.0
C      1  0.5285820000000  0.4286760000000  0.4352880000000 1.0
C      1  0.5410200000000  0.4355690000000  0.5676840000000 1.0
C      1  0.5699110000000  0.5161680000000  0.4874730000000 1.0
C      1  0.5835320000000  0.4842800000000  0.5326480000000 1.0
C      1  0.3941720000000  0.5104310000000  0.4558540000000 1.0
C      1  0.4192040000000  0.5722910000000  0.4762820000000 1.0
C      1  0.5711910000000  0.5836920000000  0.5163120000000 1.0
C      1  0.5041050000000  0.5934010000000  0.4957420000000 1.0
C      1  0.5062540000000  0.5889480000000  0.5440730000000 1.0
C      1  0.4597800000000  0.5305070000000  0.5705340000000 1.0
C      1  0.3402900000000  0.4290430000000  0.4700520000000 1.0
C      1  0.6297860000000  0.4488100000000  0.4851480000000 1.0
C      1  0.5095130000000  0.4390500000000  0.4814820000000 1.0
C      1  0.4551580000000  0.5887560000000  0.5053330000000 1.0
C      1  0.5542980000000  0.4230630000000  0.4455650000000 1.0
C      1  0.5566370000000  0.4268170000000  0.4953240000000 1.0
C      1  0.4824610000000  0.5497360000000  0.4993620000000 1.0
C      1  0.4524810000000  0.4207020000000  0.5082640000000 1.0
C      1  0.5469990000000  0.4245350000000  0.5216160000000 1.0
C      1  0.5279890000000  0.5392800000000  0.4956150000000 1.0
C      1  0.5138050000000  0.4451000000000  0.4540640000000 1.0
C      1  0.5120760000000  0.4908420000000  0.4491870000000 1.0
C      1  0.4712130000000  0.5135530000000  0.5900990000000 1.0
C      1  0.4099060000000  0.5597260000000  0.4528930000000 1.0
C      1  0.4811010000000  0.5778690000000  0.5011010000000 1.0
C      1  0.5672320000000  0.5469340000000  0.5592380000000 1.0
C      1  0.4752460000000  0.5146900000000  0.4079470000000 1.0
C      1  0.5070540000000  0.5645120000000  0.4559490000000 1.0
C      1  0.5607160000000  0.4872080000000  0.5488460000000 1.0
C      1  0.5756880000000  0.5562990000000  0.4611290000000 1.0
C      1  0.4284770000000  0.4351050000000  0.5910440000000 1.0
C      1  0.5976160000000  0.4725620000000  0.5131490000000 1.0
C      1  0.4486660000000  0.5184810000000  0.4952470000000 1.0
C      1  0.4664940000000  0.5240590000000  0.4538990000000 1.0
C      1  0.5107170000000  0.4871880000000  0.5343960000000 1.0
C      1  0.4495900000000  0.5291850000000  0.5234430000000 1.0
C      1  0.5521920000000  0.5720290000000  0.4627740000000 1.0
C      1  0.4913870000000  0.4664670000000  0.3938760000000 1.0
C      1  0.5864690000000  0.5169550000000  0.4300200000000 1.0
C      1  0.4665650000000  0.5360340000000  0.4794710000000 1.0
C      1  0.4922670000000  0.4964630000000  0.5983150000000 1.0
C      1  0.5426670000000  0.4948470000000  0.5960860000000 1.0
C      1  0.5729960000000  0.4787420000000  0.4575680000000 1.0
C      1  0.5367760000000  0.4742770000000  0.5398350000000 1.0
C      1  0.5235050000000  0.5331280000000  0.4233520000000 1.0
C      1  0.4427510000000  0.5782910000000  0.5291870000000 1.0
C      1  0.5836290000000  0.5612870000000  0.5076860000000 1.0
C      1  0.3759500000000  0.4676470000000  0.4710160000000 1.0
C      1  0.4275110000000  0.4439600000000  0.5417670000000 1.0
C      1  0.5194380000000  0.5357170000000  0.5923120000000 1.0
C      1  0.3579510000000  0.4482150000000  0.4704770000000 1.0
C      1  0.5481280000000  0.5972990000000  0.5190690000000 1.0
C      1  0.5081850000000  0.5950200000000  0.4641560000000 1.0
C      1  0.4430190000000  0.5174170000000  0.5500630000000 1.0
C      1  0.4406910000000  0.5914960000000  0.4799490000000 1.0
C      1  0.4525500000000  0.4358350000000  0.6025580000000 1.0
C      1  0.4864160000000  0.4502970000000  0.4442270000000 1.0
C      1  0.4783230000000  0.4091430000000  0.5074770000000 1.0
C      1  0.5201180000000  0.5504910000000  0.5686590000000 1.0
C      1  0.3953120000000  0.4876060000000  0.4725140000000 1.0
C      1  0.4231380000000  0.4977250000000  0.5433940000000 1.0
C      1  0.4819590000000  0.4230510000000  0.4337010000000 1.0
C      1  0.4304750000000  0.5535470000000  0.5211700000000 1.0
C      1  0.5014650000000  0.5485860000000  0.4329400000000 1.0
C      1  0.5387140000000  0.5981680000000  0.4594850000000 1.0
C      1  0.4819290000000  0.4064410000000  0.4577460000000 1.0
C      1  0.4188660000000  0.4390270000000  0.5664540000000 1.0
C      1  0.4425970000000  0.4942600000000  0.4808420000000 1.0
C      1  0.4926400000000  0.4153070000000  0.4837730000000 1.0
C      1  0.4694270000000  0.4627820000000  0.5218610000000 1.0
C      1  0.5182400000000  0.5083890000000  0.5990330000000 1.0
C      1  0.5845220000000  0.5422900000000  0.4384830000000 1.0
C      1  0.4771280000000  0.5337110000000  0.4296480000000 1.0
C      1  0.6040940000000  0.4588030000000  0.4893110000000 1.0
C      1  0.5849800000000  0.4727480000000  0.4109680000000 1.0
C      1  0.5608670000000  0.4925430000000  0.5764560000000 1.0
C      1  0.4879430000000  0.4024980000000  0.5331830000000 1.0
C      1  0.4806020000000  0.5334320000000  0.5239750000000 1.0
C      1  0.4983610000000  0.5669970000000  0.5611500000000 1.0
C      1  0.4564160000000  0.6041320000000  0.4597500000000 1.0
C      1  0.4124080000000  0.5576080000000  0.5000090000000 1.0
C      1  0.4608890000000  0.4948820000000  0.4570210000000 1.0
C      1  0.5561490000000  0.4937150000000  0.4750940000000 1.0
C      1  0.4828660000000  0.6076900000000  0.4539710000000 1.0
C      1  0.5064690000000  0.4224120000000  0.4153800000000 1.0
C      1  0.5260920000000  0.5071050000000  0.4304170000000 1.0
C      1  0.6536610000000  0.4393150000000  0.4807960000000 1.0
C      1  0.5447530000000  0.3984530000000  0.5306790000000 1.0
C      1  0.5170230000000  0.5139930000000  0.4911960000000 1.0
C      1  0.4984390000000  0.5135280000000  0.5356990000000 1.0
C      1  0.5298210000000  0.5550630000000  0.4723110000000 1.0
C      1  0.4824840000000  0.4795100000000  0.4412110000000 1.0
C      1  0.4953390000000  0.4241250000000  0.5818550000000 1.0
C      1  0.4873610000000  0.4090180000000  0.5592840000000 1.0
C      1  0.4137880000000  0.4878370000000  0.5195140000000 1.0
C      1  0.4879660000000  0.4688630000000  0.6010680000000 1.0
C      1  0.5838780000000  0.4553490000000  0.4692970000000 1.0
C      1  0.5816750000000  0.4892700000000  0.4325320000000 1.0
C      1  0.4000610000000  0.5352280000000  0.4476790000000 1.0
C      1  0.5414710000000  0.5471310000000  0.5498510000000 1.0
C      1  0.5111900000000  0.4647670000000  0.4934870000000 1.0
C      1  0.4958440000000  0.4706000000000  0.5165180000000 1.0
C      1  0.4171020000000  0.4855470000000  0.4908200000000 1.0
C      1  0.5668810000000  0.4324890000000  0.4696350000000 1.0
C      1  0.5406660000000  0.4451600000000  0.5409170000000 1.0
C      1  0.5246860000000  0.4885920000000  0.4773410000000 1.0
C      1  0.4480060000000  0.4443490000000  0.5228560000000 1.0
C      1  0.5027820000000  0.4416150000000  0.3941190000000 1.0
END
