TITL C-627111-6168-1823 5.15036562835658 125000 -261.596640631398 0 0 44 (C1) n - 1
REM
REM in /home/nfs/bkarasulu/CARBON/AIRSS/Generating-Clusters/LCBOP/Only-C1/SD-CG/FIRE-CG
REM
REM
REM
REM
REM
REM ./C.cell (11c1c37f851c82e70ff6c80c92926a4b)
REM AIRSS Version 0.9.1 bugfix July 2018 build 013d7b7c2542+ Fri, 06 Jul 2018 19:26:36 +0100
REM compiler GCC version 9.2.1 20190827 (Red Hat 9.2.1-1)
REM options -cpp -mtune=generic -march=x86-64 -g -O0 -fpre-include=/usr/include/finclude/math-vector-fortran.h
REM seed 2142899861 1064132981 1965501984 1127662843 1767855814 113788709 1092065022 -1906007997 -1694279187 -1979290555 -158183899 1317706094 -662550253 -1196141567 1315716418 794034767 1696209128 571928144 821737776 -1548092083 -162670322 -708828763 1157783430 -818536511 864015151 -522278192 1836630536 430077880 -1567214489 1294948026 1656052705 1111309657 -465055976
REM
CELL 1.54180   50.00000   50.00000   50.00000   90.00000   90.00000   90.00000
LATT -1
SFAC C  
C      1  0.4977600000000  0.5656550000000  0.4576820000000 1.0
C      1  0.5140610000000  0.5428530000000  0.4579370000000 1.0
C      1  0.5300440000000  0.5868760000000  0.5027510000000 1.0
C      1  0.4609820000000  0.3899100000000  0.5317950000000 1.0
C      1  0.5625750000000  0.3763190000000  0.4911880000000 1.0
C      1  0.5964450000000  0.5785960000000  0.4749300000000 1.0
C      1  0.5560040000000  0.6060360000000  0.4662550000000 1.0
C      1  0.5473950000000  0.5657760000000  0.5095370000000 1.0
C      1  0.5819080000000  0.5991670000000  0.4655720000000 1.0
C      1  0.5312740000000  0.5966040000000  0.4758180000000 1.0
C      1  0.4863600000000  0.3823700000000  0.5332040000000 1.0
C      1  0.4598780000000  0.5913730000000  0.5292730000000 1.0
C      1  0.4322360000000  0.5602570000000  0.4975840000000 1.0
C      1  0.4856920000000  0.5977240000000  0.5298310000000 1.0
C      1  0.4192970000000  0.4918990000000  0.4968440000000 1.0
C      1  0.5096130000000  0.5916320000000  0.4580120000000 1.0
C      1  0.5615160000000  0.4978310000000  0.4949830000000 1.0
C      1  0.5648970000000  0.5469040000000  0.4979340000000 1.0
C      1  0.3789330000000  0.4841460000000  0.5384020000000 1.0
C      1  0.4054820000000  0.5140900000000  0.5076490000000 1.0
C      1  0.5326680000000  0.5270580000000  0.4685310000000 1.0
C      1  0.4472140000000  0.5607380000000  0.4738940000000 1.0
C      1  0.3887490000000  0.4591080000000  0.5365460000000 1.0
C      1  0.5104520000000  0.5960260000000  0.5203610000000 1.0
C      1  0.3854810000000  0.5074270000000  0.5264910000000 1.0
C      1  0.4700680000000  0.5629240000000  0.4605520000000 1.0
C      1  0.4382960000000  0.4034280000000  0.5293990000000 1.0
C      1  0.5003100000000  0.6114070000000  0.4415340000000 1.0
C      1  0.5703450000000  0.3602410000000  0.4716170000000 1.0
C      1  0.5779760000000  0.3443970000000  0.4523720000000 1.0
C      1  0.5406470000000  0.3817900000000  0.5343730000000 1.0
C      1  0.5541630000000  0.3929480000000  0.5119880000000 1.0
C      1  0.5897600000000  0.5565420000000  0.4888130000000 1.0
C      1  0.4399010000000  0.5779660000000  0.5179030000000 1.0
C      1  0.5589340000000  0.4204470000000  0.5108410000000 1.0
C      1  0.5626660000000  0.4464290000000  0.5072260000000 1.0
C      1  0.5127440000000  0.3800410000000  0.5339360000000 1.0
C      1  0.4211110000000  0.4656570000000  0.5023040000000 1.0
C      1  0.5640230000000  0.4723340000000  0.5017600000000 1.0
C      1  0.5548500000000  0.3729210000000  0.5560100000000 1.0
C      1  0.4205230000000  0.4227850000000  0.5258940000000 1.0
C      1  0.4098110000000  0.4480020000000  0.5212780000000 1.0
C      1  0.4135150000000  0.5401160000000  0.5021450000000 1.0
C      1  0.5534390000000  0.5232500000000  0.4870500000000 1.0
END
