TITL C-627108-131-902 43.622817006052 125000 -895.751933125304 0 0 142 (C1) n - 1
REM
REM in /home/nfs/bkarasulu/CARBON/AIRSS/Generating-Clusters/LCBOP/Only-C1/SD-CG/FIRE-CG
REM
REM
REM
REM
REM
REM ./C.cell (11c1c37f851c82e70ff6c80c92926a4b)
REM AIRSS Version 0.9.1 bugfix July 2018 build 013d7b7c2542+ Fri, 06 Jul 2018 19:26:36 +0100
REM compiler GCC version 9.2.1 20190827 (Red Hat 9.2.1-1)
REM options -cpp -mtune=generic -march=x86-64 -g -O0 -fpre-include=/usr/include/finclude/math-vector-fortran.h
REM seed -1635855523 -438079442 1868639346 1797802968 1858687432 -240704089 -1782919389 -1408030510 133156685 -1252881650 -1748319293 -1040819408 -1542261660 -554302093 1548777836 371136529 983709593 1450712541 722972080 -1961097575 -2061747318 -1992291584 1140199564 473158217 746588269 -735661052 2042539816 -1474306155 -760019497 -921824535 170328791 1148440371 -447060219
REM
CELL 1.54180   50.00000   50.00000   50.00000   90.00000   90.00000   90.00000
LATT -1
SFAC C  
C      1  0.5185880000000  0.3855860000000  0.5035340000000 1.0
C      1  0.4740010000000  0.5815350000000  0.5464900000000 1.0
C      1  0.4341340000000  0.5966630000000  0.4434120000000 1.0
C      1  0.5613440000000  0.4743350000000  0.3996780000000 1.0
C      1  0.4671840000000  0.5197500000000  0.6165400000000 1.0
C      1  0.5416530000000  0.5003380000000  0.5326610000000 1.0
C      1  0.4293570000000  0.4629240000000  0.4491510000000 1.0
C      1  0.4153440000000  0.5856580000000  0.4907190000000 1.0
C      1  0.4455660000000  0.5517890000000  0.4709980000000 1.0
C      1  0.5658020000000  0.4923450000000  0.3802630000000 1.0
C      1  0.4608220000000  0.4716090000000  0.6347250000000 1.0
C      1  0.4345440000000  0.5429750000000  0.4454410000000 1.0
C      1  0.5090440000000  0.4318920000000  0.4181500000000 1.0
C      1  0.5833030000000  0.4605120000000  0.5562180000000 1.0
C      1  0.6152180000000  0.4346830000000  0.4629920000000 1.0
C      1  0.5405920000000  0.4057370000000  0.5541890000000 1.0
C      1  0.4219550000000  0.5134140000000  0.5488460000000 1.0
C      1  0.5048820000000  0.4052820000000  0.4259840000000 1.0
C      1  0.5173950000000  0.3916190000000  0.4473740000000 1.0
C      1  0.5259380000000  0.4724260000000  0.5835410000000 1.0
C      1  0.5052150000000  0.5050650000000  0.3953810000000 1.0
C      1  0.5813070000000  0.5190690000000  0.4661180000000 1.0
C      1  0.4874020000000  0.4809260000000  0.5509230000000 1.0
C      1  0.5441300000000  0.4325900000000  0.4530440000000 1.0
C      1  0.5449880000000  0.4534730000000  0.5223890000000 1.0
C      1  0.5503550000000  0.5634210000000  0.4844450000000 1.0
C      1  0.5992930000000  0.4386920000000  0.5170290000000 1.0
C      1  0.4328060000000  0.4217930000000  0.5061880000000 1.0
C      1  0.5345750000000  0.4427190000000  0.4279670000000 1.0
C      1  0.5075880000000  0.3653690000000  0.4866750000000 1.0
C      1  0.4667640000000  0.5683490000000  0.4791690000000 1.0
C      1  0.5118520000000  0.4074460000000  0.5488310000000 1.0
C      1  0.5674980000000  0.5308900000000  0.5562570000000 1.0
C      1  0.4092290000000  0.5396820000000  0.5497030000000 1.0
C      1  0.4208510000000  0.4651650000000  0.4765990000000 1.0
C      1  0.4167340000000  0.5216220000000  0.4503310000000 1.0
C      1  0.5070910000000  0.3684740000000  0.4597600000000 1.0
C      1  0.4698030000000  0.5582920000000  0.5288380000000 1.0
C      1  0.5916730000000  0.4141810000000  0.5025910000000 1.0
C      1  0.5373750000000  0.5412600000000  0.4714530000000 1.0
C      1  0.4830720000000  0.6072750000000  0.5393740000000 1.0
C      1  0.4781350000000  0.4931680000000  0.5036310000000 1.0
C      1  0.5879380000000  0.5099280000000  0.5591890000000 1.0
C      1  0.5166910000000  0.4533780000000  0.5222900000000 1.0
C      1  0.6046610000000  0.4138050000000  0.4770480000000 1.0
C      1  0.4073790000000  0.4669240000000  0.5712610000000 1.0
C      1  0.3859550000000  0.4867800000000  0.5030990000000 1.0
C      1  0.4911530000000  0.5557770000000  0.4866870000000 1.0
C      1  0.4133190000000  0.4484210000000  0.5894020000000 1.0
C      1  0.5274530000000  0.5228530000000  0.3884420000000 1.0
C      1  0.4691290000000  0.5402220000000  0.4104400000000 1.0
C      1  0.4474430000000  0.5137320000000  0.5355760000000 1.0
C      1  0.4460530000000  0.4505110000000  0.6279690000000 1.0
C      1  0.4960970000000  0.4542390000000  0.5420950000000 1.0
C      1  0.5986410000000  0.5210130000000  0.5114660000000 1.0
C      1  0.5960550000000  0.5051690000000  0.4867830000000 1.0
C      1  0.3965180000000  0.5510700000000  0.5264890000000 1.0
C      1  0.4914280000000  0.6208890000000  0.5179220000000 1.0
C      1  0.4170210000000  0.5152090000000  0.4790920000000 1.0
C      1  0.4552610000000  0.4539210000000  0.4417300000000 1.0
C      1  0.4692780000000  0.4949840000000  0.5316420000000 1.0
C      1  0.4628840000000  0.5944700000000  0.4909180000000 1.0
C      1  0.5537120000000  0.4822290000000  0.5869500000000 1.0
C      1  0.5432480000000  0.5162660000000  0.5559120000000 1.0
C      1  0.5489850000000  0.5122190000000  0.3735520000000 1.0
C      1  0.5013950000000  0.4328590000000  0.5609820000000 1.0
C      1  0.6159640000000  0.4618700000000  0.4654380000000 1.0
C      1  0.4892050000000  0.5498970000000  0.4287910000000 1.0
C      1  0.4087670000000  0.4892290000000  0.4870530000000 1.0
C      1  0.3628560000000  0.4848400000000  0.5150130000000 1.0
C      1  0.5229960000000  0.4440380000000  0.5785220000000 1.0
C      1  0.5092340000000  0.5421460000000  0.4697450000000 1.0
C      1  0.5657820000000  0.4013280000000  0.5082530000000 1.0
C      1  0.5676390000000  0.5523150000000  0.5359010000000 1.0
C      1  0.5317500000000  0.5485290000000  0.3994790000000 1.0
C      1  0.5097870000000  0.5450620000000  0.5725940000000 1.0
C      1  0.5367520000000  0.4936500000000  0.4625270000000 1.0
C      1  0.5372800000000  0.4063950000000  0.4628930000000 1.0
C      1  0.5111650000000  0.5323930000000  0.5209030000000 1.0
C      1  0.5849330000000  0.5472900000000  0.5131120000000 1.0
C      1  0.4462320000000  0.5544000000000  0.4217200000000 1.0
C      1  0.4768560000000  0.5104080000000  0.4562510000000 1.0
C      1  0.5463710000000  0.4314240000000  0.5661870000000 1.0
C      1  0.5219420000000  0.5076320000000  0.5150340000000 1.0
C      1  0.5879070000000  0.4608990000000  0.5025650000000 1.0
C      1  0.5783730000000  0.5600060000000  0.4880230000000 1.0
C      1  0.5242440000000  0.5645140000000  0.5553960000000 1.0
C      1  0.5425080000000  0.5688680000000  0.5331370000000 1.0
C      1  0.4492920000000  0.5383750000000  0.5200080000000 1.0
C      1  0.5531640000000  0.4499160000000  0.4729100000000 1.0
C      1  0.4087330000000  0.5594530000000  0.5019440000000 1.0
C      1  0.5376690000000  0.4672150000000  0.4127910000000 1.0
C      1  0.5898400000000  0.5465500000000  0.4655640000000 1.0
C      1  0.4077690000000  0.5031990000000  0.4313700000000 1.0
C      1  0.5586460000000  0.4489610000000  0.5476230000000 1.0
C      1  0.4996540000000  0.4584860000000  0.4665610000000 1.0
C      1  0.5522720000000  0.5171050000000  0.4644760000000 1.0
C      1  0.6022860000000  0.4775540000000  0.4848720000000 1.0
C      1  0.4930710000000  0.5513960000000  0.5139750000000 1.0
C      1  0.4219940000000  0.5589100000000  0.5671650000000 1.0
C      1  0.4845050000000  0.5785500000000  0.4368900000000 1.0
C      1  0.5109090000000  0.4777210000000  0.4038320000000 1.0
C      1  0.5020740000000  0.3950890000000  0.5251730000000 1.0
C      1  0.4504080000000  0.4043360000000  0.5155390000000 1.0
C      1  0.5785430000000  0.4846150000000  0.5711490000000 1.0
C      1  0.4137130000000  0.4769920000000  0.4303550000000 1.0
C      1  0.4676980000000  0.4968250000000  0.6298830000000 1.0
C      1  0.5374040000000  0.5700580000000  0.4144190000000 1.0
C      1  0.4635150000000  0.5392330000000  0.5970910000000 1.0
C      1  0.4373730000000  0.5976760000000  0.5055580000000 1.0
C      1  0.5154520000000  0.4799560000000  0.4751860000000 1.0
C      1  0.4550920000000  0.5821250000000  0.4305350000000 1.0
C      1  0.4249080000000  0.5850620000000  0.5557580000000 1.0
C      1  0.4660560000000  0.5000940000000  0.4789670000000 1.0
C      1  0.6046180000000  0.4464430000000  0.5438120000000 1.0
C      1  0.4233380000000  0.4429370000000  0.4933710000000 1.0
C      1  0.5110680000000  0.5966110000000  0.4800270000000 1.0
C      1  0.4377690000000  0.5484100000000  0.5884300000000 1.0
C      1  0.4752030000000  0.4491360000000  0.4610760000000 1.0
C      1  0.6055270000000  0.5098370000000  0.5367570000000 1.0
C      1  0.4104690000000  0.4902620000000  0.5590210000000 1.0
C      1  0.5063470000000  0.4913040000000  0.4993540000000 1.0
C      1  0.4304200000000  0.5391670000000  0.4943620000000 1.0
C      1  0.4881370000000  0.6085520000000  0.4930430000000 1.0
C      1  0.5421080000000  0.3986260000000  0.4910110000000 1.0
C      1  0.4931670000000  0.4542920000000  0.4079820000000 1.0
C      1  0.4659840000000  0.4555190000000  0.4154700000000 1.0
C      1  0.5594260000000  0.3956000000000  0.5357040000000 1.0
C      1  0.4791220000000  0.5176990000000  0.3962590000000 1.0
C      1  0.4762210000000  0.5771990000000  0.5739960000000 1.0
C      1  0.4278060000000  0.4416410000000  0.6106920000000 1.0
C      1  0.4156580000000  0.5937560000000  0.4632960000000 1.0
C      1  0.4742650000000  0.3945540000000  0.5216270000000 1.0
C      1  0.5062920000000  0.4918400000000  0.5717830000000 1.0
C      1  0.5184650000000  0.5181960000000  0.5698650000000 1.0
C      1  0.5310870000000  0.5874870000000  0.4340350000000 1.0
C      1  0.5601700000000  0.4574990000000  0.4988050000000 1.0
C      1  0.4317370000000  0.5992430000000  0.5335590000000 1.0
C      1  0.4851830000000  0.5529530000000  0.5846790000000 1.0
C      1  0.5344560000000  0.5804720000000  0.5002350000000 1.0
C      1  0.4953380000000  0.5306580000000  0.4485500000000 1.0
C      1  0.5079390000000  0.5906570000000  0.4505350000000 1.0
END
