TITL C-627111-6168-386 0.0912230386455842 125000 -519.846362833593 0 0 87 (C1) n - 1
REM
REM in /home/nfs/bkarasulu/CARBON/AIRSS/Generating-Clusters/LCBOP/Only-C1/SD-CG/FIRE-CG
REM
REM
REM
REM
REM
REM ./C.cell (11c1c37f851c82e70ff6c80c92926a4b)
REM AIRSS Version 0.9.1 bugfix July 2018 build 013d7b7c2542+ Fri, 06 Jul 2018 19:26:36 +0100
REM compiler GCC version 9.2.1 20190827 (Red Hat 9.2.1-1)
REM options -cpp -mtune=generic -march=x86-64 -g -O0 -fpre-include=/usr/include/finclude/math-vector-fortran.h
REM seed 1066981054 -187365912 1708313697 -237699437 1028880821 -113447608 -1857660562 1257325834 -983253263 -1684814073 45123741 332654124 2075259566 -1901714402 -925155947 451558950 -2051550522 1668750244 2016475851 -569310569 -663157054 1061427395 848947568 -73505258 1725160499 1261149576 -830611411 8259496 1180826430 671642698 1437032226 -1712964096 -516290888
REM
CELL 1.54180   50.00000   50.00000   50.00000   90.00000   90.00000   90.00000
LATT -1
SFAC C  
C      1  0.5275140000000  0.4870790000000  0.4677030000000 1.0
C      1  0.5554420000000  0.4850150000000  0.3921150000000 1.0
C      1  0.4249100000000  0.5763220000000  0.6351190000000 1.0
C      1  0.4261020000000  0.4402380000000  0.4864250000000 1.0
C      1  0.4142320000000  0.5166140000000  0.4285020000000 1.0
C      1  0.5107970000000  0.4797020000000  0.4902110000000 1.0
C      1  0.4877170000000  0.4133930000000  0.4597680000000 1.0
C      1  0.4803690000000  0.5712650000000  0.5901210000000 1.0
C      1  0.4176920000000  0.5743350000000  0.6087730000000 1.0
C      1  0.4241830000000  0.6375560000000  0.5727330000000 1.0
C      1  0.4028420000000  0.4924430000000  0.4372560000000 1.0
C      1  0.4775760000000  0.5116310000000  0.5004120000000 1.0
C      1  0.4235510000000  0.5223240000000  0.4930360000000 1.0
C      1  0.4693900000000  0.5678220000000  0.4434400000000 1.0
C      1  0.5244580000000  0.5611670000000  0.5459610000000 1.0
C      1  0.5257730000000  0.5659690000000  0.5735710000000 1.0
C      1  0.4641030000000  0.5302950000000  0.5168670000000 1.0
C      1  0.5260020000000  0.5387990000000  0.4529670000000 1.0
C      1  0.5407820000000  0.4663760000000  0.4533390000000 1.0
C      1  0.4937300000000  0.5738750000000  0.4525810000000 1.0
C      1  0.5702810000000  0.4889160000000  0.5004440000000 1.0
C      1  0.4863940000000  0.4611500000000  0.4435630000000 1.0
C      1  0.4734000000000  0.5497620000000  0.5356120000000 1.0
C      1  0.4707560000000  0.4776430000000  0.5534390000000 1.0
C      1  0.5852950000000  0.5099600000000  0.4195840000000 1.0
C      1  0.5573510000000  0.4855040000000  0.5551850000000 1.0
C      1  0.5878170000000  0.4264070000000  0.5177230000000 1.0
C      1  0.5524510000000  0.4225040000000  0.4718470000000 1.0
C      1  0.4984190000000  0.3929340000000  0.4442180000000 1.0
C      1  0.5063530000000  0.5609700000000  0.5935940000000 1.0
C      1  0.3950730000000  0.5608040000000  0.6013300000000 1.0
C      1  0.5288700000000  0.5130230000000  0.4578920000000 1.0
C      1  0.5444890000000  0.5527550000000  0.5277360000000 1.0
C      1  0.5750490000000  0.5250820000000  0.3757080000000 1.0
C      1  0.5863950000000  0.4440410000000  0.5400730000000 1.0
C      1  0.5557240000000  0.4672560000000  0.5069910000000 1.0
C      1  0.4738340000000  0.4836790000000  0.4566050000000 1.0
C      1  0.5965580000000  0.4344510000000  0.4917310000000 1.0
C      1  0.5382100000000  0.4528210000000  0.5213900000000 1.0
C      1  0.4645810000000  0.5033280000000  0.4752680000000 1.0
C      1  0.4195710000000  0.6619650000000  0.5648250000000 1.0
C      1  0.5491360000000  0.4038490000000  0.4938440000000 1.0
C      1  0.4984750000000  0.5610010000000  0.5355440000000 1.0
C      1  0.5013990000000  0.4984500000000  0.5093760000000 1.0
C      1  0.4722740000000  0.4475700000000  0.5019360000000 1.0
C      1  0.5702780000000  0.5148740000000  0.5078710000000 1.0
C      1  0.5100480000000  0.3743100000000  0.4301830000000 1.0
C      1  0.4339450000000  0.5284530000000  0.4452180000000 1.0
C      1  0.5185970000000  0.5644510000000  0.4613730000000 1.0
C      1  0.4552910000000  0.5718820000000  0.5772550000000 1.0
C      1  0.4339220000000  0.5865150000000  0.5888570000000 1.0
C      1  0.4288770000000  0.6127480000000  0.5807520000000 1.0
C      1  0.5647020000000  0.4685920000000  0.4382420000000 1.0
C      1  0.4460830000000  0.4692430000000  0.5529670000000 1.0
C      1  0.5238370000000  0.3962910000000  0.5038810000000 1.0
C      1  0.4515210000000  0.5581550000000  0.5529570000000 1.0
C      1  0.5698180000000  0.4045360000000  0.5139780000000 1.0
C      1  0.5841940000000  0.4498520000000  0.4463810000000 1.0
C      1  0.5097550000000  0.5379180000000  0.6092540000000 1.0
C      1  0.5528380000000  0.5256080000000  0.5274350000000 1.0
C      1  0.5120730000000  0.4986290000000  0.5364230000000 1.0
C      1  0.4521650000000  0.4311840000000  0.4904460000000 1.0
C      1  0.5749300000000  0.4648170000000  0.5533490000000 1.0
C      1  0.5316360000000  0.4396050000000  0.4600110000000 1.0
C      1  0.5882650000000  0.5281750000000  0.3994350000000 1.0
C      1  0.4488330000000  0.5514160000000  0.4389920000000 1.0
C      1  0.4631930000000  0.4111150000000  0.4737800000000 1.0
C      1  0.5469000000000  0.5687030000000  0.5045710000000 1.0
C      1  0.5083600000000  0.5116820000000  0.6043530000000 1.0
C      1  0.4965130000000  0.4546300000000  0.4889220000000 1.0
C      1  0.5800530000000  0.4327870000000  0.4684820000000 1.0
C      1  0.4280150000000  0.5468800000000  0.5401450000000 1.0
C      1  0.4859910000000  0.4577190000000  0.4165190000000 1.0
C      1  0.5009790000000  0.4401750000000  0.4621280000000 1.0
C      1  0.4346850000000  0.5311000000000  0.5170550000000 1.0
C      1  0.5398500000000  0.5046270000000  0.5425050000000 1.0
C      1  0.5122410000000  0.4105200000000  0.5238200000000 1.0
C      1  0.5032670000000  0.4946380000000  0.5845450000000 1.0
C      1  0.4085220000000  0.4539200000000  0.4718600000000 1.0
C      1  0.4065730000000  0.5281380000000  0.4049540000000 1.0
C      1  0.5342860000000  0.5753670000000  0.4819080000000 1.0
C      1  0.5684530000000  0.4869170000000  0.4175270000000 1.0
C      1  0.4007370000000  0.4713410000000  0.4533230000000 1.0
C      1  0.4393030000000  0.5162290000000  0.4702490000000 1.0
C      1  0.5587000000000  0.5034550000000  0.3722160000000 1.0
C      1  0.5210080000000  0.4348720000000  0.5314740000000 1.0
C      1  0.4954390000000  0.4898890000000  0.5580440000000 1.0
END
