TITL C-627112-676-1981 -7.66105815006634e-07 125000 -583.718175051646 0 0 96 (C1) n - 1
REM
REM in /home/nfs/bkarasulu/CARBON/AIRSS/Generating-Clusters/LCBOP/Only-C1/SD-CG/FIRE-CG
REM
REM
REM
REM
REM
REM ./C.cell (11c1c37f851c82e70ff6c80c92926a4b)
REM AIRSS Version 0.9.1 bugfix July 2018 build 013d7b7c2542+ Fri, 06 Jul 2018 19:26:36 +0100
REM compiler GCC version 9.2.1 20190827 (Red Hat 9.2.1-1)
REM options -cpp -mtune=generic -march=x86-64 -g -O0 -fpre-include=/usr/include/finclude/math-vector-fortran.h
REM seed -2043750142 -905493716 -1387130702 -1042763760 -1305608169 1266093107 -1977298338 1208707532 437571348 -378507007 -1602243897 -1747559958 1957952368 -171220190 1203586380 389538934 -1595731993 -184746718 -2124662174 1486587204 -976363880 1644910602 -994775127 511798208 1970864772 -1197307315 -1495249519 -490169590 2024938444 2035025682 -1234382560 726307563 -1074913241
REM
CELL 1.54180   50.00000   50.00000   50.00000   90.00000   90.00000   90.00000
LATT -1
SFAC C  
C      1  0.5928220000000  0.4523280000000  0.5463370000000 1.0
C      1  0.5012780000000  0.5555020000000  0.4640720000000 1.0
C      1  0.5360830000000  0.4852030000000  0.4012060000000 1.0
C      1  0.4550070000000  0.5780290000000  0.4870430000000 1.0
C      1  0.5128310000000  0.4701660000000  0.4076500000000 1.0
C      1  0.5508330000000  0.4812700000000  0.5575970000000 1.0
C      1  0.5924840000000  0.5150780000000  0.4976840000000 1.0
C      1  0.4271130000000  0.5121330000000  0.4147240000000 1.0
C      1  0.5901480000000  0.5034740000000  0.5572990000000 1.0
C      1  0.5558670000000  0.5908660000000  0.5295460000000 1.0
C      1  0.4755560000000  0.4638830000000  0.5150650000000 1.0
C      1  0.5048940000000  0.5040360000000  0.5136050000000 1.0
C      1  0.4828490000000  0.5670940000000  0.4458680000000 1.0
C      1  0.4245660000000  0.4878340000000  0.5551880000000 1.0
C      1  0.4899520000000  0.4573370000000  0.4669150000000 1.0
C      1  0.4201750000000  0.5095790000000  0.4617710000000 1.0
C      1  0.5032170000000  0.4818670000000  0.4630030000000 1.0
C      1  0.5684550000000  0.5229230000000  0.5553190000000 1.0
C      1  0.4664270000000  0.5160620000000  0.5568510000000 1.0
C      1  0.5577840000000  0.5413620000000  0.5737840000000 1.0
C      1  0.4617470000000  0.4197020000000  0.5563670000000 1.0
C      1  0.5719930000000  0.4286820000000  0.4722290000000 1.0
C      1  0.4847470000000  0.5630280000000  0.5250700000000 1.0
C      1  0.5403330000000  0.5119160000000  0.3991400000000 1.0
C      1  0.4914530000000  0.5593020000000  0.5527630000000 1.0
C      1  0.4459770000000  0.5292070000000  0.4061770000000 1.0
C      1  0.5798240000000  0.4760550000000  0.5549270000000 1.0
C      1  0.4977830000000  0.5274630000000  0.4693240000000 1.0
C      1  0.4756170000000  0.4493880000000  0.4899640000000 1.0
C      1  0.5809640000000  0.5777130000000  0.5320470000000 1.0
C      1  0.4614800000000  0.5790950000000  0.4604930000000 1.0
C      1  0.4545030000000  0.4300490000000  0.4884060000000 1.0
C      1  0.4912250000000  0.4818960000000  0.5866560000000 1.0
C      1  0.4300940000000  0.4365430000000  0.5041550000000 1.0
C      1  0.5269960000000  0.5161510000000  0.5259080000000 1.0
C      1  0.6077100000000  0.4384010000000  0.5647650000000 1.0
C      1  0.4266290000000  0.4145530000000  0.5247320000000 1.0
C      1  0.5971680000000  0.5588670000000  0.5214170000000 1.0
C      1  0.3673370000000  0.4814550000000  0.4778370000000 1.0
C      1  0.4885320000000  0.5167910000000  0.4943300000000 1.0
C      1  0.5869380000000  0.5578650000000  0.4751610000000 1.0
C      1  0.5590110000000  0.5610960000000  0.4754970000000 1.0
C      1  0.4865240000000  0.5560780000000  0.4196650000000 1.0
C      1  0.5100640000000  0.4470500000000  0.4248150000000 1.0
C      1  0.5331430000000  0.4344760000000  0.4357710000000 1.0
C      1  0.5135860000000  0.5722550000000  0.4833770000000 1.0
C      1  0.4563870000000  0.4012390000000  0.4913180000000 1.0
C      1  0.5103170000000  0.5256650000000  0.5812770000000 1.0
C      1  0.4864050000000  0.5336170000000  0.5656850000000 1.0
C      1  0.5354610000000  0.5869060000000  0.5489260000000 1.0
C      1  0.4857160000000  0.5084570000000  0.4245660000000 1.0
C      1  0.4844870000000  0.4684590000000  0.5646380000000 1.0
C      1  0.5471030000000  0.5392330000000  0.4898230000000 1.0
C      1  0.4401050000000  0.3923140000000  0.5119920000000 1.0
C      1  0.4858660000000  0.4550640000000  0.5402040000000 1.0
C      1  0.5974750000000  0.5432270000000  0.4976600000000 1.0
C      1  0.4244900000000  0.4572930000000  0.5490080000000 1.0
C      1  0.4269760000000  0.4959720000000  0.4378880000000 1.0
C      1  0.5536780000000  0.4298030000000  0.4525240000000 1.0
C      1  0.4722090000000  0.5318940000000  0.4153160000000 1.0
C      1  0.4063620000000  0.5126330000000  0.4861470000000 1.0
C      1  0.4387070000000  0.4701130000000  0.4358240000000 1.0
C      1  0.4980870000000  0.5067420000000  0.4503310000000 1.0
C      1  0.4008390000000  0.4794880000000  0.5150350000000 1.0
C      1  0.4579930000000  0.5624930000000  0.5112530000000 1.0
C      1  0.4868170000000  0.4266030000000  0.5437380000000 1.0
C      1  0.5109060000000  0.4177520000000  0.5316860000000 1.0
C      1  0.5089110000000  0.5609720000000  0.5094410000000 1.0
C      1  0.5407180000000  0.4548980000000  0.5079560000000 1.0
C      1  0.5762240000000  0.4934990000000  0.4964040000000 1.0
C      1  0.5564440000000  0.4752970000000  0.4995110000000 1.0
C      1  0.4077020000000  0.5022930000000  0.5338670000000 1.0
C      1  0.4427090000000  0.5369620000000  0.5106370000000 1.0
C      1  0.5487040000000  0.5992970000000  0.5031340000000 1.0
C      1  0.4166990000000  0.5238780000000  0.5126320000000 1.0
C      1  0.4347200000000  0.4283810000000  0.5496450000000 1.0
C      1  0.5140890000000  0.4981300000000  0.5883730000000 1.0
C      1  0.5375950000000  0.4830980000000  0.5825260000000 1.0
C      1  0.5123280000000  0.5555030000000  0.4073700000000 1.0
C      1  0.5406180000000  0.5829150000000  0.4811750000000 1.0
C      1  0.5854030000000  0.4324030000000  0.4953350000000 1.0
C      1  0.4851650000000  0.4464290000000  0.4405840000000 1.0
C      1  0.4614740000000  0.5191550000000  0.4988780000000 1.0
C      1  0.5295160000000  0.4325530000000  0.5183290000000 1.0
C      1  0.5468140000000  0.5065320000000  0.5429080000000 1.0
C      1  0.5301420000000  0.5408420000000  0.5125030000000 1.0
C      1  0.5312350000000  0.5372310000000  0.4009990000000 1.0
C      1  0.4585320000000  0.4520130000000  0.4319900000000 1.0
C      1  0.4258520000000  0.4623350000000  0.5172010000000 1.0
C      1  0.4513570000000  0.4957340000000  0.5449660000000 1.0
C      1  0.3890320000000  0.4898910000000  0.4915400000000 1.0
C      1  0.5913810000000  0.4418800000000  0.5198670000000 1.0
C      1  0.4898530000000  0.4868510000000  0.4069990000000 1.0
C      1  0.4521830000000  0.4795390000000  0.5194280000000 1.0
C      1  0.5182670000000  0.5685530000000  0.5618480000000 1.0
C      1  0.5302280000000  0.5468670000000  0.5775940000000 1.0
END
