TITL C-627107-135-803 -2.81558279428291e-07 125000 -531.294895758183 0 0 88 (C1) n - 1
REM
REM in /home/nfs/bkarasulu/CARBON/AIRSS/Generating-Clusters/LCBOP/Only-C1/SD-CG/FIRE-CG
REM
REM
REM
REM
REM
REM ./C.cell (11c1c37f851c82e70ff6c80c92926a4b)
REM AIRSS Version 0.9.1 bugfix July 2018 build 013d7b7c2542+ Fri, 06 Jul 2018 19:26:36 +0100
REM compiler GCC version 9.2.1 20190827 (Red Hat 9.2.1-1)
REM options -cpp -mtune=generic -march=x86-64 -g -O0 -fpre-include=/usr/include/finclude/math-vector-fortran.h
REM seed -1030278275 -910876907 1955486278 897041118 -589604828 -355661332 1475519503 -1345676207 1430505427 -1250472444 -2035979480 -461537358 -1230112289 54649546 1682710422 976223463 170034201 -1194027018 -1458445491 525655872 670966251 -1167285426 -1698734399 555226556 1642203090 92654970 1766847740 1625579320 407074088 2067842075 -1339831368 379332007 -1507166925
REM
CELL 1.54180   50.00000   50.00000   50.00000   90.00000   90.00000   90.00000
LATT -1
SFAC C  
C      1  0.4978760000000  0.5983620000000  0.4522360000000 1.0
C      1  0.5577630000000  0.4633800000000  0.5243320000000 1.0
C      1  0.5559530000000  0.4181720000000  0.5798060000000 1.0
C      1  0.5356330000000  0.5710820000000  0.4968970000000 1.0
C      1  0.4709490000000  0.5061990000000  0.4567650000000 1.0
C      1  0.4337970000000  0.4054150000000  0.4522440000000 1.0
C      1  0.4847120000000  0.4360270000000  0.4761450000000 1.0
C      1  0.5106840000000  0.4755880000000  0.4721750000000 1.0
C      1  0.5049760000000  0.5366720000000  0.4485830000000 1.0
C      1  0.4423120000000  0.5081900000000  0.4577920000000 1.0
C      1  0.5386770000000  0.4788420000000  0.4728230000000 1.0
C      1  0.4824090000000  0.5310120000000  0.4642050000000 1.0
C      1  0.4262730000000  0.5136190000000  0.5583350000000 1.0
C      1  0.4507470000000  0.5780040000000  0.4503150000000 1.0
C      1  0.5876750000000  0.3971900000000  0.5469750000000 1.0
C      1  0.4233650000000  0.4872250000000  0.5454370000000 1.0
C      1  0.4850800000000  0.4904880000000  0.5732040000000 1.0
C      1  0.5099780000000  0.4519800000000  0.4321000000000 1.0
C      1  0.4827200000000  0.5032760000000  0.5128760000000 1.0
C      1  0.5091550000000  0.5090300000000  0.5145850000000 1.0
C      1  0.4575200000000  0.4980140000000  0.5041460000000 1.0
C      1  0.4431040000000  0.4697470000000  0.5587110000000 1.0
C      1  0.5182660000000  0.5696320000000  0.5201950000000 1.0
C      1  0.5771510000000  0.5421770000000  0.4700620000000 1.0
C      1  0.4308390000000  0.5568300000000  0.4540820000000 1.0
C      1  0.4322870000000  0.5304810000000  0.4413240000000 1.0
C      1  0.5693550000000  0.4465050000000  0.4532380000000 1.0
C      1  0.5598340000000  0.5574270000000  0.4532210000000 1.0
C      1  0.4237290000000  0.5539680000000  0.4815310000000 1.0
C      1  0.4345260000000  0.5202900000000  0.6079090000000 1.0
C      1  0.4873490000000  0.4841640000000  0.4618260000000 1.0
C      1  0.4493910000000  0.5593860000000  0.5447110000000 1.0
C      1  0.5553780000000  0.5441460000000  0.4276020000000 1.0
C      1  0.4574500000000  0.5370960000000  0.3980820000000 1.0
C      1  0.5375500000000  0.4379300000000  0.5725750000000 1.0
C      1  0.5757680000000  0.5334610000000  0.5303330000000 1.0
C      1  0.4926410000000  0.4346330000000  0.4478180000000 1.0
C      1  0.5749390000000  0.4022210000000  0.5699150000000 1.0
C      1  0.5172260000000  0.5826380000000  0.5667820000000 1.0
C      1  0.4707850000000  0.5459720000000  0.4854170000000 1.0
C      1  0.4705170000000  0.5730150000000  0.5351470000000 1.0
C      1  0.4749510000000  0.5870030000000  0.4640530000000 1.0
C      1  0.4828220000000  0.5446270000000  0.4023480000000 1.0
C      1  0.4976810000000  0.4479050000000  0.5411110000000 1.0
C      1  0.4806680000000  0.5724110000000  0.4883910000000 1.0
C      1  0.5377090000000  0.5399320000000  0.5595600000000 1.0
C      1  0.4939740000000  0.5284110000000  0.6031110000000 1.0
C      1  0.5371550000000  0.4954530000000  0.4141120000000 1.0
C      1  0.4903580000000  0.5761210000000  0.5149080000000 1.0
C      1  0.4122260000000  0.4751320000000  0.5226160000000 1.0
C      1  0.5274240000000  0.5147360000000  0.5705740000000 1.0
C      1  0.4380560000000  0.4376240000000  0.4933710000000 1.0
C      1  0.5413410000000  0.4653860000000  0.5794380000000 1.0
C      1  0.5650860000000  0.4485680000000  0.5017140000000 1.0
C      1  0.5656870000000  0.5404140000000  0.5543630000000 1.0
C      1  0.5371300000000  0.5062340000000  0.5193760000000 1.0
C      1  0.4541260000000  0.4034860000000  0.4349040000000 1.0
C      1  0.4365630000000  0.5301050000000  0.4134630000000 1.0
C      1  0.4376910000000  0.4992700000000  0.4848900000000 1.0
C      1  0.5004300000000  0.5460280000000  0.4224560000000 1.0
C      1  0.5178370000000  0.4320880000000  0.5527390000000 1.0
C      1  0.4396360000000  0.5084840000000  0.5840760000000 1.0
C      1  0.4319480000000  0.5391310000000  0.5478510000000 1.0
C      1  0.5602920000000  0.5209440000000  0.5105260000000 1.0
C      1  0.5240170000000  0.5630710000000  0.5483430000000 1.0
C      1  0.5813590000000  0.4361540000000  0.4325520000000 1.0
C      1  0.5405970000000  0.4893200000000  0.5642020000000 1.0
C      1  0.5240990000000  0.5925120000000  0.4546100000000 1.0
C      1  0.5465450000000  0.5057020000000  0.4685690000000 1.0
C      1  0.4782040000000  0.4151330000000  0.4331570000000 1.0
C      1  0.5273980000000  0.5223650000000  0.4565460000000 1.0
C      1  0.4956430000000  0.4731880000000  0.5537350000000 1.0
C      1  0.5661670000000  0.5198610000000  0.4833440000000 1.0
C      1  0.5015620000000  0.5119290000000  0.5826790000000 1.0
C      1  0.4197870000000  0.4556450000000  0.5054930000000 1.0
C      1  0.4517440000000  0.4464310000000  0.5454710000000 1.0
C      1  0.5798250000000  0.4250320000000  0.5053590000000 1.0
C      1  0.4668670000000  0.4377840000000  0.4991210000000 1.0
C      1  0.4443780000000  0.5442110000000  0.4963030000000 1.0
C      1  0.5574190000000  0.4577580000000  0.4758890000000 1.0
C      1  0.5888850000000  0.4061820000000  0.5218670000000 1.0
C      1  0.5235160000000  0.4725000000000  0.4200240000000 1.0
C      1  0.4574020000000  0.4865630000000  0.5779650000000 1.0
C      1  0.4285110000000  0.4189250000000  0.4746700000000 1.0
C      1  0.5488100000000  0.5202320000000  0.4155680000000 1.0
C      1  0.4735350000000  0.4407570000000  0.5273680000000 1.0
C      1  0.5452260000000  0.4850950000000  0.5364460000000 1.0
C      1  0.5413750000000  0.5746700000000  0.4683150000000 1.0
END
