TITL C-627110-360-1834 7.63108534681045e-06 125000 -823.21565198685 0 0 135 (C1) n - 1
REM
REM in /home/nfs/bkarasulu/CARBON/AIRSS/Generating-Clusters/LCBOP/Only-C1/SD-CG/FIRE-CG
REM
REM
REM
REM
REM
REM ./C.cell (11c1c37f851c82e70ff6c80c92926a4b)
REM AIRSS Version 0.9.1 bugfix July 2018 build 013d7b7c2542+ Fri, 06 Jul 2018 19:26:36 +0100
REM compiler GCC version 9.2.1 20190827 (Red Hat 9.2.1-1)
REM options -cpp -mtune=generic -march=x86-64 -g -O0 -fpre-include=/usr/include/finclude/math-vector-fortran.h
REM seed -2130083215 459174000 1133871259 22737133 -1286259923 -927445628 -744751450 2065175490 412563221 1469903729 -2093536879 64300125 -809042062 1718843077 1911112141 -1272760212 -2035599267 1402987320 -1571964348 -667112650 -1800644404 186390463 763760944 -1047032451 -599246062 1470858479 -103669636 1450831430 553369563 -2087412142 -1678123717 -1045301931 1220878352
REM
CELL 1.54180   50.00000   50.00000   50.00000   90.00000   90.00000   90.00000
LATT -1
SFAC C  
C      1  0.4204790000000  0.4691890000000  0.5884150000000 1.0
C      1  0.4608880000000  0.5474890000000  0.5796620000000 1.0
C      1  0.5653450000000  0.5622550000000  0.4978400000000 1.0
C      1  0.4458020000000  0.4862340000000  0.5487350000000 1.0
C      1  0.4947150000000  0.5103810000000  0.5632070000000 1.0
C      1  0.4930710000000  0.5370040000000  0.4437000000000 1.0
C      1  0.5630680000000  0.5080140000000  0.4431960000000 1.0
C      1  0.5929040000000  0.4767150000000  0.5242470000000 1.0
C      1  0.5165020000000  0.5184770000000  0.5466290000000 1.0
C      1  0.4876250000000  0.4069280000000  0.4742520000000 1.0
C      1  0.4300390000000  0.5324900000000  0.4377770000000 1.0
C      1  0.5618360000000  0.4846040000000  0.4602450000000 1.0
C      1  0.5191100000000  0.5988620000000  0.4505080000000 1.0
C      1  0.4979310000000  0.4215760000000  0.5457070000000 1.0
C      1  0.5048380000000  0.4270210000000  0.5182430000000 1.0
C      1  0.4488740000000  0.5535670000000  0.4424770000000 1.0
C      1  0.5412140000000  0.5732070000000  0.5653690000000 1.0
C      1  0.4488170000000  0.4842200000000  0.5221360000000 1.0
C      1  0.4461930000000  0.4618000000000  0.5053030000000 1.0
C      1  0.5171240000000  0.4951320000000  0.4352830000000 1.0
C      1  0.5393290000000  0.5112870000000  0.4258060000000 1.0
C      1  0.4507700000000  0.4121870000000  0.5561770000000 1.0
C      1  0.5029780000000  0.5657780000000  0.5930540000000 1.0
C      1  0.4785180000000  0.5695700000000  0.5790590000000 1.0
C      1  0.4639280000000  0.5825600000000  0.4851180000000 1.0
C      1  0.5401090000000  0.6284860000000  0.4125410000000 1.0
C      1  0.5188960000000  0.4454340000000  0.4229150000000 1.0
C      1  0.5295180000000  0.4054710000000  0.4545860000000 1.0
C      1  0.5071860000000  0.5799400000000  0.4670490000000 1.0
C      1  0.4381340000000  0.4514100000000  0.5760540000000 1.0
C      1  0.5342840000000  0.5290740000000  0.5942200000000 1.0
C      1  0.6566810000000  0.5073030000000  0.5085710000000 1.0
C      1  0.5210830000000  0.4127750000000  0.5597840000000 1.0
C      1  0.4394230000000  0.4161760000000  0.4887430000000 1.0
C      1  0.4167070000000  0.4359610000000  0.5308850000000 1.0
C      1  0.4635810000000  0.4015930000000  0.4873670000000 1.0
C      1  0.4784450000000  0.5635320000000  0.4045800000000 1.0
C      1  0.6129680000000  0.4732430000000  0.5437620000000 1.0
C      1  0.5162090000000  0.4006000000000  0.4803520000000 1.0
C      1  0.4339740000000  0.5114680000000  0.4197720000000 1.0
C      1  0.6569490000000  0.4927390000000  0.5326440000000 1.0
C      1  0.4879410000000  0.4619720000000  0.6186190000000 1.0
C      1  0.5353850000000  0.5961530000000  0.5113550000000 1.0
C      1  0.4860770000000  0.4688580000000  0.5918120000000 1.0
C      1  0.3993180000000  0.5550190000000  0.6302490000000 1.0
C      1  0.4869430000000  0.4252230000000  0.4516560000000 1.0
C      1  0.5463990000000  0.5422880000000  0.4928370000000 1.0
C      1  0.5252400000000  0.4085970000000  0.5064340000000 1.0
C      1  0.4204450000000  0.4812930000000  0.4238180000000 1.0
C      1  0.4188100000000  0.5517910000000  0.6132440000000 1.0
C      1  0.5316690000000  0.4702240000000  0.5420480000000 1.0
C      1  0.6035440000000  0.5144750000000  0.4949140000000 1.0
C      1  0.5869790000000  0.5039290000000  0.5166120000000 1.0
C      1  0.6005260000000  0.5334780000000  0.4259650000000 1.0
C      1  0.6388520000000  0.4791980000000  0.5470080000000 1.0
C      1  0.4255980000000  0.5688910000000  0.5310210000000 1.0
C      1  0.4586490000000  0.4926920000000  0.4034490000000 1.0
C      1  0.4205120000000  0.6211810000000  0.5326390000000 1.0
C      1  0.4710550000000  0.5249040000000  0.5665580000000 1.0
C      1  0.5276370000000  0.5009190000000  0.5957230000000 1.0
C      1  0.5477940000000  0.4812580000000  0.5975940000000 1.0
C      1  0.4321200000000  0.5266760000000  0.5071250000000 1.0
C      1  0.5887400000000  0.5582830000000  0.4831790000000 1.0
C      1  0.5409780000000  0.4656120000000  0.4615900000000 1.0
C      1  0.4947990000000  0.5084510000000  0.4466210000000 1.0
C      1  0.5416010000000  0.5155040000000  0.5370900000000 1.0
C      1  0.4698500000000  0.4472620000000  0.4463000000000 1.0
C      1  0.5450650000000  0.4240010000000  0.5493000000000 1.0
C      1  0.4236260000000  0.4364180000000  0.4410480000000 1.0
C      1  0.5045780000000  0.5145690000000  0.3918760000000 1.0
C      1  0.4149990000000  0.5266770000000  0.4849440000000 1.0
C      1  0.5250720000000  0.5373820000000  0.4784730000000 1.0
C      1  0.4226480000000  0.5952070000000  0.5320810000000 1.0
C      1  0.5782660000000  0.3872060000000  0.4413500000000 1.0
C      1  0.5285910000000  0.4532770000000  0.4831570000000 1.0
C      1  0.5005620000000  0.5955130000000  0.5421370000000 1.0
C      1  0.4225410000000  0.5411690000000  0.5297580000000 1.0
C      1  0.4380460000000  0.5478820000000  0.5954400000000 1.0
C      1  0.5066160000000  0.5947800000000  0.5140320000000 1.0
C      1  0.5087090000000  0.5520740000000  0.4616790000000 1.0
C      1  0.5542420000000  0.3953890000000  0.4472600000000 1.0
C      1  0.4794270000000  0.4953720000000  0.4664540000000 1.0
C      1  0.4052250000000  0.4907200000000  0.5844300000000 1.0
C      1  0.3953290000000  0.4635980000000  0.4938070000000 1.0
C      1  0.4250190000000  0.4192940000000  0.4639610000000 1.0
C      1  0.4369680000000  0.4353500000000  0.5100960000000 1.0
C      1  0.5565260000000  0.4612700000000  0.5818050000000 1.0
C      1  0.5130580000000  0.4747150000000  0.5213410000000 1.0
C      1  0.4116570000000  0.5288570000000  0.4586540000000 1.0
C      1  0.5110010000000  0.4519150000000  0.5051690000000 1.0
C      1  0.5772990000000  0.5445720000000  0.5454840000000 1.0
C      1  0.4846740000000  0.4938040000000  0.3916300000000 1.0
C      1  0.5694850000000  0.5198860000000  0.5335030000000 1.0
C      1  0.4413720000000  0.4695070000000  0.4786330000000 1.0
C      1  0.4849900000000  0.5781210000000  0.3834570000000 1.0
C      1  0.4915440000000  0.5874020000000  0.4902890000000 1.0
C      1  0.5500140000000  0.4160330000000  0.5212660000000 1.0
C      1  0.4954860000000  0.4684340000000  0.3844270000000 1.0
C      1  0.5943150000000  0.5318880000000  0.4740660000000 1.0
C      1  0.4067820000000  0.5281940000000  0.5490260000000 1.0
C      1  0.4493210000000  0.5707280000000  0.4654360000000 1.0
C      1  0.5126360000000  0.4227380000000  0.4383300000000 1.0
C      1  0.5835170000000  0.4538250000000  0.5108940000000 1.0
C      1  0.5859500000000  0.5246490000000  0.4474470000000 1.0
C      1  0.4131370000000  0.4696430000000  0.4718980000000 1.0
C      1  0.5243000000000  0.4681890000000  0.4387430000000 1.0
C      1  0.6314680000000  0.5109350000000  0.4966780000000 1.0
C      1  0.5715320000000  0.4298810000000  0.5093150000000 1.0
C      1  0.4748430000000  0.4278010000000  0.5601880000000 1.0
C      1  0.4683490000000  0.4517780000000  0.5762700000000 1.0
C      1  0.5461460000000  0.5405880000000  0.3867180000000 1.0
C      1  0.5612320000000  0.5681390000000  0.5453840000000 1.0
C      1  0.4930160000000  0.5923960000000  0.3631760000000 1.0
C      1  0.5102240000000  0.4495660000000  0.3965810000000 1.0
C      1  0.4446340000000  0.4669740000000  0.4098150000000 1.0
C      1  0.4650390000000  0.4709680000000  0.4625400000000 1.0
C      1  0.4781580000000  0.5872390000000  0.5568730000000 1.0
C      1  0.6794850000000  0.5172980000000  0.4974580000000 1.0
C      1  0.4541300000000  0.5084870000000  0.5077150000000 1.0
C      1  0.5289220000000  0.5559360000000  0.5856410000000 1.0
C      1  0.5019860000000  0.4921920000000  0.5841090000000 1.0
C      1  0.5573110000000  0.5795860000000  0.5186720000000 1.0
C      1  0.4486900000000  0.4439350000000  0.4270540000000 1.0
C      1  0.5299270000000  0.6142990000000  0.4318970000000 1.0
C      1  0.5243580000000  0.5954670000000  0.5584690000000 1.0
C      1  0.4101980000000  0.4631670000000  0.4441210000000 1.0
C      1  0.3951430000000  0.4506610000000  0.5182150000000 1.0
C      1  0.5006330000000  0.4973010000000  0.5100020000000 1.0
C      1  0.4488500000000  0.3852280000000  0.5536530000000 1.0
C      1  0.5308870000000  0.5229160000000  0.4008200000000 1.0
C      1  0.4284690000000  0.4312540000000  0.5565450000000 1.0
C      1  0.3999650000000  0.5115190000000  0.5686070000000 1.0
C      1  0.5477000000000  0.4518300000000  0.5568290000000 1.0
C      1  0.4735790000000  0.5508800000000  0.4288240000000 1.0
C      1  0.4790290000000  0.5056400000000  0.4936170000000 1.0
END
