TITL C-627113-6568-1552 2.23917692285502e-07 125000 -464.213968663001 0 0 77 (C1) n - 1
REM
REM in /home/nfs/bkarasulu/CARBON/AIRSS/Generating-Clusters/LCBOP/Only-C1/SD-CG/FIRE-CG
REM
REM
REM
REM
REM
REM ./C.cell (11c1c37f851c82e70ff6c80c92926a4b)
REM AIRSS Version 0.9.1 bugfix July 2018 build 013d7b7c2542+ Fri, 06 Jul 2018 19:26:36 +0100
REM compiler GCC version 9.2.1 20190827 (Red Hat 9.2.1-1)
REM options -cpp -mtune=generic -march=x86-64 -g -O0 -fpre-include=/usr/include/finclude/math-vector-fortran.h
REM seed -1379086181 1285636558 -1814205602 842753934 1648889292 -1899829728 -2107949367 -1639642284 721126490 873908137 947757672 -2001324153 -1193776299 1538319378 743778708 804472021 -361138338 -1474300554 1953246107 161231152 1960508192 1303410888 2077155482 2019349067 -225648703 -614936603 -1661234131 -158802308 -2079057722 -908061361 546278468 -124653902 1011182828
REM
CELL 1.54180   50.00000   50.00000   50.00000   90.00000   90.00000   90.00000
LATT -1
SFAC C  
C      1  0.4780490000000  0.5400200000000  0.5173100000000 1.0
C      1  0.5310990000000  0.5744330000000  0.5383880000000 1.0
C      1  0.4372850000000  0.5111390000000  0.5505960000000 1.0
C      1  0.4628000000000  0.4970650000000  0.4944360000000 1.0
C      1  0.3951870000000  0.4758750000000  0.4992810000000 1.0
C      1  0.5402170000000  0.5009410000000  0.5774140000000 1.0
C      1  0.5062120000000  0.5341690000000  0.5562880000000 1.0
C      1  0.5887340000000  0.5030450000000  0.5791040000000 1.0
C      1  0.5561300000000  0.4439070000000  0.4349980000000 1.0
C      1  0.4104650000000  0.5168030000000  0.5142780000000 1.0
C      1  0.5540200000000  0.4380850000000  0.4611640000000 1.0
C      1  0.4677220000000  0.4169080000000  0.5967910000000 1.0
C      1  0.5384500000000  0.4432360000000  0.4824970000000 1.0
C      1  0.4676880000000  0.4453800000000  0.4720290000000 1.0
C      1  0.5184760000000  0.5184830000000  0.5757140000000 1.0
C      1  0.4087890000000  0.4871310000000  0.5221560000000 1.0
C      1  0.4945930000000  0.4536400000000  0.4690040000000 1.0
C      1  0.5265630000000  0.5336340000000  0.4288960000000 1.0
C      1  0.5706470000000  0.5181270000000  0.4489500000000 1.0
C      1  0.3929470000000  0.4943070000000  0.4786090000000 1.0
C      1  0.4498800000000  0.5446530000000  0.5148670000000 1.0
C      1  0.4619120000000  0.5179530000000  0.4049270000000 1.0
C      1  0.4920500000000  0.5473990000000  0.4939020000000 1.0
C      1  0.4800420000000  0.4758880000000  0.5326420000000 1.0
C      1  0.5433130000000  0.5269620000000  0.4511930000000 1.0
C      1  0.4468930000000  0.4557430000000  0.4578320000000 1.0
C      1  0.4565410000000  0.4823490000000  0.5174840000000 1.0
C      1  0.5506560000000  0.5658990000000  0.5200040000000 1.0
C      1  0.4752200000000  0.4601520000000  0.5555040000000 1.0
C      1  0.4906500000000  0.4260600000000  0.5860630000000 1.0
C      1  0.5013090000000  0.5261050000000  0.4778360000000 1.0
C      1  0.5655800000000  0.5257800000000  0.5434250000000 1.0
C      1  0.4552420000000  0.5361860000000  0.4264400000000 1.0
C      1  0.5155140000000  0.4681620000000  0.4191110000000 1.0
C      1  0.5183850000000  0.4813690000000  0.5070820000000 1.0
C      1  0.4306820000000  0.5305160000000  0.5301430000000 1.0
C      1  0.4333660000000  0.5273580000000  0.4439990000000 1.0
C      1  0.4974730000000  0.4471240000000  0.5684700000000 1.0
C      1  0.5299750000000  0.5256960000000  0.4760700000000 1.0
C      1  0.5819050000000  0.4982450000000  0.4659680000000 1.0
C      1  0.4808720000000  0.4996090000000  0.3985870000000 1.0
C      1  0.5529900000000  0.5909670000000  0.4790090000000 1.0
C      1  0.4423080000000  0.4251010000000  0.5930670000000 1.0
C      1  0.5349760000000  0.4743160000000  0.5859310000000 1.0
C      1  0.4457380000000  0.4617440000000  0.5589640000000 1.0
C      1  0.5867470000000  0.5296990000000  0.4299520000000 1.0
C      1  0.5443300000000  0.4490120000000  0.5463810000000 1.0
C      1  0.4329020000000  0.4445700000000  0.5769890000000 1.0
C      1  0.5004090000000  0.4936640000000  0.5259580000000 1.0
C      1  0.4247510000000  0.5359450000000  0.4704370000000 1.0
C      1  0.5667900000000  0.4769600000000  0.5091040000000 1.0
C      1  0.5413090000000  0.4567550000000  0.4164460000000 1.0
C      1  0.4405260000000  0.5517890000000  0.4883090000000 1.0
C      1  0.4773030000000  0.5528970000000  0.4329640000000 1.0
C      1  0.5643480000000  0.5837400000000  0.5028600000000 1.0
C      1  0.4808840000000  0.5058190000000  0.4737730000000 1.0
C      1  0.5845260000000  0.4822700000000  0.4877050000000 1.0
C      1  0.5251510000000  0.4557270000000  0.5663450000000 1.0
C      1  0.4057810000000  0.5195750000000  0.4849990000000 1.0
C      1  0.5017920000000  0.4585150000000  0.4417980000000 1.0
C      1  0.5249680000000  0.5142700000000  0.4084550000000 1.0
C      1  0.4731530000000  0.4945220000000  0.4493100000000 1.0
C      1  0.4275800000000  0.4993610000000  0.4391780000000 1.0
C      1  0.5445700000000  0.5206060000000  0.5000430000000 1.0
C      1  0.5555830000000  0.5378550000000  0.5197660000000 1.0
C      1  0.5150710000000  0.4585660000000  0.4886350000000 1.0
C      1  0.4339070000000  0.4824340000000  0.5393970000000 1.0
C      1  0.4480520000000  0.4809570000000  0.4451880000000 1.0
C      1  0.5393020000000  0.4665720000000  0.6117970000000 1.0
C      1  0.5134530000000  0.5613080000000  0.5537930000000 1.0
C      1  0.5043350000000  0.5513460000000  0.4314660000000 1.0
C      1  0.4940010000000  0.5217270000000  0.5336880000000 1.0
C      1  0.5636410000000  0.4570270000000  0.5290590000000 1.0
C      1  0.5888110000000  0.5935330000000  0.5103180000000 1.0
C      1  0.5652670000000  0.5097870000000  0.5667430000000 1.0
C      1  0.5073870000000  0.4922190000000  0.4057830000000 1.0
C      1  0.5438240000000  0.4933090000000  0.5069390000000 1.0
END
