TITL C-627109-622-1282 0.94473824109617 125000 -578.88070950145 0 0 97 (C1) n - 1
REM
REM in /home/nfs/bkarasulu/CARBON/AIRSS/Generating-Clusters/LCBOP/Only-C1/SD-CG/FIRE-CG
REM
REM
REM
REM
REM
REM ./C.cell (11c1c37f851c82e70ff6c80c92926a4b)
REM AIRSS Version 0.9.1 bugfix July 2018 build 013d7b7c2542+ Fri, 06 Jul 2018 19:26:36 +0100
REM compiler GCC version 9.2.1 20190827 (Red Hat 9.2.1-1)
REM options -cpp -mtune=generic -march=x86-64 -g -O0 -fpre-include=/usr/include/finclude/math-vector-fortran.h
REM seed -505310768 -737632914 964125927 -1238454189 -2087471570 752891065 -1494252086 -1242454899 1011955206 118532951 -330085626 -1945181175 612399807 1244842569 -5486165 1614917907 -456840376 1380156876 -1348397153 -1897800983 -1948865753 -1411178078 907003853 -1228077814 -1412739587 1628025671 -1835750543 -1179354210 1191617136 278113729 1966280389 553758567 -1682784420
REM
CELL 1.54180   50.00000   50.00000   50.00000   90.00000   90.00000   90.00000
LATT -1
SFAC C  
C      1  0.4238620000000  0.5127490000000  0.5229990000000 1.0
C      1  0.4451240000000  0.5008730000000  0.3909080000000 1.0
C      1  0.4441860000000  0.4835090000000  0.4126570000000 1.0
C      1  0.6271680000000  0.4974140000000  0.5161640000000 1.0
C      1  0.5617080000000  0.4741340000000  0.5089430000000 1.0
C      1  0.4773930000000  0.4455130000000  0.5132180000000 1.0
C      1  0.5215640000000  0.4403340000000  0.3418380000000 1.0
C      1  0.5338140000000  0.5558990000000  0.5026540000000 1.0
C      1  0.5519420000000  0.5087940000000  0.4551100000000 1.0
C      1  0.4029980000000  0.5382260000000  0.4774920000000 1.0
C      1  0.5350160000000  0.5324680000000  0.5692510000000 1.0
C      1  0.4522270000000  0.5809790000000  0.5403000000000 1.0
C      1  0.5210560000000  0.5482120000000  0.4787430000000 1.0
C      1  0.5737240000000  0.5027060000000  0.4717240000000 1.0
C      1  0.5425610000000  0.5569760000000  0.5277750000000 1.0
C      1  0.6187350000000  0.4578820000000  0.4860480000000 1.0
C      1  0.6189000000000  0.4337900000000  0.4750140000000 1.0
C      1  0.5465460000000  0.4913640000000  0.4338880000000 1.0
C      1  0.4982680000000  0.5194240000000  0.4139270000000 1.0
C      1  0.4204180000000  0.5418000000000  0.5232910000000 1.0
C      1  0.4337240000000  0.5597670000000  0.5401200000000 1.0
C      1  0.4615450000000  0.4586150000000  0.4489630000000 1.0
C      1  0.5308350000000  0.4754740000000  0.6132180000000 1.0
C      1  0.6013360000000  0.5542250000000  0.5619820000000 1.0
C      1  0.4434550000000  0.4734620000000  0.5870270000000 1.0
C      1  0.4141530000000  0.4976380000000  0.5002070000000 1.0
C      1  0.5404480000000  0.4688200000000  0.4212100000000 1.0
C      1  0.4762800000000  0.5441800000000  0.4560910000000 1.0
C      1  0.5895080000000  0.3979820000000  0.4521850000000 1.0
C      1  0.4765680000000  0.5767050000000  0.5261020000000 1.0
C      1  0.5820700000000  0.4927740000000  0.4982660000000 1.0
C      1  0.4258580000000  0.4643770000000  0.6065790000000 1.0
C      1  0.5500900000000  0.5505930000000  0.5540750000000 1.0
C      1  0.5064860000000  0.4470580000000  0.3935470000000 1.0
C      1  0.4585840000000  0.6019840000000  0.4071110000000 1.0
C      1  0.4988610000000  0.4272210000000  0.4500530000000 1.0
C      1  0.4865750000000  0.5257460000000  0.5333880000000 1.0
C      1  0.5861340000000  0.5163430000000  0.5173720000000 1.0
C      1  0.4343140000000  0.4861350000000  0.5637410000000 1.0
C      1  0.4969740000000  0.4703100000000  0.5785810000000 1.0
C      1  0.4800070000000  0.4515670000000  0.4013540000000 1.0
C      1  0.5678370000000  0.4449150000000  0.6765810000000 1.0
C      1  0.4418580000000  0.5006790000000  0.5411800000000 1.0
C      1  0.4187820000000  0.5165490000000  0.4383940000000 1.0
C      1  0.4547720000000  0.5764420000000  0.3961130000000 1.0
C      1  0.3929350000000  0.4455250000000  0.6429610000000 1.0
C      1  0.6174230000000  0.5378940000000  0.5480910000000 1.0
C      1  0.4858790000000  0.5285520000000  0.4349690000000 1.0
C      1  0.5256140000000  0.4615110000000  0.5396580000000 1.0
C      1  0.4525020000000  0.6242020000000  0.3923140000000 1.0
C      1  0.5922940000000  0.4246700000000  0.7184890000000 1.0
C      1  0.4690350000000  0.5061900000000  0.5371300000000 1.0
C      1  0.4672000000000  0.4217890000000  0.5544980000000 1.0
C      1  0.4303010000000  0.4912910000000  0.4366020000000 1.0
C      1  0.4782590000000  0.6012410000000  0.4576650000000 1.0
C      1  0.5750970000000  0.5590810000000  0.5636680000000 1.0
C      1  0.4483770000000  0.5476390000000  0.4590630000000 1.0
C      1  0.4889610000000  0.5520400000000  0.5306190000000 1.0
C      1  0.4471270000000  0.6047030000000  0.5539270000000 1.0
C      1  0.3945790000000  0.5118800000000  0.4849940000000 1.0
C      1  0.4905490000000  0.4528530000000  0.4894910000000 1.0
C      1  0.5647290000000  0.3955910000000  0.4429630000000 1.0
C      1  0.5290510000000  0.4371730000000  0.3170670000000 1.0
C      1  0.5346370000000  0.5297340000000  0.4623530000000 1.0
C      1  0.4219690000000  0.5380660000000  0.4562300000000 1.0
C      1  0.5163720000000  0.4637950000000  0.4931380000000 1.0
C      1  0.5353780000000  0.4664330000000  0.5137850000000 1.0
C      1  0.4864490000000  0.5941820000000  0.5059680000000 1.0
C      1  0.4685800000000  0.6049050000000  0.4331650000000 1.0
C      1  0.5431830000000  0.4653210000000  0.6343350000000 1.0
C      1  0.4711880000000  0.4701770000000  0.5895440000000 1.0
C      1  0.4814640000000  0.4414660000000  0.5408310000000 1.0
C      1  0.4623920000000  0.4624520000000  0.4197890000000 1.0
C      1  0.4298150000000  0.4794620000000  0.4851420000000 1.0
C      1  0.4820190000000  0.4454440000000  0.4634290000000 1.0
C      1  0.4874210000000  0.5853090000000  0.4789220000000 1.0
C      1  0.5175550000000  0.4856900000000  0.5908660000000 1.0
C      1  0.4534190000000  0.4040250000000  0.5676770000000 1.0
C      1  0.6089860000000  0.4120650000000  0.4634540000000 1.0
C      1  0.5246750000000  0.5107940000000  0.5806200000000 1.0
C      1  0.4957930000000  0.6190360000000  0.5126640000000 1.0
C      1  0.4398750000000  0.4753110000000  0.4592430000000 1.0
C      1  0.5555100000000  0.4551180000000  0.6554580000000 1.0
C      1  0.5018050000000  0.4569150000000  0.5539290000000 1.0
C      1  0.4501150000000  0.5524150000000  0.3857150000000 1.0
C      1  0.6107750000000  0.4810990000000  0.4988200000000 1.0
C      1  0.4428080000000  0.6272550000000  0.5662530000000 1.0
C      1  0.5139920000000  0.4435520000000  0.3670220000000 1.0
C      1  0.4468610000000  0.5261670000000  0.3826250000000 1.0
C      1  0.5407700000000  0.4052730000000  0.4369720000000 1.0
C      1  0.4092550000000  0.4549180000000  0.6249310000000 1.0
C      1  0.4951670000000  0.5586050000000  0.4720750000000 1.0
C      1  0.4076430000000  0.5534960000000  0.5006260000000 1.0
C      1  0.6128310000000  0.5188740000000  0.5284280000000 1.0
C      1  0.5801670000000  0.4347080000000  0.6977090000000 1.0
C      1  0.5216960000000  0.4252750000000  0.4338690000000 1.0
C      1  0.5252570000000  0.4462300000000  0.4148620000000 1.0
END
