TITL C-627111-6168-1763 0.0793787429352732 125000 -891.871924161316 0 0 147 (C1) n - 1
REM
REM in /home/nfs/bkarasulu/CARBON/AIRSS/Generating-Clusters/LCBOP/Only-C1/SD-CG/FIRE-CG
REM
REM
REM
REM
REM
REM ./C.cell (11c1c37f851c82e70ff6c80c92926a4b)
REM AIRSS Version 0.9.1 bugfix July 2018 build 013d7b7c2542+ Fri, 06 Jul 2018 19:26:36 +0100
REM compiler GCC version 9.2.1 20190827 (Red Hat 9.2.1-1)
REM options -cpp -mtune=generic -march=x86-64 -g -O0 -fpre-include=/usr/include/finclude/math-vector-fortran.h
REM seed 619654891 -385606058 -401730152 972764077 -239512169 647846307 1464148152 377670132 -1323481466 667149490 -1683491350 1925153332 -195689461 -2115904733 -825547688 -2088436171 -754719194 -795506566 973499 -1478832879 -222456235 700361239 -1274996772 1375620335 -942823772 635024126 -1674995718 -154683805 980875163 2104779893 -589596158 -1259142991 363588575
REM
CELL 1.54180   50.00000   50.00000   50.00000   90.00000   90.00000   90.00000
LATT -1
SFAC C  
C      1  0.4554060000000  0.4815100000000  0.4708060000000 1.0
C      1  0.4249730000000  0.3788490000000  0.5503200000000 1.0
C      1  0.4940230000000  0.6278180000000  0.4398920000000 1.0
C      1  0.6061990000000  0.4654340000000  0.4976630000000 1.0
C      1  0.4431290000000  0.3968010000000  0.5387100000000 1.0
C      1  0.4286180000000  0.4696350000000  0.4287000000000 1.0
C      1  0.4528620000000  0.5244460000000  0.5328390000000 1.0
C      1  0.5462100000000  0.4577220000000  0.4606560000000 1.0
C      1  0.4484460000000  0.6156410000000  0.5134480000000 1.0
C      1  0.5463750000000  0.4472540000000  0.4882720000000 1.0
C      1  0.3932850000000  0.6582890000000  0.5931450000000 1.0
C      1  0.4481820000000  0.4896190000000  0.6017290000000 1.0
C      1  0.5500660000000  0.5681760000000  0.5896940000000 1.0
C      1  0.5558910000000  0.5140210000000  0.4755040000000 1.0
C      1  0.5108580000000  0.4831490000000  0.3925980000000 1.0
C      1  0.4473290000000  0.4702300000000  0.5211600000000 1.0
C      1  0.4810380000000  0.5078830000000  0.4409750000000 1.0
C      1  0.4172160000000  0.4895050000000  0.5493360000000 1.0
C      1  0.4819200000000  0.5580230000000  0.4470950000000 1.0
C      1  0.5129570000000  0.5386880000000  0.5387470000000 1.0
C      1  0.5673000000000  0.5319280000000  0.5325130000000 1.0
C      1  0.5406920000000  0.6071000000000  0.4999360000000 1.0
C      1  0.5405860000000  0.5924720000000  0.5831130000000 1.0
C      1  0.6035330000000  0.5149630000000  0.4382080000000 1.0
C      1  0.4001640000000  0.4653230000000  0.5131700000000 1.0
C      1  0.5774470000000  0.5157200000000  0.5756200000000 1.0
C      1  0.5483410000000  0.4191930000000  0.4282280000000 1.0
C      1  0.4328130000000  0.5691980000000  0.4606640000000 1.0
C      1  0.4555300000000  0.4460830000000  0.5338350000000 1.0
C      1  0.4861690000000  0.5532660000000  0.5926450000000 1.0
C      1  0.4626160000000  0.6052020000000  0.4915000000000 1.0
C      1  0.4152510000000  0.5178960000000  0.4498950000000 1.0
C      1  0.6091040000000  0.5059360000000  0.5349000000000 1.0
C      1  0.5885310000000  0.4239580000000  0.4654560000000 1.0
C      1  0.5335790000000  0.4383870000000  0.5624710000000 1.0
C      1  0.6260620000000  0.5540420000000  0.5220250000000 1.0
C      1  0.5587920000000  0.5395970000000  0.4859290000000 1.0
C      1  0.5270700000000  0.4300270000000  0.4106960000000 1.0
C      1  0.4786670000000  0.4855580000000  0.4568050000000 1.0
C      1  0.4064990000000  0.6480740000000  0.5725640000000 1.0
C      1  0.4887040000000  0.4219460000000  0.4407620000000 1.0
C      1  0.5005090000000  0.4594680000000  0.5275480000000 1.0
C      1  0.4420800000000  0.4233200000000  0.4288220000000 1.0
C      1  0.4317400000000  0.4678060000000  0.4756710000000 1.0
C      1  0.4985900000000  0.4344420000000  0.4168270000000 1.0
C      1  0.5252300000000  0.5023690000000  0.4084200000000 1.0
C      1  0.5105640000000  0.5447050000000  0.6005200000000 1.0
C      1  0.3802880000000  0.6683350000000  0.6133900000000 1.0
C      1  0.5345900000000  0.4840270000000  0.5522450000000 1.0
C      1  0.5288210000000  0.4675050000000  0.3759420000000 1.0
C      1  0.5131280000000  0.4602620000000  0.5550950000000 1.0
C      1  0.5582510000000  0.4460390000000  0.5489990000000 1.0
C      1  0.4079430000000  0.3625570000000  0.5614440000000 1.0
C      1  0.5403310000000  0.4186130000000  0.4951900000000 1.0
C      1  0.4541780000000  0.5446570000000  0.5539140000000 1.0
C      1  0.5266500000000  0.3984080000000  0.4782470000000 1.0
C      1  0.4463660000000  0.4659770000000  0.5863780000000 1.0
C      1  0.5321080000000  0.4968970000000  0.4355680000000 1.0
C      1  0.5187560000000  0.6067240000000  0.5768870000000 1.0
C      1  0.4682590000000  0.5624180000000  0.5720490000000 1.0
C      1  0.4845270000000  0.5492510000000  0.4996430000000 1.0
C      1  0.5741260000000  0.5452420000000  0.5090770000000 1.0
C      1  0.5474580000000  0.5646460000000  0.4785250000000 1.0
C      1  0.4259660000000  0.4989850000000  0.4280140000000 1.0
C      1  0.5692410000000  0.4608580000000  0.4456170000000 1.0
C      1  0.5058530000000  0.5850080000000  0.5233810000000 1.0
C      1  0.6014240000000  0.4394620000000  0.4847710000000 1.0
C      1  0.5035440000000  0.4114980000000  0.5212440000000 1.0
C      1  0.4197880000000  0.6378150000000  0.5520610000000 1.0
C      1  0.4261020000000  0.4637360000000  0.5022600000000 1.0
C      1  0.4232790000000  0.4652780000000  0.5678080000000 1.0
C      1  0.4309820000000  0.4145190000000  0.4747660000000 1.0
C      1  0.4817070000000  0.5807290000000  0.4306800000000 1.0
C      1  0.6122650000000  0.4791080000000  0.5232150000000 1.0
C      1  0.4629470000000  0.4978210000000  0.3928940000000 1.0
C      1  0.5382360000000  0.3970720000000  0.5472250000000 1.0
C      1  0.4646450000000  0.5093360000000  0.5942550000000 1.0
C      1  0.5123490000000  0.6054090000000  0.5050710000000 1.0
C      1  0.4616600000000  0.5334050000000  0.5066450000000 1.0
C      1  0.4961280000000  0.4662540000000  0.5796570000000 1.0
C      1  0.5700420000000  0.4167170000000  0.4456800000000 1.0
C      1  0.5762340000000  0.5193710000000  0.4326640000000 1.0
C      1  0.4483390000000  0.4495540000000  0.4160570000000 1.0
C      1  0.4906680000000  0.4392790000000  0.4635170000000 1.0
C      1  0.4999880000000  0.4837570000000  0.5135380000000 1.0
C      1  0.4199510000000  0.4560470000000  0.4530160000000 1.0
C      1  0.4237130000000  0.4275160000000  0.4508300000000 1.0
C      1  0.5048150000000  0.3828710000000  0.4865090000000 1.0
C      1  0.4933070000000  0.4362000000000  0.5129990000000 1.0
C      1  0.5009190000000  0.4089150000000  0.5818130000000 1.0
C      1  0.6081090000000  0.5002400000000  0.4617640000000 1.0
C      1  0.4460130000000  0.5255030000000  0.4859750000000 1.0
C      1  0.4785740000000  0.4336230000000  0.4884930000000 1.0
C      1  0.4764360000000  0.4526800000000  0.4066460000000 1.0
C      1  0.5530410000000  0.5122220000000  0.4471490000000 1.0
C      1  0.4232050000000  0.5461420000000  0.4496160000000 1.0
C      1  0.5596340000000  0.5865000000000  0.4941810000000 1.0
C      1  0.4413680000000  0.5084290000000  0.4055990000000 1.0
C      1  0.3954170000000  0.5093170000000  0.5024640000000 1.0
C      1  0.5209710000000  0.5651300000000  0.4711190000000 1.0
C      1  0.5522100000000  0.5091740000000  0.3686580000000 1.0
C      1  0.4986210000000  0.4660300000000  0.4577030000000 1.0
C      1  0.4475880000000  0.5878580000000  0.4739710000000 1.0
C      1  0.4925770000000  0.6065720000000  0.5710070000000 1.0
C      1  0.4815540000000  0.5127270000000  0.5737720000000 1.0
C      1  0.4430780000000  0.4963710000000  0.5353580000000 1.0
C      1  0.4895400000000  0.3886050000000  0.5107860000000 1.0
C      1  0.4903050000000  0.6145220000000  0.4885860000000 1.0
C      1  0.4874300000000  0.6062350000000  0.4254630000000 1.0
C      1  0.4715620000000  0.5901150000000  0.5671840000000 1.0
C      1  0.4641960000000  0.3854940000000  0.5228160000000 1.0
C      1  0.4335910000000  0.6271330000000  0.5321240000000 1.0
C      1  0.6097120000000  0.5749090000000  0.5156700000000 1.0
C      1  0.5324670000000  0.4088950000000  0.5219610000000 1.0
C      1  0.5133170000000  0.4840150000000  0.5947770000000 1.0
C      1  0.4649010000000  0.4076010000000  0.4352180000000 1.0
C      1  0.4783740000000  0.4234200000000  0.5869910000000 1.0
C      1  0.4538420000000  0.4198370000000  0.4879700000000 1.0
C      1  0.4782810000000  0.5333660000000  0.4352740000000 1.0
C      1  0.4720690000000  0.4512380000000  0.5847650000000 1.0
C      1  0.5416440000000  0.5190650000000  0.3918640000000 1.0
C      1  0.5405990000000  0.5358980000000  0.5398250000000 1.0
C      1  0.5384300000000  0.5427960000000  0.5944870000000 1.0
C      1  0.4183540000000  0.4381090000000  0.5588140000000 1.0
C      1  0.5548960000000  0.4704150000000  0.5054440000000 1.0
C      1  0.5852160000000  0.5160290000000  0.5482430000000 1.0
C      1  0.4939850000000  0.5575750000000  0.4730300000000 1.0
C      1  0.4956760000000  0.6310860000000  0.4664450000000 1.0
C      1  0.5079180000000  0.5031100000000  0.4981400000000 1.0
C      1  0.5824370000000  0.5733420000000  0.5085620000000 1.0
C      1  0.5347810000000  0.4419370000000  0.3860290000000 1.0
C      1  0.5672820000000  0.4918340000000  0.4894950000000 1.0
C      1  0.5543700000000  0.4707090000000  0.5341630000000 1.0
C      1  0.6265590000000  0.5274690000000  0.5274270000000 1.0
C      1  0.4973650000000  0.5215420000000  0.5542910000000 1.0
C      1  0.5008540000000  0.5576130000000  0.5216400000000 1.0
C      1  0.5463580000000  0.4837490000000  0.3605080000000 1.0
C      1  0.5946230000000  0.4867200000000  0.4821610000000 1.0
C      1  0.4832610000000  0.4780230000000  0.3950510000000 1.0
C      1  0.5509350000000  0.5179410000000  0.5863380000000 1.0
C      1  0.5246300000000  0.4733430000000  0.4506860000000 1.0
C      1  0.5260610000000  0.4116720000000  0.5689230000000 1.0
C      1  0.5342460000000  0.4961110000000  0.5792290000000 1.0
C      1  0.6235790000000  0.5241090000000  0.4222340000000 1.0
C      1  0.4391660000000  0.4247990000000  0.5437330000000 1.0
C      1  0.4008710000000  0.5111440000000  0.4751620000000 1.0
C      1  0.3969050000000  0.4912100000000  0.5262030000000 1.0
END
