TITL C-627112-676-1650 0.467395899321886 125000 -560.164073215851 0 0 92 (C1) n - 1
REM
REM in /home/nfs/bkarasulu/CARBON/AIRSS/Generating-Clusters/LCBOP/Only-C1/SD-CG/FIRE-CG
REM
REM
REM
REM
REM
REM ./C.cell (11c1c37f851c82e70ff6c80c92926a4b)
REM AIRSS Version 0.9.1 bugfix July 2018 build 013d7b7c2542+ Fri, 06 Jul 2018 19:26:36 +0100
REM compiler GCC version 9.2.1 20190827 (Red Hat 9.2.1-1)
REM options -cpp -mtune=generic -march=x86-64 -g -O0 -fpre-include=/usr/include/finclude/math-vector-fortran.h
REM seed -617091797 1169772325 -307966664 -666972843 -1943898419 -976500552 -1363050407 1900567700 -70907454 -1869596052 -522015571 1878723151 487418035 1795469877 -1683091809 955966189 251420931 -1805801576 -337979689 -1535728334 -172552089 -1510876863 -1221690046 1066643197 -408873478 -1914497832 538548541 -534585709 -98914969 -1740507357 -1313478986 -408152720 -1989835385
REM
CELL 1.54180   50.00000   50.00000   50.00000   90.00000   90.00000   90.00000
LATT -1
SFAC C  
C      1  0.5844900000000  0.4733860000000  0.5384450000000 1.0
C      1  0.5321150000000  0.5687180000000  0.4941040000000 1.0
C      1  0.4864240000000  0.4748410000000  0.6027520000000 1.0
C      1  0.5265950000000  0.3876130000000  0.4756100000000 1.0
C      1  0.5335040000000  0.4847490000000  0.5914630000000 1.0
C      1  0.5925280000000  0.4341340000000  0.4913590000000 1.0
C      1  0.5178180000000  0.5423910000000  0.4561600000000 1.0
C      1  0.4573340000000  0.4857960000000  0.5670450000000 1.0
C      1  0.5005300000000  0.4044750000000  0.5663620000000 1.0
C      1  0.5478950000000  0.5004950000000  0.4464300000000 1.0
C      1  0.4694160000000  0.5281400000000  0.3982990000000 1.0
C      1  0.5147980000000  0.5357120000000  0.5322820000000 1.0
C      1  0.4623600000000  0.6067480000000  0.4685890000000 1.0
C      1  0.5991310000000  0.4815420000000  0.5173360000000 1.0
C      1  0.5259600000000  0.4035800000000  0.5577920000000 1.0
C      1  0.4603250000000  0.4076850000000  0.5401960000000 1.0
C      1  0.5073610000000  0.4004280000000  0.4583550000000 1.0
C      1  0.5109930000000  0.4106800000000  0.4315050000000 1.0
C      1  0.5144400000000  0.4352470000000  0.4196150000000 1.0
C      1  0.4694080000000  0.4105500000000  0.4895770000000 1.0
C      1  0.4345250000000  0.6044620000000  0.4688400000000 1.0
C      1  0.4500540000000  0.5367910000000  0.4705090000000 1.0
C      1  0.5513990000000  0.4904110000000  0.5701860000000 1.0
C      1  0.5465690000000  0.4788390000000  0.5004880000000 1.0
C      1  0.4929160000000  0.4691700000000  0.4777890000000 1.0
C      1  0.5924690000000  0.5016040000000  0.4709170000000 1.0
C      1  0.4670620000000  0.4652210000000  0.5840240000000 1.0
C      1  0.3410220000000  0.5754160000000  0.4892690000000 1.0
C      1  0.5216640000000  0.4616020000000  0.4217430000000 1.0
C      1  0.5746830000000  0.4888950000000  0.4508460000000 1.0
C      1  0.5149070000000  0.4564750000000  0.5417190000000 1.0
C      1  0.3734820000000  0.5970330000000  0.5538300000000 1.0
C      1  0.5060530000000  0.4918260000000  0.5911320000000 1.0
C      1  0.4685850000000  0.5164780000000  0.5297200000000 1.0
C      1  0.3817880000000  0.5170810000000  0.5031180000000 1.0
C      1  0.4366660000000  0.5538420000000  0.5341370000000 1.0
C      1  0.5102530000000  0.5597700000000  0.4782730000000 1.0
C      1  0.4628720000000  0.5480430000000  0.4928630000000 1.0
C      1  0.5322940000000  0.4422250000000  0.4726910000000 1.0
C      1  0.4857570000000  0.4686870000000  0.6292860000000 1.0
C      1  0.5414270000000  0.4478270000000  0.5471040000000 1.0
C      1  0.5001340000000  0.5391490000000  0.4346710000000 1.0
C      1  0.3735240000000  0.5406450000000  0.4956550000000 1.0
C      1  0.5998770000000  0.4563130000000  0.4752420000000 1.0
C      1  0.4095780000000  0.5964310000000  0.4727040000000 1.0
C      1  0.5202160000000  0.5253530000000  0.5579490000000 1.0
C      1  0.4865770000000  0.5045490000000  0.5110170000000 1.0
C      1  0.5701630000000  0.4404110000000  0.4395770000000 1.0
C      1  0.4906750000000  0.4183460000000  0.4735370000000 1.0
C      1  0.4169910000000  0.5685710000000  0.5440060000000 1.0
C      1  0.5017520000000  0.4865710000000  0.4572660000000 1.0
C      1  0.5638460000000  0.5400850000000  0.4742590000000 1.0
C      1  0.3669150000000  0.5667180000000  0.4879800000000 1.0
C      1  0.4744140000000  0.5330170000000  0.4252180000000 1.0
C      1  0.5038270000000  0.4432410000000  0.4754600000000 1.0
C      1  0.4883280000000  0.6322850000000  0.4287880000000 1.0
C      1  0.5659440000000  0.5328260000000  0.5449840000000 1.0
C      1  0.5480080000000  0.5171320000000  0.5602210000000 1.0
C      1  0.5476190000000  0.4317910000000  0.4513600000000 1.0
C      1  0.5849690000000  0.4614520000000  0.4504210000000 1.0
C      1  0.5439430000000  0.4190870000000  0.5424920000000 1.0
C      1  0.4864240000000  0.4773380000000  0.5041420000000 1.0
C      1  0.4985470000000  0.5111270000000  0.5706210000000 1.0
C      1  0.5341690000000  0.5020980000000  0.5031520000000 1.0
C      1  0.5895430000000  0.5290520000000  0.4733790000000 1.0
C      1  0.4774500000000  0.5945180000000  0.4893320000000 1.0
C      1  0.4661820000000  0.4379600000000  0.5775840000000 1.0
C      1  0.5670680000000  0.5480120000000  0.5227420000000 1.0
C      1  0.3511980000000  0.6103840000000  0.5560120000000 1.0
C      1  0.4850800000000  0.6088280000000  0.5113680000000 1.0
C      1  0.5668540000000  0.4320780000000  0.5028150000000 1.0
C      1  0.5532750000000  0.4109690000000  0.5163600000000 1.0
C      1  0.4652200000000  0.5227470000000  0.3727020000000 1.0
C      1  0.5120870000000  0.5170830000000  0.5112110000000 1.0
C      1  0.4747230000000  0.4154520000000  0.5630220000000 1.0
C      1  0.5432790000000  0.5282020000000  0.4571220000000 1.0
C      1  0.5606960000000  0.4688600000000  0.5532730000000 1.0
C      1  0.6027110000000  0.4818520000000  0.4893140000000 1.0
C      1  0.5242060000000  0.4842990000000  0.4394250000000 1.0
C      1  0.4941550000000  0.4605180000000  0.5254430000000 1.0
C      1  0.5564010000000  0.5549110000000  0.4974720000000 1.0
C      1  0.4588750000000  0.4064240000000  0.5136520000000 1.0
C      1  0.5484070000000  0.4520350000000  0.4936310000000 1.0
C      1  0.4541180000000  0.5318410000000  0.4445920000000 1.0
C      1  0.3957630000000  0.5831030000000  0.5503580000000 1.0
C      1  0.4753660000000  0.6204470000000  0.4480490000000 1.0
C      1  0.5405030000000  0.3920670000000  0.4987460000000 1.0
C      1  0.4556360000000  0.5397200000000  0.5194690000000 1.0
C      1  0.4838400000000  0.5668180000000  0.4869900000000 1.0
C      1  0.4611540000000  0.5173620000000  0.3475200000000 1.0
C      1  0.4727100000000  0.5075220000000  0.5568550000000 1.0
C      1  0.3871870000000  0.5837960000000  0.4790800000000 1.0
END
