TITL C-627107-135-1480 -588.061487716612 125000 -710.393264956495 0 0 118 (C1) n - 1
REM
REM in /home/nfs/bkarasulu/CARBON/AIRSS/Generating-Clusters/LCBOP/Only-C1/SD-CG/FIRE-CG
REM
REM
REM
REM
REM
REM ./C.cell (11c1c37f851c82e70ff6c80c92926a4b)
REM AIRSS Version 0.9.1 bugfix July 2018 build 013d7b7c2542+ Fri, 06 Jul 2018 19:26:36 +0100
REM compiler GCC version 9.2.1 20190827 (Red Hat 9.2.1-1)
REM options -cpp -mtune=generic -march=x86-64 -g -O0 -fpre-include=/usr/include/finclude/math-vector-fortran.h
REM seed -1684181604 102637453 1771613199 835298867 -1468105876 1192469434 -1959612584 -1978351686 -332048246 -836418186 -1071693586 644445391 1851404774 702500938 1040470299 -1601149183 1746658537 -313509712 1062697726 -825518774 -1431428548 340009189 622422664 679993017 840141652 -123114632 -146926649 1943967877 -954852522 443163968 2123518863 152820335 71443221
REM
CELL 1.54180   50.00000   50.00000   50.00000   90.00000   90.00000   90.00000
LATT -1
SFAC C  
C      1  0.4330090000000  0.5260580000000  0.4465490000000 1.0
C      1  0.4588810000000  0.5770660000000  0.5586430000000 1.0
C      1  0.4390860000000  0.5712750000000  0.5387420000000 1.0
C      1  0.6075330000000  0.4688730000000  0.5449930000000 1.0
C      1  0.5231640000000  0.4940540000000  0.5459870000000 1.0
C      1  0.4960720000000  0.4434210000000  0.5467680000000 1.0
C      1  0.4773000000000  0.5307200000000  0.5343280000000 1.0
C      1  0.4333810000000  0.5194390000000  0.5058130000000 1.0
C      1  0.4437070000000  0.5796560000000  0.5110660000000 1.0
C      1  0.5847140000000  0.5580830000000  0.5362240000000 1.0
C      1  0.5496000000000  0.4392630000000  0.4339790000000 1.0
C      1  0.4276320000000  0.4213100000000  0.5329350000000 1.0
C      1  0.5575080000000  0.4509690000000  0.5622910000000 1.0
C      1  0.4673760000000  0.4432770000000  0.5552510000000 1.0
C      1  0.5228280000000  0.5541770000000  0.4177170000000 1.0
C      1  0.5104780000000  0.4273810000000  0.4844410000000 1.0
C      1  0.4181330000000  0.4608380000000  0.5584530000000 1.0
C      1  0.5275570000000  0.5055150000000  0.4242230000000 1.0
C      1  0.5010670000000  0.3868440000000  0.5012360000000 1.0
C      1  0.5000490000000  0.5556810000000  0.5862670000000 1.0
C      1  0.5332760000000  0.5213740000000  0.5552670000000 1.0
C      1  0.5498570000000  0.4380070000000  0.4608190000000 1.0
C      1  0.5269930000000  0.5670020000000  0.5882980000000 1.0
C      1  0.5428900000000  0.5179290000000  0.5121900000000 1.0
C      1  0.5567050000000  0.5748060000000  0.5012090000000 1.0
C      1  0.4859980000000  0.5172970000000  0.4694610000000 1.0
C      1  0.5789160000000  0.5573420000000  0.5080680000000 1.0
C      1  0.5030560000000  0.5712510000000  0.4292440000000 1.0
C      1  0.4181260000000  0.5529360000000  0.5469640000000 1.0
C      1  0.5796970000000  0.5378040000000  0.4844730000000 1.0
C      1  0.5904520000000  0.5117750000000  0.4803770000000 1.0
C      1  0.5438180000000  0.4653590000000  0.5809180000000 1.0
C      1  0.4597510000000  0.4825310000000  0.5356680000000 1.0
C      1  0.5486420000000  0.4854560000000  0.4247650000000 1.0
C      1  0.4569300000000  0.5274200000000  0.5155580000000 1.0
C      1  0.4110860000000  0.4850360000000  0.5719330000000 1.0
C      1  0.3958510000000  0.5079710000000  0.5632860000000 1.0
C      1  0.4947850000000  0.4036820000000  0.4780970000000 1.0
C      1  0.5632280000000  0.4137240000000  0.5303840000000 1.0
C      1  0.4531780000000  0.5707530000000  0.4588330000000 1.0
C      1  0.4220270000000  0.4509190000000  0.4326610000000 1.0
C      1  0.4930650000000  0.4920250000000  0.4792190000000 1.0
C      1  0.5771610000000  0.5077980000000  0.5487540000000 1.0
C      1  0.5735950000000  0.4989530000000  0.4336100000000 1.0
C      1  0.4679140000000  0.4800500000000  0.4849530000000 1.0
C      1  0.5917770000000  0.4541860000000  0.5259960000000 1.0
C      1  0.5691580000000  0.5536900000000  0.5606330000000 1.0
C      1  0.4891280000000  0.4726230000000  0.4264070000000 1.0
C      1  0.5212640000000  0.4567660000000  0.3959900000000 1.0
C      1  0.5033550000000  0.5358610000000  0.4797830000000 1.0
C      1  0.4518660000000  0.4226860000000  0.4924530000000 1.0
C      1  0.5140580000000  0.5923060000000  0.4448490000000 1.0
C      1  0.4059660000000  0.5269530000000  0.5441140000000 1.0
C      1  0.5341880000000  0.5851550000000  0.5171430000000 1.0
C      1  0.5932490000000  0.4662590000000  0.4707620000000 1.0
C      1  0.5705940000000  0.4394000000000  0.5391260000000 1.0
C      1  0.4996800000000  0.5009510000000  0.4272530000000 1.0
C      1  0.4669490000000  0.4423790000000  0.5068940000000 1.0
C      1  0.4756370000000  0.5619330000000  0.4320010000000 1.0
C      1  0.4838830000000  0.5150940000000  0.4063070000000 1.0
C      1  0.5674130000000  0.5057820000000  0.5217820000000 1.0
C      1  0.5907000000000  0.4672320000000  0.5001010000000 1.0
C      1  0.5337420000000  0.4429380000000  0.4831350000000 1.0
C      1  0.5019850000000  0.5387060000000  0.5253930000000 1.0
C      1  0.5283720000000  0.5906920000000  0.4692140000000 1.0
C      1  0.4786180000000  0.5720160000000  0.5763570000000 1.0
C      1  0.4955050000000  0.5268630000000  0.5828940000000 1.0
C      1  0.5171150000000  0.5294410000000  0.5036560000000 1.0
C      1  0.5219090000000  0.4895020000000  0.4817140000000 1.0
C      1  0.5146160000000  0.5958100000000  0.4963950000000 1.0
C      1  0.4546250000000  0.4710800000000  0.4615840000000 1.0
C      1  0.4243530000000  0.4722920000000  0.4551120000000 1.0
C      1  0.4946370000000  0.4674780000000  0.3974920000000 1.0
C      1  0.4260800000000  0.4213620000000  0.5044100000000 1.0
C      1  0.4676680000000  0.4127560000000  0.4694380000000 1.0
C      1  0.4880670000000  0.5846650000000  0.4906510000000 1.0
C      1  0.4095750000000  0.5168630000000  0.5179120000000 1.0
C      1  0.4604500000000  0.5200610000000  0.4591760000000 1.0
C      1  0.5206660000000  0.5453550000000  0.5443080000000 1.0
C      1  0.5388430000000  0.5121810000000  0.4695030000000 1.0
C      1  0.5609420000000  0.5258370000000  0.5627740000000 1.0
C      1  0.5054450000000  0.4167450000000  0.5419180000000 1.0
C      1  0.5470350000000  0.5687320000000  0.4737350000000 1.0
C      1  0.5471050000000  0.5722280000000  0.5675450000000 1.0
C      1  0.5856130000000  0.4954790000000  0.5034890000000 1.0
C      1  0.5440940000000  0.3957730000000  0.5247840000000 1.0
C      1  0.3706930000000  0.5117610000000  0.5736290000000 1.0
C      1  0.4405030000000  0.5313480000000  0.4178410000000 1.0
C      1  0.4066450000000  0.4374940000000  0.4917990000000 1.0
C      1  0.4780050000000  0.5192590000000  0.5604980000000 1.0
C      1  0.4296730000000  0.5544830000000  0.4569610000000 1.0
C      1  0.5158180000000  0.3964990000000  0.5244850000000 1.0
C      1  0.4939310000000  0.4391590000000  0.5036840000000 1.0
C      1  0.4840610000000  0.4933100000000  0.3857520000000 1.0
C      1  0.4076650000000  0.4599060000000  0.4769350000000 1.0
C      1  0.4681080000000  0.5382380000000  0.4144720000000 1.0
C      1  0.5422700000000  0.4593100000000  0.4156740000000 1.0
C      1  0.5992350000000  0.4921550000000  0.5561930000000 1.0
C      1  0.4636140000000  0.4282210000000  0.4446240000000 1.0
C      1  0.5681540000000  0.5266050000000  0.4240040000000 1.0
C      1  0.5532450000000  0.5397570000000  0.4703950000000 1.0
C      1  0.5395390000000  0.5318380000000  0.4198240000000 1.0
C      1  0.4171580000000  0.5010040000000  0.4494620000000 1.0
C      1  0.4592540000000  0.5828990000000  0.4865230000000 1.0
C      1  0.4724210000000  0.4567220000000  0.4433210000000 1.0
C      1  0.4291970000000  0.4893810000000  0.5933180000000 1.0
C      1  0.4606500000000  0.4698770000000  0.5103970000000 1.0
C      1  0.5296380000000  0.4674590000000  0.4987700000000 1.0
C      1  0.5887920000000  0.4927240000000  0.4572430000000 1.0
C      1  0.4653850000000  0.4941380000000  0.5613340000000 1.0
C      1  0.5313500000000  0.5722230000000  0.5426330000000 1.0
C      1  0.5276950000000  0.4838850000000  0.5927960000000 1.0
C      1  0.5167850000000  0.4691380000000  0.5317920000000 1.0
C      1  0.5112530000000  0.5056190000000  0.5946910000000 1.0
C      1  0.4553370000000  0.4874700000000  0.5868300000000 1.0
C      1  0.4378040000000  0.4408410000000  0.5513420000000 1.0
C      1  0.4380000000000  0.4285820000000  0.4312520000000 1.0
C      1  0.4961240000000  0.5614810000000  0.4764270000000 1.0
END
