TITL C-627108-131-972 0.000275293144331696 125000 -368.909802023561 0 0 62 (C1) n - 1
REM
REM in /home/nfs/bkarasulu/CARBON/AIRSS/Generating-Clusters/LCBOP/Only-C1/SD-CG/FIRE-CG
REM
REM
REM
REM
REM
REM ./C.cell (11c1c37f851c82e70ff6c80c92926a4b)
REM AIRSS Version 0.9.1 bugfix July 2018 build 013d7b7c2542+ Fri, 06 Jul 2018 19:26:36 +0100
REM compiler GCC version 9.2.1 20190827 (Red Hat 9.2.1-1)
REM options -cpp -mtune=generic -march=x86-64 -g -O0 -fpre-include=/usr/include/finclude/math-vector-fortran.h
REM seed 1879972963 -254770602 -625265613 1187142035 1543177650 -141076683 -650433785 -798880200 -425404350 292079010 299146726 470517579 613400196 -718536793 1195664451 -975884548 -911458395 -970952755 -2050730625 943292657 -1900111978 193978236 1208656320 -351922890 913270474 1366348710 128351515 508371279 -1659667612 -600211729 -2047430640 1398933303 1097391637
REM
CELL 1.54180   50.00000   50.00000   50.00000   90.00000   90.00000   90.00000
LATT -1
SFAC C  
C      1  0.4316330000000  0.4741060000000  0.4614880000000 1.0
C      1  0.4483980000000  0.4632200000000  0.5493090000000 1.0
C      1  0.5170360000000  0.4760120000000  0.6101370000000 1.0
C      1  0.6028620000000  0.6322700000000  0.4998150000000 1.0
C      1  0.5670840000000  0.4869410000000  0.4698670000000 1.0
C      1  0.4753430000000  0.5138530000000  0.4444230000000 1.0
C      1  0.4565450000000  0.5533280000000  0.4184940000000 1.0
C      1  0.4580940000000  0.4957530000000  0.4293200000000 1.0
C      1  0.4367120000000  0.5111560000000  0.4940950000000 1.0
C      1  0.4716700000000  0.5413810000000  0.4394010000000 1.0
C      1  0.5060750000000  0.5608720000000  0.5872870000000 1.0
C      1  0.5332160000000  0.5369580000000  0.4621380000000 1.0
C      1  0.4827430000000  0.5677340000000  0.5758040000000 1.0
C      1  0.4547470000000  0.4285950000000  0.5029010000000 1.0
C      1  0.4790040000000  0.4566610000000  0.4476520000000 1.0
C      1  0.4878780000000  0.4821530000000  0.4861550000000 1.0
C      1  0.5177700000000  0.5120810000000  0.5018580000000 1.0
C      1  0.4433010000000  0.5339140000000  0.4025100000000 1.0
C      1  0.5248470000000  0.4632310000000  0.4284650000000 1.0
C      1  0.4796430000000  0.4845740000000  0.5782490000000 1.0
C      1  0.5020230000000  0.4753180000000  0.4408640000000 1.0
C      1  0.5716350000000  0.5625450000000  0.4794640000000 1.0
C      1  0.5490780000000  0.4764780000000  0.4239830000000 1.0
C      1  0.4893610000000  0.4355230000000  0.4654200000000 1.0
C      1  0.5154410000000  0.5183260000000  0.4741000000000 1.0
C      1  0.5177960000000  0.5125980000000  0.5760830000000 1.0
C      1  0.4536770000000  0.4709520000000  0.4433470000000 1.0
C      1  0.5486960000000  0.4345770000000  0.5961650000000 1.0
C      1  0.4964880000000  0.4992630000000  0.4604890000000 1.0
C      1  0.5336180000000  0.4543820000000  0.6038840000000 1.0
C      1  0.4619270000000  0.5069490000000  0.5765570000000 1.0
C      1  0.4445110000000  0.5072450000000  0.4074850000000 1.0
C      1  0.5354990000000  0.4492990000000  0.4836070000000 1.0
C      1  0.4646660000000  0.5533910000000  0.5619920000000 1.0
C      1  0.5489200000000  0.4743310000000  0.4885850000000 1.0
C      1  0.4502350000000  0.4998030000000  0.5162670000000 1.0
C      1  0.4712850000000  0.5153410000000  0.5301770000000 1.0
C      1  0.5821340000000  0.5858780000000  0.4863090000000 1.0
C      1  0.5737600000000  0.5139070000000  0.4751670000000 1.0
C      1  0.4233270000000  0.4550270000000  0.4801340000000 1.0
C      1  0.5391100000000  0.4923410000000  0.5083510000000 1.0
C      1  0.4754790000000  0.4653190000000  0.5576100000000 1.0
C      1  0.4549780000000  0.5801430000000  0.4142980000000 1.0
C      1  0.4274010000000  0.5007230000000  0.4710080000000 1.0
C      1  0.4418370000000  0.4721290000000  0.5231730000000 1.0
C      1  0.5200590000000  0.5379480000000  0.5878970000000 1.0
C      1  0.5051270000000  0.4906000000000  0.5891670000000 1.0
C      1  0.5600130000000  0.5382950000000  0.4722690000000 1.0
C      1  0.5258680000000  0.5529300000000  0.4412060000000 1.0
C      1  0.5200730000000  0.5098800000000  0.5481240000000 1.0
C      1  0.5925840000000  0.6092660000000  0.4931180000000 1.0
C      1  0.5418240000000  0.4948420000000  0.5366030000000 1.0
C      1  0.4371270000000  0.4506940000000  0.5042840000000 1.0
C      1  0.5186560000000  0.4344350000000  0.4653830000000 1.0
C      1  0.4737250000000  0.4227290000000  0.4847980000000 1.0
C      1  0.5280530000000  0.4365330000000  0.4383990000000 1.0
C      1  0.4930560000000  0.4617510000000  0.5353730000000 1.0
C      1  0.5681100000000  0.4797780000000  0.4427100000000 1.0
C      1  0.5124130000000  0.4829420000000  0.6361890000000 1.0
C      1  0.5006210000000  0.5163410000000  0.5259570000000 1.0
C      1  0.4626040000000  0.5261470000000  0.5556130000000 1.0
C      1  0.4926020000000  0.4683110000000  0.5090210000000 1.0
END
