TITL C-627108-131-1109 3.07104362236456e-07 125000 -1159.49612376023 0 0 189 (C1) n - 1
REM
REM in /home/nfs/bkarasulu/CARBON/AIRSS/Generating-Clusters/LCBOP/Only-C1/SD-CG/FIRE-CG
REM
REM
REM
REM
REM
REM ./C.cell (11c1c37f851c82e70ff6c80c92926a4b)
REM AIRSS Version 0.9.1 bugfix July 2018 build 013d7b7c2542+ Fri, 06 Jul 2018 19:26:36 +0100
REM compiler GCC version 9.2.1 20190827 (Red Hat 9.2.1-1)
REM options -cpp -mtune=generic -march=x86-64 -g -O0 -fpre-include=/usr/include/finclude/math-vector-fortran.h
REM seed -2081430822 -534476446 234278742 1723199469 -861994692 1055773328 454100397 -640857606 921521286 1001259537 -2054014940 1354467991 -1341297311 -169313739 663935654 -1641935417 247092491 -1509760894 -852074163 221126834 746954203 1851629550 -1890670532 -2051243418 2032202852 -1825269988 1852002318 -1733843383 408895192 -638824924 1667394046 -418444564 269314202
REM
CELL 1.54180   50.00000   50.00000   50.00000   90.00000   90.00000   90.00000
LATT -1
SFAC C  
C      1  0.5090080000000  0.4356900000000  0.4831600000000 1.0
C      1  0.4314940000000  0.5449840000000  0.4553550000000 1.0
C      1  0.4769140000000  0.4936010000000  0.4766940000000 1.0
C      1  0.5790910000000  0.5301690000000  0.4142810000000 1.0
C      1  0.3946020000000  0.5914390000000  0.4167750000000 1.0
C      1  0.4876680000000  0.6254260000000  0.5187700000000 1.0
C      1  0.4131190000000  0.5835180000000  0.3972750000000 1.0
C      1  0.4245900000000  0.4679920000000  0.4947730000000 1.0
C      1  0.4541070000000  0.4209350000000  0.4106800000000 1.0
C      1  0.5642000000000  0.4935190000000  0.3793650000000 1.0
C      1  0.4970520000000  0.5516860000000  0.5163990000000 1.0
C      1  0.4947190000000  0.5335940000000  0.4300490000000 1.0
C      1  0.4976420000000  0.3859260000000  0.4990620000000 1.0
C      1  0.5389910000000  0.4331390000000  0.4745900000000 1.0
C      1  0.4938710000000  0.4554770000000  0.4355360000000 1.0
C      1  0.5952530000000  0.5169130000000  0.4359200000000 1.0
C      1  0.4340450000000  0.5886540000000  0.5213580000000 1.0
C      1  0.5002370000000  0.4543690000000  0.6152660000000 1.0
C      1  0.5100800000000  0.4617900000000  0.4994850000000 1.0
C      1  0.5306470000000  0.4384540000000  0.4200330000000 1.0
C      1  0.5874560000000  0.3962090000000  0.4642750000000 1.0
C      1  0.3923640000000  0.5829030000000  0.4902360000000 1.0
C      1  0.5110110000000  0.6289750000000  0.5016180000000 1.0
C      1  0.5242990000000  0.5514400000000  0.4598270000000 1.0
C      1  0.3827480000000  0.4705720000000  0.4671290000000 1.0
C      1  0.4739810000000  0.5424280000000  0.5543070000000 1.0
C      1  0.4893260000000  0.4611060000000  0.5410850000000 1.0
C      1  0.4511240000000  0.4549720000000  0.6137630000000 1.0
C      1  0.5373100000000  0.5282370000000  0.3908540000000 1.0
C      1  0.4775310000000  0.5724750000000  0.5102010000000 1.0
C      1  0.4749180000000  0.4677620000000  0.6207060000000 1.0
C      1  0.5169090000000  0.5206890000000  0.5720850000000 1.0
C      1  0.5518530000000  0.3946060000000  0.5490260000000 1.0
C      1  0.3980470000000  0.4512070000000  0.4503540000000 1.0
C      1  0.4481670000000  0.4638750000000  0.4547320000000 1.0
C      1  0.3806130000000  0.5398060000000  0.5065210000000 1.0
C      1  0.5462800000000  0.4522500000000  0.5248200000000 1.0
C      1  0.5663330000000  0.5199010000000  0.3901050000000 1.0
C      1  0.4829810000000  0.5614720000000  0.5986140000000 1.0
C      1  0.4705750000000  0.3784280000000  0.4925700000000 1.0
C      1  0.3615520000000  0.4464640000000  0.5059460000000 1.0
C      1  0.5418170000000  0.5670340000000  0.5698720000000 1.0
C      1  0.5095870000000  0.3885400000000  0.4483310000000 1.0
C      1  0.4059630000000  0.5788400000000  0.3713990000000 1.0
C      1  0.5913790000000  0.5607090000000  0.4624700000000 1.0
C      1  0.5473620000000  0.4938060000000  0.4962590000000 1.0
C      1  0.5130670000000  0.4977350000000  0.5540760000000 1.0
C      1  0.4953020000000  0.4155270000000  0.5322100000000 1.0
C      1  0.4889860000000  0.5205980000000  0.4787220000000 1.0
C      1  0.5156170000000  0.4531660000000  0.5274370000000 1.0
C      1  0.4263320000000  0.3961700000000  0.5372230000000 1.0
C      1  0.4042380000000  0.4046660000000  0.4662390000000 1.0
C      1  0.5653860000000  0.5728250000000  0.5533970000000 1.0
C      1  0.5452230000000  0.5328330000000  0.5390300000000 1.0
C      1  0.5618590000000  0.3838170000000  0.4601320000000 1.0
C      1  0.5469280000000  0.4631190000000  0.4123920000000 1.0
C      1  0.5853590000000  0.4815780000000  0.5910820000000 1.0
C      1  0.4986310000000  0.4127630000000  0.5842700000000 1.0
C      1  0.5396660000000  0.4707700000000  0.5888600000000 1.0
C      1  0.5158690000000  0.6535360000000  0.4893590000000 1.0
C      1  0.4048730000000  0.5061890000000  0.5524360000000 1.0
C      1  0.5381750000000  0.3795970000000  0.5310240000000 1.0
C      1  0.5933910000000  0.4214630000000  0.4510890000000 1.0
C      1  0.4379330000000  0.4331020000000  0.5686040000000 1.0
C      1  0.5616870000000  0.5543170000000  0.4209140000000 1.0
C      1  0.4552650000000  0.5964070000000  0.4508810000000 1.0
C      1  0.5122370000000  0.5911600000000  0.5427440000000 1.0
C      1  0.5116480000000  0.5517360000000  0.6053960000000 1.0
C      1  0.5675900000000  0.5676640000000  0.4457450000000 1.0
C      1  0.5354340000000  0.3817330000000  0.4537410000000 1.0
C      1  0.4930150000000  0.4359030000000  0.4579740000000 1.0
C      1  0.5204190000000  0.5036610000000  0.3953700000000 1.0
C      1  0.4596660000000  0.5815240000000  0.5312870000000 1.0
C      1  0.4512790000000  0.4371640000000  0.5204670000000 1.0
C      1  0.5401140000000  0.5276800000000  0.4532630000000 1.0
C      1  0.4863050000000  0.4076740000000  0.4447750000000 1.0
C      1  0.3928800000000  0.5958360000000  0.4429640000000 1.0
C      1  0.4568220000000  0.4037600000000  0.4527520000000 1.0
C      1  0.5031780000000  0.4384420000000  0.4140270000000 1.0
C      1  0.4397330000000  0.6079680000000  0.4994020000000 1.0
C      1  0.5988490000000  0.4958400000000  0.5235110000000 1.0
C      1  0.6065110000000  0.5536610000000  0.5367520000000 1.0
C      1  0.5364540000000  0.4801640000000  0.5618410000000 1.0
C      1  0.6079010000000  0.3884880000000  0.4823830000000 1.0
C      1  0.5136290000000  0.5231030000000  0.5999520000000 1.0
C      1  0.5200490000000  0.6762160000000  0.4772250000000 1.0
C      1  0.4149970000000  0.3874510000000  0.5127140000000 1.0
C      1  0.5811120000000  0.5317740000000  0.5773450000000 1.0
C      1  0.4054680000000  0.5939950000000  0.4677510000000 1.0
C      1  0.5078670000000  0.5003160000000  0.6148740000000 1.0
C      1  0.4345130000000  0.5164570000000  0.4988380000000 1.0
C      1  0.5337690000000  0.5522470000000  0.4073290000000 1.0
C      1  0.4331750000000  0.6009850000000  0.4709580000000 1.0
C      1  0.5190830000000  0.3725620000000  0.5127930000000 1.0
C      1  0.6155300000000  0.5211220000000  0.4802240000000 1.0
C      1  0.5449040000000  0.5390360000000  0.5120850000000 1.0
C      1  0.6336200000000  0.4285270000000  0.4757590000000 1.0
C      1  0.5551870000000  0.4480500000000  0.4950830000000 1.0
C      1  0.6044650000000  0.5347800000000  0.4576180000000 1.0
C      1  0.6116780000000  0.5064770000000  0.5024760000000 1.0
C      1  0.4972890000000  0.5393690000000  0.4589420000000 1.0
C      1  0.3808730000000  0.4980570000000  0.5585450000000 1.0
C      1  0.5641830000000  0.5417240000000  0.6000170000000 1.0
C      1  0.4505830000000  0.3995370000000  0.4817200000000 1.0
C      1  0.4030190000000  0.4378050000000  0.5353210000000 1.0
C      1  0.5202450000000  0.4744870000000  0.6091080000000 1.0
C      1  0.5308000000000  0.5873600000000  0.5209990000000 1.0
C      1  0.5622620000000  0.5266970000000  0.4698180000000 1.0
C      1  0.4950110000000  0.4094720000000  0.5581490000000 1.0
C      1  0.6295940000000  0.4042200000000  0.4874560000000 1.0
C      1  0.5931090000000  0.5717670000000  0.4897420000000 1.0
C      1  0.6091260000000  0.5615540000000  0.5109730000000 1.0
C      1  0.5661060000000  0.4600860000000  0.5922980000000 1.0
C      1  0.4294390000000  0.5158670000000  0.5495840000000 1.0
C      1  0.5608420000000  0.5853830000000  0.5272620000000 1.0
C      1  0.5713870000000  0.5877590000000  0.4992450000000 1.0
C      1  0.4374930000000  0.4173450000000  0.4342940000000 1.0
C      1  0.3783820000000  0.4402850000000  0.5256830000000 1.0
C      1  0.5744090000000  0.4495410000000  0.4130230000000 1.0
C      1  0.4646500000000  0.5119470000000  0.5993600000000 1.0
C      1  0.4335010000000  0.3786440000000  0.5569020000000 1.0
C      1  0.4395170000000  0.5807400000000  0.4062700000000 1.0
C      1  0.4165460000000  0.4944540000000  0.4929700000000 1.0
C      1  0.5251380000000  0.5593050000000  0.5081330000000 1.0
C      1  0.5487270000000  0.5949350000000  0.4806000000000 1.0
C      1  0.5452860000000  0.4299850000000  0.4452780000000 1.0
C      1  0.4611500000000  0.6263020000000  0.5068740000000 1.0
C      1  0.4868970000000  0.4825790000000  0.4322780000000 1.0
C      1  0.4671760000000  0.4612630000000  0.5224600000000 1.0
C      1  0.4116840000000  0.4249240000000  0.4468340000000 1.0
C      1  0.5570010000000  0.4733060000000  0.5425040000000 1.0
C      1  0.5691720000000  0.4794670000000  0.4559390000000 1.0
C      1  0.5079170000000  0.5048020000000  0.5224100000000 1.0
C      1  0.4790390000000  0.4965010000000  0.6186640000000 1.0
C      1  0.5729120000000  0.4312540000000  0.4353980000000 1.0
C      1  0.4606450000000  0.5847960000000  0.4243070000000 1.0
C      1  0.4498120000000  0.4283190000000  0.4930800000000 1.0
C      1  0.5475770000000  0.4815020000000  0.4374780000000 1.0
C      1  0.4306000000000  0.4264560000000  0.5405610000000 1.0
C      1  0.4339280000000  0.5373220000000  0.4801750000000 1.0
C      1  0.4666630000000  0.4850410000000  0.4522040000000 1.0
C      1  0.5287710000000  0.6069050000000  0.4979540000000 1.0
C      1  0.4878430000000  0.5248710000000  0.5094640000000 1.0
C      1  0.5054880000000  0.5049040000000  0.4229170000000 1.0
C      1  0.4999190000000  0.5557260000000  0.5460540000000 1.0
C      1  0.4396690000000  0.4508660000000  0.4782730000000 1.0
C      1  0.6141660000000  0.4671020000000  0.4482350000000 1.0
C      1  0.5847560000000  0.5027670000000  0.5712290000000 1.0
C      1  0.4882880000000  0.5805760000000  0.4141030000000 1.0
C      1  0.4670020000000  0.4840130000000  0.5033580000000 1.0
C      1  0.5016230000000  0.4282720000000  0.6056890000000 1.0
C      1  0.4922000000000  0.6099660000000  0.5430960000000 1.0
C      1  0.4625250000000  0.3523360000000  0.4948800000000 1.0
C      1  0.5563810000000  0.5200540000000  0.4956650000000 1.0
C      1  0.5946290000000  0.4880210000000  0.4451620000000 1.0
C      1  0.4830130000000  0.4173430000000  0.4147180000000 1.0
C      1  0.5621350000000  0.4123930000000  0.5667240000000 1.0
C      1  0.4212130000000  0.3923830000000  0.4856820000000 1.0
C      1  0.4705820000000  0.5948800000000  0.5551840000000 1.0
C      1  0.3910760000000  0.4963180000000  0.4799740000000 1.0
C      1  0.4998630000000  0.6027620000000  0.4021290000000 1.0
C      1  0.4195250000000  0.5623820000000  0.5605930000000 1.0
C      1  0.4591840000000  0.5418920000000  0.5981250000000 1.0
C      1  0.5625210000000  0.4736080000000  0.4831790000000 1.0
C      1  0.5202920000000  0.4885530000000  0.5016420000000 1.0
C      1  0.5690620000000  0.4332730000000  0.5826300000000 1.0
C      1  0.4393330000000  0.4424590000000  0.5934090000000 1.0
C      1  0.3766080000000  0.5187980000000  0.4897460000000 1.0
C      1  0.4798680000000  0.5990820000000  0.4645110000000 1.0
C      1  0.3617150000000  0.4580070000000  0.4817470000000 1.0
C      1  0.4764530000000  0.5845870000000  0.5816330000000 1.0
C      1  0.6151860000000  0.4397480000000  0.4572930000000 1.0
C      1  0.5868460000000  0.5530340000000  0.5571630000000 1.0
C      1  0.5432800000000  0.5747740000000  0.4607490000000 1.0
C      1  0.5306330000000  0.5040590000000  0.4406520000000 1.0
C      1  0.4131920000000  0.5718180000000  0.5326660000000 1.0
C      1  0.4674390000000  0.4995640000000  0.5725080000000 1.0
C      1  0.5049530000000  0.5565010000000  0.4147780000000 1.0
C      1  0.4345510000000  0.5532160000000  0.5827040000000 1.0
C      1  0.5400980000000  0.4810020000000  0.3898230000000 1.0
C      1  0.4565570000000  0.5197820000000  0.5554220000000 1.0
C      1  0.5402520000000  0.5599710000000  0.5981140000000 1.0
C      1  0.4593640000000  0.5109560000000  0.5135030000000 1.0
C      1  0.3933300000000  0.5645990000000  0.5122810000000 1.0
C      1  0.4874990000000  0.4825850000000  0.5605090000000 1.0
C      1  0.5805320000000  0.4907770000000  0.5443920000000 1.0
C      1  0.4842230000000  0.5860880000000  0.4870820000000 1.0
C      1  0.5002420000000  0.4141140000000  0.5038730000000 1.0
C      1  0.5247510000000  0.5448400000000  0.5571990000000 1.0
END
