TITL C-627108-131-1016 -2.84779680191459e-07 125000 -610.630942438209 0 0 100 (C1) n - 1
REM
REM in /home/nfs/bkarasulu/CARBON/AIRSS/Generating-Clusters/LCBOP/Only-C1/SD-CG/FIRE-CG
REM
REM
REM
REM
REM
REM ./C.cell (11c1c37f851c82e70ff6c80c92926a4b)
REM AIRSS Version 0.9.1 bugfix July 2018 build 013d7b7c2542+ Fri, 06 Jul 2018 19:26:36 +0100
REM compiler GCC version 9.2.1 20190827 (Red Hat 9.2.1-1)
REM options -cpp -mtune=generic -march=x86-64 -g -O0 -fpre-include=/usr/include/finclude/math-vector-fortran.h
REM seed -2046572966 1750146883 -173729927 -261224388 1120760680 1699561923 936199455 268219336 1680625414 522636551 219693979 -1253660423 315295940 1761079226 11684521 1638010814 -568723216 500586266 -634201893 1552156248 -486443438 404199985 -283019795 1450514092 -1305317710 1218782106 -572016582 1678672583 -961275663 -1259793854 -1986235034 -323098363 1600843981
REM
CELL 1.54180   50.00000   50.00000   50.00000   90.00000   90.00000   90.00000
LATT -1
SFAC C  
C      1  0.3636150000000  0.4934170000000  0.4214020000000 1.0
C      1  0.4633230000000  0.4073440000000  0.4821090000000 1.0
C      1  0.4973650000000  0.4159890000000  0.4487280000000 1.0
C      1  0.4848330000000  0.5722510000000  0.6010290000000 1.0
C      1  0.4134120000000  0.5455100000000  0.5135310000000 1.0
C      1  0.5052100000000  0.4636310000000  0.5062290000000 1.0
C      1  0.5539130000000  0.5495770000000  0.4753440000000 1.0
C      1  0.5276480000000  0.4622830000000  0.5510430000000 1.0
C      1  0.3840110000000  0.4988670000000  0.4366800000000 1.0
C      1  0.4369530000000  0.4551970000000  0.5357890000000 1.0
C      1  0.4302400000000  0.4809910000000  0.5435530000000 1.0
C      1  0.4197540000000  0.5533590000000  0.4888730000000 1.0
C      1  0.4944880000000  0.5475490000000  0.5320860000000 1.0
C      1  0.4812560000000  0.4687710000000  0.4902020000000 1.0
C      1  0.4205970000000  0.5378210000000  0.5380430000000 1.0
C      1  0.4768330000000  0.5242050000000  0.5871970000000 1.0
C      1  0.5330070000000  0.5841600000000  0.5116080000000 1.0
C      1  0.5025850000000  0.4142100000000  0.5275770000000 1.0
C      1  0.5843210000000  0.5353160000000  0.5302610000000 1.0
C      1  0.5873980000000  0.5098380000000  0.4899980000000 1.0
C      1  0.4782140000000  0.4302930000000  0.4325490000000 1.0
C      1  0.5204440000000  0.5218550000000  0.4181980000000 1.0
C      1  0.5909170000000  0.5107890000000  0.5185070000000 1.0
C      1  0.5122250000000  0.5959830000000  0.5249050000000 1.0
C      1  0.4139840000000  0.4852100000000  0.4730510000000 1.0
C      1  0.5712550000000  0.5567180000000  0.5210910000000 1.0
C      1  0.5712260000000  0.4452880000000  0.4728330000000 1.0
C      1  0.5348880000000  0.5580120000000  0.4532780000000 1.0
C      1  0.5056570000000  0.4871310000000  0.4499030000000 1.0
C      1  0.5983660000000  0.4866860000000  0.4772300000000 1.0
C      1  0.5656310000000  0.5226880000000  0.4755080000000 1.0
C      1  0.5169310000000  0.5458240000000  0.4334840000000 1.0
C      1  0.4212360000000  0.5274110000000  0.4496220000000 1.0
C      1  0.5063290000000  0.4170090000000  0.4986310000000 1.0
C      1  0.5788330000000  0.4445140000000  0.4452930000000 1.0
C      1  0.5167170000000  0.5749960000000  0.4674760000000 1.0
C      1  0.4826450000000  0.6267520000000  0.5491520000000 1.0
C      1  0.5224070000000  0.4182670000000  0.4352340000000 1.0
C      1  0.5279840000000  0.4161050000000  0.5411840000000 1.0
C      1  0.5849440000000  0.4705120000000  0.5487370000000 1.0
C      1  0.5550300000000  0.4760700000000  0.5884100000000 1.0
C      1  0.4909500000000  0.4086210000000  0.4759510000000 1.0
C      1  0.5456500000000  0.4409930000000  0.4829910000000 1.0
C      1  0.4364480000000  0.4689010000000  0.4671990000000 1.0
C      1  0.5037810000000  0.5315490000000  0.4903120000000 1.0
C      1  0.5005450000000  0.5593810000000  0.4834680000000 1.0
C      1  0.5954030000000  0.4636000000000  0.4347390000000 1.0
C      1  0.4605760000000  0.4452180000000  0.5495350000000 1.0
C      1  0.5784710000000  0.4780430000000  0.5753080000000 1.0
C      1  0.4875950000000  0.4884800000000  0.4712300000000 1.0
C      1  0.5040360000000  0.5465800000000  0.5593410000000 1.0
C      1  0.4867240000000  0.6022450000000  0.5376130000000 1.0
C      1  0.4800860000000  0.5449160000000  0.4403250000000 1.0
C      1  0.4061610000000  0.5039600000000  0.4528490000000 1.0
C      1  0.4741370000000  0.5191250000000  0.4275040000000 1.0
C      1  0.4479130000000  0.4911330000000  0.5643270000000 1.0
C      1  0.5146850000000  0.5181890000000  0.5609910000000 1.0
C      1  0.4845040000000  0.5143780000000  0.4798830000000 1.0
C      1  0.5292830000000  0.4705800000000  0.5785230000000 1.0
C      1  0.5329700000000  0.4851260000000  0.4552770000000 1.0
C      1  0.4446760000000  0.5867230000000  0.5815020000000 1.0
C      1  0.5514640000000  0.5035190000000  0.4604160000000 1.0
C      1  0.4630160000000  0.5881680000000  0.6013320000000 1.0
C      1  0.5204580000000  0.4797320000000  0.3929660000000 1.0
C      1  0.5055320000000  0.4802880000000  0.5900620000000 1.0
C      1  0.5709000000000  0.4469710000000  0.5400340000000 1.0
C      1  0.4408700000000  0.4641270000000  0.4397440000000 1.0
C      1  0.4585510000000  0.4722670000000  0.4192160000000 1.0
C      1  0.3989230000000  0.4821030000000  0.4956040000000 1.0
C      1  0.4334630000000  0.5473560000000  0.4649380000000 1.0
C      1  0.6054190000000  0.4842590000000  0.4496890000000 1.0
C      1  0.4636630000000  0.4659400000000  0.5707250000000 1.0
C      1  0.5153510000000  0.4777120000000  0.5298920000000 1.0
C      1  0.6011460000000  0.4882590000000  0.5331930000000 1.0
C      1  0.5298400000000  0.5051900000000  0.3970810000000 1.0
C      1  0.5079660000000  0.5271240000000  0.5171830000000 1.0
C      1  0.5526400000000  0.5651320000000  0.5014140000000 1.0
C      1  0.4994520000000  0.5054120000000  0.4296070000000 1.0
C      1  0.4574060000000  0.5004720000000  0.4144150000000 1.0
C      1  0.4404640000000  0.5426080000000  0.5576540000000 1.0
C      1  0.4530680000000  0.5191320000000  0.5712490000000 1.0
C      1  0.4727660000000  0.5622250000000  0.5179990000000 1.0
C      1  0.4485270000000  0.5712250000000  0.5581600000000 1.0
C      1  0.5436540000000  0.4396280000000  0.5441110000000 1.0
C      1  0.4791730000000  0.4255040000000  0.5405370000000 1.0
C      1  0.4892590000000  0.5508020000000  0.5837970000000 1.0
C      1  0.6283440000000  0.4840750000000  0.5331010000000 1.0
C      1  0.4610750000000  0.5550320000000  0.4627190000000 1.0
C      1  0.5257340000000  0.4361350000000  0.4147720000000 1.0
C      1  0.4729570000000  0.5641220000000  0.4885810000000 1.0
C      1  0.4807300000000  0.4539120000000  0.4155780000000 1.0
C      1  0.4655840000000  0.5820630000000  0.5370750000000 1.0
C      1  0.4500750000000  0.4293560000000  0.4902430000000 1.0
C      1  0.5205720000000  0.4417570000000  0.4951010000000 1.0
C      1  0.5889910000000  0.4617290000000  0.4878060000000 1.0
C      1  0.5081970000000  0.4569160000000  0.4050390000000 1.0
C      1  0.5000410000000  0.5068160000000  0.5833990000000 1.0
C      1  0.4827600000000  0.4641010000000  0.5910490000000 1.0
C      1  0.4550110000000  0.4568090000000  0.4857190000000 1.0
C      1  0.5157420000000  0.5058760000000  0.5343770000000 1.0
END
