TITL C-627106-156-1541 7.5692908269867e-05 125000 -170.183495525407 0 0 29 (C1) n - 1
REM
REM in /home/nfs/bkarasulu/CARBON/AIRSS/Generating-Clusters/LCBOP/Only-C1/SD-CG/FIRE-CG
REM
REM
REM
REM
REM
REM ./C.cell (11c1c37f851c82e70ff6c80c92926a4b)
REM AIRSS Version 0.9.1 bugfix July 2018 build 013d7b7c2542+ Fri, 06 Jul 2018 19:26:36 +0100
REM compiler GCC version 9.2.1 20190827 (Red Hat 9.2.1-1)
REM options -cpp -mtune=generic -march=x86-64 -g -O0 -fpre-include=/usr/include/finclude/math-vector-fortran.h
REM seed 1839695503 988018281 -1863778933 -1614910646 633294550 -643635129 -1249089695 1705176843 -755439357 -901996581 -25227698 -819194727 1341073429 180611342 -1835656279 834304388 2021959729 438159401 -1190271164 1202370773 -2117613776 -489255615 1526209197 -655932100 -253799880 -1013475516 1816219331 -888331279 838606348 1857250530 -1004883192 -2072945416 1808015785
REM
CELL 1.54180   50.00000   50.00000   50.00000   90.00000   90.00000   90.00000
LATT -1
SFAC C  
C      1  0.4735650000000  0.4453430000000  0.4850760000000 1.0
C      1  0.4999340000000  0.5339840000000  0.4595470000000 1.0
C      1  0.5142970000000  0.5128760000000  0.5426420000000 1.0
C      1  0.6009400000000  0.5149830000000  0.6051200000000 1.0
C      1  0.4949930000000  0.4629910000000  0.4899760000000 1.0
C      1  0.5593970000000  0.5063140000000  0.4970230000000 1.0
C      1  0.5325740000000  0.5115390000000  0.4969090000000 1.0
C      1  0.5138010000000  0.4651960000000  0.4690730000000 1.0
C      1  0.5578150000000  0.5138560000000  0.5750680000000 1.0
C      1  0.5210320000000  0.5278240000000  0.4771270000000 1.0
C      1  0.4983560000000  0.4921010000000  0.4285830000000 1.0
C      1  0.4684480000000  0.4907420000000  0.5218540000000 1.0
C      1  0.4848090000000  0.5393390000000  0.5719020000000 1.0
C      1  0.4472400000000  0.4740350000000  0.5256460000000 1.0
C      1  0.4889380000000  0.5241470000000  0.5496540000000 1.0
C      1  0.4570820000000  0.5376940000000  0.5146820000000 1.0
C      1  0.4779810000000  0.5480890000000  0.4698270000000 1.0
C      1  0.4981450000000  0.5193110000000  0.4356270000000 1.0
C      1  0.5148720000000  0.4753980000000  0.4443100000000 1.0
C      1  0.4616090000000  0.5490810000000  0.4909190000000 1.0
C      1  0.5362400000000  0.5133080000000  0.5597160000000 1.0
C      1  0.5154110000000  0.5005000000000  0.5167490000000 1.0
C      1  0.4562870000000  0.4391200000000  0.4655930000000 1.0
C      1  0.4500940000000  0.4454790000000  0.4403450000000 1.0
C      1  0.4681260000000  0.5178580000000  0.5311180000000 1.0
C      1  0.4934820000000  0.4830290000000  0.5100070000000 1.0
C      1  0.5795470000000  0.5144250000000  0.5902320000000 1.0
C      1  0.4768850000000  0.4799000000000  0.4152000000000 1.0
C      1  0.4580990000000  0.4615380000000  0.4204770000000 1.0
END
