TITL C-627110-360-426 8.31087968318614 125000 -1198.06265062173 0 0 195 (C1) n - 1
REM
REM in /home/nfs/bkarasulu/CARBON/AIRSS/Generating-Clusters/LCBOP/Only-C1/SD-CG/FIRE-CG
REM
REM
REM
REM
REM
REM ./C.cell (11c1c37f851c82e70ff6c80c92926a4b)
REM AIRSS Version 0.9.1 bugfix July 2018 build 013d7b7c2542+ Fri, 06 Jul 2018 19:26:36 +0100
REM compiler GCC version 9.2.1 20190827 (Red Hat 9.2.1-1)
REM options -cpp -mtune=generic -march=x86-64 -g -O0 -fpre-include=/usr/include/finclude/math-vector-fortran.h
REM seed 1643668084 -669996791 1013426873 302747767 -45146874 1528864508 -842139625 -2015450163 309022905 1889112176 1325419735 2101234225 1758587097 -1878429177 724606076 1914519658 -1817269119 905806744 338103272 -530816742 -430711500 -1242756289 -1393023598 -2133213940 1845694249 -1029704681 1269403567 1235760399 -1097025463 255565216 -588249807 529612911 1741972071
REM
CELL 1.54180   50.00000   50.00000   50.00000   90.00000   90.00000   90.00000
LATT -1
SFAC C  
C      1  0.3999480000000  0.5546900000000  0.4735080000000 1.0
C      1  0.3753690000000  0.5288310000000  0.5396530000000 1.0
C      1  0.4491360000000  0.5257860000000  0.6116560000000 1.0
C      1  0.5629460000000  0.4935440000000  0.6036400000000 1.0
C      1  0.4459040000000  0.4638590000000  0.4536680000000 1.0
C      1  0.6007920000000  0.5384960000000  0.4663860000000 1.0
C      1  0.4314540000000  0.4496490000000  0.3998740000000 1.0
C      1  0.5672170000000  0.4698260000000  0.5883850000000 1.0
C      1  0.4560680000000  0.3780690000000  0.4858060000000 1.0
C      1  0.5533840000000  0.6312940000000  0.4937390000000 1.0
C      1  0.5924870000000  0.5353030000000  0.4377890000000 1.0
C      1  0.4896970000000  0.4233530000000  0.5628700000000 1.0
C      1  0.4559490000000  0.4384390000000  0.6215720000000 1.0
C      1  0.5099150000000  0.5411970000000  0.4859480000000 1.0
C      1  0.4222250000000  0.5667500000000  0.5950880000000 1.0
C      1  0.4843910000000  0.4964870000000  0.4827220000000 1.0
C      1  0.5763520000000  0.5881280000000  0.5217320000000 1.0
C      1  0.4837920000000  0.5642820000000  0.5656810000000 1.0
C      1  0.4124190000000  0.5020800000000  0.5067360000000 1.0
C      1  0.4931450000000  0.6133520000000  0.6200750000000 1.0
C      1  0.5523170000000  0.3952190000000  0.5280550000000 1.0
C      1  0.4685220000000  0.4689690000000  0.4371160000000 1.0
C      1  0.4058800000000  0.5311220000000  0.4541610000000 1.0
C      1  0.5629750000000  0.5113350000000  0.5456290000000 1.0
C      1  0.4605550000000  0.5369530000000  0.5257590000000 1.0
C      1  0.6076090000000  0.4767260000000  0.5014380000000 1.0
C      1  0.4959230000000  0.5848170000000  0.4458550000000 1.0
C      1  0.5856050000000  0.6180490000000  0.4535260000000 1.0
C      1  0.4960290000000  0.4685640000000  0.4833960000000 1.0
C      1  0.5670120000000  0.4076670000000  0.4438550000000 1.0
C      1  0.6049940000000  0.4508900000000  0.5625340000000 1.0
C      1  0.6005840000000  0.6088510000000  0.4313570000000 1.0
C      1  0.5331940000000  0.5701260000000  0.5135610000000 1.0
C      1  0.4515200000000  0.4544260000000  0.4799560000000 1.0
C      1  0.5264340000000  0.6270050000000  0.5015230000000 1.0
C      1  0.5223510000000  0.4457810000000  0.5386520000000 1.0
C      1  0.4547410000000  0.4078220000000  0.3915460000000 1.0
C      1  0.5075680000000  0.5681880000000  0.4976080000000 1.0
C      1  0.4364650000000  0.5140350000000  0.4913900000000 1.0
C      1  0.3878510000000  0.5057740000000  0.4532910000000 1.0
C      1  0.6266680000000  0.4779840000000  0.4553950000000 1.0
C      1  0.4965110000000  0.5844190000000  0.5811680000000 1.0
C      1  0.5349840000000  0.5302720000000  0.4928570000000 1.0
C      1  0.4477790000000  0.5114750000000  0.4391410000000 1.0
C      1  0.6140040000000  0.5196090000000  0.4836300000000 1.0
C      1  0.5008330000000  0.4291080000000  0.5894010000000 1.0
C      1  0.5408890000000  0.4047950000000  0.4325240000000 1.0
C      1  0.4391910000000  0.4445680000000  0.5488540000000 1.0
C      1  0.3781630000000  0.4892220000000  0.4764240000000 1.0
C      1  0.5222020000000  0.4906000000000  0.5311450000000 1.0
C      1  0.5852170000000  0.3938960000000  0.4918320000000 1.0
C      1  0.4198190000000  0.4294200000000  0.5617270000000 1.0
C      1  0.5424700000000  0.4438780000000  0.4833910000000 1.0
C      1  0.4652040000000  0.4838930000000  0.6341990000000 1.0
C      1  0.5153910000000  0.6201070000000  0.5282960000000 1.0
C      1  0.4674840000000  0.4000720000000  0.4742240000000 1.0
C      1  0.3544440000000  0.4594040000000  0.5450500000000 1.0
C      1  0.5656910000000  0.5731740000000  0.4673400000000 1.0
C      1  0.4660360000000  0.4630470000000  0.6151950000000 1.0
C      1  0.3833000000000  0.4054620000000  0.5909380000000 1.0
C      1  0.5347710000000  0.3970910000000  0.5050330000000 1.0
C      1  0.4241130000000  0.5101450000000  0.6009470000000 1.0
C      1  0.4652390000000  0.5433990000000  0.5716320000000 1.0
C      1  0.5721020000000  0.6275800000000  0.4747190000000 1.0
C      1  0.5354370000000  0.5061250000000  0.5508980000000 1.0
C      1  0.4512030000000  0.5255950000000  0.5512040000000 1.0
C      1  0.4639230000000  0.4049520000000  0.4463400000000 1.0
C      1  0.6348330000000  0.6224680000000  0.3978320000000 1.0
C      1  0.6090850000000  0.4268210000000  0.5515840000000 1.0
C      1  0.4646340000000  0.5743060000000  0.6169390000000 1.0
C      1  0.4331200000000  0.4764180000000  0.4005240000000 1.0
C      1  0.4340150000000  0.4699860000000  0.5356310000000 1.0
C      1  0.5998630000000  0.5823310000000  0.4182730000000 1.0
C      1  0.4849940000000  0.5911350000000  0.6063860000000 1.0
C      1  0.4701520000000  0.6020760000000  0.5106260000000 1.0
C      1  0.5134780000000  0.5299120000000  0.3829710000000 1.0
C      1  0.4598740000000  0.5614320000000  0.4871600000000 1.0
C      1  0.5249390000000  0.4392780000000  0.5982240000000 1.0
C      1  0.4580520000000  0.5098870000000  0.6353510000000 1.0
C      1  0.5440970000000  0.4156080000000  0.4853610000000 1.0
C      1  0.4997870000000  0.6080680000000  0.4587360000000 1.0
C      1  0.4428540000000  0.5592150000000  0.4335660000000 1.0
C      1  0.3807480000000  0.4598130000000  0.4725450000000 1.0
C      1  0.3692220000000  0.4827320000000  0.5488320000000 1.0
C      1  0.4225380000000  0.5176430000000  0.5500520000000 1.0
C      1  0.5485080000000  0.5888110000000  0.5284540000000 1.0
C      1  0.4996260000000  0.3272800000000  0.4899290000000 1.0
C      1  0.5244230000000  0.5878010000000  0.5723430000000 1.0
C      1  0.5871160000000  0.4723990000000  0.5668060000000 1.0
C      1  0.6030210000000  0.4409250000000  0.4311530000000 1.0
C      1  0.4651450000000  0.5373060000000  0.4303700000000 1.0
C      1  0.4891380000000  0.4838480000000  0.4282530000000 1.0
C      1  0.5891870000000  0.4571210000000  0.4934470000000 1.0
C      1  0.6190050000000  0.6272640000000  0.4194080000000 1.0
C      1  0.5384840000000  0.5240270000000  0.3920730000000 1.0
C      1  0.5796570000000  0.5116890000000  0.4256050000000 1.0
C      1  0.5409250000000  0.5047080000000  0.4860740000000 1.0
C      1  0.4971550000000  0.5099500000000  0.5826780000000 1.0
C      1  0.6075160000000  0.4683250000000  0.4368170000000 1.0
C      1  0.4123650000000  0.5772570000000  0.5723210000000 1.0
C      1  0.4062250000000  0.5759800000000  0.4926600000000 1.0
C      1  0.4186330000000  0.4939590000000  0.5337510000000 1.0
C      1  0.4865920000000  0.5333660000000  0.3846640000000 1.0
C      1  0.5462520000000  0.5444310000000  0.5139730000000 1.0
C      1  0.5901320000000  0.4157100000000  0.4288430000000 1.0
C      1  0.4380360000000  0.4235410000000  0.4082200000000 1.0
C      1  0.4784930000000  0.4570110000000  0.5259120000000 1.0
C      1  0.5339980000000  0.5613070000000  0.4320620000000 1.0
C      1  0.4755710000000  0.4687480000000  0.5891810000000 1.0
C      1  0.5402050000000  0.5648680000000  0.5820900000000 1.0
C      1  0.4142530000000  0.4200150000000  0.4522020000000 1.0
C      1  0.4018940000000  0.4449040000000  0.4589280000000 1.0
C      1  0.6105100000000  0.3793780000000  0.3936700000000 1.0
C      1  0.4180510000000  0.4659400000000  0.4468760000000 1.0
C      1  0.6008590000000  0.3972110000000  0.4107220000000 1.0
C      1  0.5575270000000  0.5202670000000  0.6040430000000 1.0
C      1  0.3321520000000  0.4130310000000  0.5343820000000 1.0
C      1  0.5519030000000  0.5144680000000  0.4153660000000 1.0
C      1  0.4806670000000  0.5788110000000  0.4973250000000 1.0
C      1  0.4768420000000  0.4482830000000  0.4958470000000 1.0
C      1  0.5409040000000  0.4062420000000  0.5521560000000 1.0
C      1  0.5075330000000  0.3520330000000  0.4951580000000 1.0
C      1  0.4870960000000  0.6166810000000  0.5277440000000 1.0
C      1  0.5331650000000  0.5056220000000  0.4354890000000 1.0
C      1  0.4623010000000  0.5350090000000  0.3991640000000 1.0
C      1  0.5226950000000  0.5190310000000  0.5733720000000 1.0
C      1  0.4319010000000  0.5168540000000  0.4623940000000 1.0
C      1  0.5324020000000  0.4856390000000  0.5048170000000 1.0
C      1  0.5804750000000  0.3952210000000  0.5203740000000 1.0
C      1  0.4432030000000  0.6078590000000  0.5038920000000 1.0
C      1  0.5676860000000  0.4047070000000  0.4721390000000 1.0
C      1  0.6000250000000  0.4060500000000  0.5373840000000 1.0
C      1  0.4862520000000  0.4006090000000  0.4278660000000 1.0
C      1  0.4051530000000  0.5805100000000  0.5465580000000 1.0
C      1  0.3841690000000  0.4990910000000  0.5024520000000 1.0
C      1  0.6199560000000  0.3617980000000  0.3768970000000 1.0
C      1  0.4663970000000  0.4985550000000  0.5498940000000 1.0
C      1  0.6083550000000  0.5215450000000  0.5126580000000 1.0
C      1  0.5653010000000  0.4771960000000  0.4559230000000 1.0
C      1  0.5038730000000  0.4690060000000  0.5412620000000 1.0
C      1  0.4430340000000  0.5562940000000  0.6118120000000 1.0
C      1  0.4030890000000  0.4964160000000  0.5905440000000 1.0
C      1  0.4357300000000  0.5013600000000  0.4130540000000 1.0
C      1  0.5169950000000  0.3763670000000  0.4997120000000 1.0
C      1  0.4805850000000  0.4194990000000  0.4900050000000 1.0
C      1  0.5511750000000  0.4448830000000  0.5876480000000 1.0
C      1  0.5845990000000  0.4850480000000  0.4363350000000 1.0
C      1  0.4010570000000  0.4862280000000  0.4362980000000 1.0
C      1  0.5091910000000  0.6229100000000  0.4790030000000 1.0
C      1  0.6170350000000  0.5791630000000  0.3957290000000 1.0
C      1  0.5227670000000  0.4627040000000  0.4906790000000 1.0
C      1  0.5668940000000  0.5349290000000  0.5306290000000 1.0
C      1  0.4603260000000  0.4961160000000  0.4991810000000 1.0
C      1  0.5849010000000  0.4925690000000  0.5463290000000 1.0
C      1  0.5915910000000  0.5675760000000  0.5082060000000 1.0
C      1  0.6338300000000  0.5980890000000  0.3857960000000 1.0
C      1  0.5887430000000  0.5623110000000  0.4800430000000 1.0
C      1  0.5594060000000  0.5683630000000  0.4403290000000 1.0
C      1  0.3991280000000  0.5333010000000  0.5522190000000 1.0
C      1  0.5052340000000  0.5071310000000  0.4310070000000 1.0
C      1  0.4192060000000  0.5441530000000  0.4230920000000 1.0
C      1  0.4742390000000  0.5254640000000  0.5926840000000 1.0
C      1  0.4883970000000  0.5397030000000  0.5260690000000 1.0
C      1  0.4377930000000  0.4146390000000  0.4361090000000 1.0
C      1  0.5140430000000  0.4024450000000  0.4329800000000 1.0
C      1  0.3843110000000  0.4869570000000  0.5732290000000 1.0
C      1  0.4678060000000  0.4366020000000  0.5473890000000 1.0
C      1  0.5561260000000  0.4294720000000  0.5633180000000 1.0
C      1  0.5448580000000  0.4962960000000  0.4594970000000 1.0
C      1  0.4474530000000  0.5403900000000  0.5014240000000 1.0
C      1  0.4326830000000  0.5275830000000  0.3997730000000 1.0
C      1  0.4991880000000  0.5567320000000  0.5434890000000 1.0
C      1  0.4604510000000  0.4813950000000  0.5258100000000 1.0
C      1  0.5835380000000  0.5609170000000  0.4269920000000 1.0
C      1  0.4922940000000  0.5236010000000  0.4719760000000 1.0
C      1  0.3426880000000  0.4362880000000  0.5396430000000 1.0
C      1  0.4870310000000  0.4854570000000  0.5673230000000 1.0
C      1  0.5138870000000  0.4191200000000  0.5473300000000 1.0
C      1  0.5928380000000  0.5429350000000  0.5224830000000 1.0
C      1  0.5312750000000  0.6029060000000  0.5469610000000 1.0
C      1  0.4920650000000  0.5323010000000  0.4423500000000 1.0
C      1  0.4001920000000  0.5757920000000  0.5204630000000 1.0
C      1  0.4240490000000  0.5977110000000  0.4853140000000 1.0
C      1  0.4406350000000  0.5861030000000  0.4395410000000 1.0
C      1  0.3702060000000  0.5031920000000  0.5279750000000 1.0
C      1  0.5672050000000  0.4568890000000  0.4757900000000 1.0
C      1  0.6029370000000  0.4947040000000  0.5238360000000 1.0
C      1  0.4913590000000  0.3031510000000  0.4845410000000 1.0
C      1  0.5400600000000  0.5366290000000  0.5883520000000 1.0
C      1  0.5506290000000  0.4488050000000  0.5416320000000 1.0
C      1  0.4015610000000  0.4168120000000  0.5761970000000 1.0
C      1  0.4295590000000  0.6017360000000  0.4581120000000 1.0
C      1  0.4779030000000  0.3974150000000  0.4008780000000 1.0
C      1  0.5069020000000  0.5596070000000  0.4386900000000 1.0
C      1  0.6203460000000  0.4914900000000  0.4793300000000 1.0
END
