TITL C-627113-6568-1130 -3.85460516348665e-07 125000 -478.855887478735 0 0 78 (C1) n - 1
REM
REM in /home/nfs/bkarasulu/CARBON/AIRSS/Generating-Clusters/LCBOP/Only-C1/SD-CG/FIRE-CG
REM
REM
REM
REM
REM
REM ./C.cell (11c1c37f851c82e70ff6c80c92926a4b)
REM AIRSS Version 0.9.1 bugfix July 2018 build 013d7b7c2542+ Fri, 06 Jul 2018 19:26:36 +0100
REM compiler GCC version 9.2.1 20190827 (Red Hat 9.2.1-1)
REM options -cpp -mtune=generic -march=x86-64 -g -O0 -fpre-include=/usr/include/finclude/math-vector-fortran.h
REM seed -1100561463 -344935220 -1729170597 274553772 612004556 -1924222833 1365822460 641149871 1271169531 -1585706263 -1083725637 -1037402793 -1520994705 2069657834 -1570233671 -1865121168 -1270044710 280841263 335453190 1296734798 1732310772 319559206 -1302538821 -1266957027 599670969 -1307088667 967911208 974907393 -71406284 -1592926577 1396632675 -703593871 1035915280
REM
CELL 1.54180   50.00000   50.00000   50.00000   90.00000   90.00000   90.00000
LATT -1
SFAC C  
C      1  0.4230730000000  0.4896440000000  0.4667160000000 1.0
C      1  0.4827190000000  0.5081340000000  0.5395750000000 1.0
C      1  0.5502520000000  0.5298100000000  0.5695480000000 1.0
C      1  0.4483000000000  0.4420290000000  0.5486930000000 1.0
C      1  0.5225660000000  0.5806260000000  0.5014360000000 1.0
C      1  0.5115660000000  0.5325720000000  0.4131290000000 1.0
C      1  0.5542190000000  0.4482960000000  0.5481880000000 1.0
C      1  0.4661370000000  0.4957540000000  0.5949280000000 1.0
C      1  0.4597460000000  0.4590450000000  0.4679840000000 1.0
C      1  0.5081710000000  0.4213070000000  0.4256620000000 1.0
C      1  0.4904840000000  0.5499070000000  0.5683750000000 1.0
C      1  0.5189300000000  0.5048050000000  0.4132120000000 1.0
C      1  0.5283450000000  0.5560330000000  0.4163720000000 1.0
C      1  0.4174660000000  0.5120930000000  0.4831000000000 1.0
C      1  0.5138730000000  0.4439570000000  0.4398720000000 1.0
C      1  0.5224220000000  0.4275170000000  0.5003010000000 1.0
C      1  0.4829200000000  0.4514950000000  0.5145590000000 1.0
C      1  0.4378740000000  0.5622370000000  0.5590900000000 1.0
C      1  0.4785370000000  0.5040310000000  0.4629150000000 1.0
C      1  0.4395060000000  0.5436610000000  0.5147860000000 1.0
C      1  0.5105470000000  0.4634760000000  0.5705810000000 1.0
C      1  0.4962700000000  0.5430410000000  0.5936570000000 1.0
C      1  0.4518060000000  0.5480270000000  0.5401260000000 1.0
C      1  0.4882410000000  0.5190210000000  0.4855540000000 1.0
C      1  0.4979320000000  0.4669890000000  0.4375430000000 1.0
C      1  0.5721630000000  0.5000310000000  0.4662650000000 1.0
C      1  0.4725030000000  0.5173090000000  0.4382790000000 1.0
C      1  0.4525430000000  0.4846470000000  0.5725660000000 1.0
C      1  0.4291450000000  0.5179960000000  0.5084180000000 1.0
C      1  0.5029760000000  0.5989190000000  0.5020130000000 1.0
C      1  0.4963900000000  0.4859230000000  0.4157020000000 1.0
C      1  0.4368400000000  0.4688420000000  0.4812240000000 1.0
C      1  0.5696800000000  0.4436540000000  0.5230800000000 1.0
C      1  0.4988000000000  0.5560470000000  0.4526480000000 1.0
C      1  0.5661420000000  0.4898510000000  0.4399180000000 1.0
C      1  0.4557210000000  0.4506340000000  0.5227900000000 1.0
C      1  0.4891080000000  0.5386150000000  0.4317380000000 1.0
C      1  0.4551740000000  0.4967620000000  0.5466790000000 1.0
C      1  0.4540020000000  0.5881780000000  0.4928910000000 1.0
C      1  0.4809650000000  0.4751660000000  0.4591330000000 1.0
C      1  0.5099750000000  0.5193120000000  0.6005190000000 1.0
C      1  0.4386570000000  0.4696880000000  0.5097870000000 1.0
C      1  0.5085570000000  0.4868450000000  0.5531480000000 1.0
C      1  0.4689490000000  0.4980740000000  0.4168800000000 1.0
C      1  0.4259580000000  0.4899040000000  0.4384360000000 1.0
C      1  0.4457060000000  0.4571780000000  0.5710200000000 1.0
C      1  0.5826990000000  0.4847130000000  0.5365790000000 1.0
C      1  0.5020420000000  0.5439420000000  0.4784720000000 1.0
C      1  0.4422700000000  0.4881830000000  0.4149150000000 1.0
C      1  0.5250710000000  0.5544310000000  0.4917040000000 1.0
C      1  0.4936530000000  0.4955070000000  0.6029420000000 1.0
C      1  0.5246070000000  0.4753350000000  0.4981890000000 1.0
C      1  0.5533550000000  0.5329910000000  0.5428980000000 1.0
C      1  0.5206630000000  0.5701070000000  0.4391320000000 1.0
C      1  0.5616620000000  0.4425820000000  0.4466410000000 1.0
C      1  0.5476640000000  0.5376710000000  0.4933150000000 1.0
C      1  0.4404270000000  0.5655640000000  0.4972350000000 1.0
C      1  0.5368410000000  0.5200920000000  0.5909800000000 1.0
C      1  0.5450470000000  0.4988750000000  0.4230580000000 1.0
C      1  0.4962510000000  0.4759310000000  0.5059460000000 1.0
C      1  0.5749390000000  0.4632890000000  0.4356170000000 1.0
C      1  0.4985680000000  0.4280430000000  0.5129790000000 1.0
C      1  0.5345730000000  0.4895800000000  0.5426850000000 1.0
C      1  0.4326290000000  0.4774770000000  0.3917210000000 1.0
C      1  0.5592430000000  0.4777460000000  0.5520340000000 1.0
C      1  0.4877470000000  0.5033790000000  0.5099380000000 1.0
C      1  0.5057750000000  0.4702940000000  0.5975640000000 1.0
C      1  0.5830530000000  0.4683870000000  0.5122190000000 1.0
C      1  0.5370080000000  0.4961090000000  0.5150160000000 1.0
C      1  0.5819880000000  0.4819890000000  0.4870000000000 1.0
C      1  0.4768460000000  0.6014250000000  0.4969070000000 1.0
C      1  0.5292370000000  0.4431230000000  0.5615650000000 1.0
C      1  0.5316870000000  0.4501030000000  0.4854990000000 1.0
C      1  0.4778340000000  0.5374270000000  0.5466980000000 1.0
C      1  0.5359770000000  0.4447090000000  0.4579280000000 1.0
C      1  0.5633980000000  0.5262200000000  0.4729270000000 1.0
C      1  0.5480590000000  0.5227440000000  0.5168240000000 1.0
C      1  0.4373260000000  0.4949530000000  0.5238350000000 1.0
END
