TITL C-627110-360-889 0.0166544420852252 125000 -220.969930046011 0 0 38 (C1) n - 1
REM
REM in /home/nfs/bkarasulu/CARBON/AIRSS/Generating-Clusters/LCBOP/Only-C1/SD-CG/FIRE-CG
REM
REM
REM
REM
REM
REM ./C.cell (11c1c37f851c82e70ff6c80c92926a4b)
REM AIRSS Version 0.9.1 bugfix July 2018 build 013d7b7c2542+ Fri, 06 Jul 2018 19:26:36 +0100
REM compiler GCC version 9.2.1 20190827 (Red Hat 9.2.1-1)
REM options -cpp -mtune=generic -march=x86-64 -g -O0 -fpre-include=/usr/include/finclude/math-vector-fortran.h
REM seed 1553816507 -1570584859 232495941 332412399 940338541 -73978950 -945728111 -42289168 786295847 -1738467161 14430711 1503587855 -1708103314 1609721465 1925954468 830366585 -2096406953 -753430117 -1502473877 1251247585 -1370356087 1120729678 -925901768 -1266473235 158716516 -753414941 1952764197 -1587937696 -1451568382 1865880035 921391388 -419156079 -82764273
REM
CELL 1.54180   50.00000   50.00000   50.00000   90.00000   90.00000   90.00000
LATT -1
SFAC C  
C      1  0.4958860000000  0.6034570000000  0.5238140000000 1.0
C      1  0.4808040000000  0.4667000000000  0.5106150000000 1.0
C      1  0.5811940000000  0.4613710000000  0.5138880000000 1.0
C      1  0.5032880000000  0.5028010000000  0.4823970000000 1.0
C      1  0.4807160000000  0.5818290000000  0.5115160000000 1.0
C      1  0.5111130000000  0.5933480000000  0.5446600000000 1.0
C      1  0.4423840000000  0.5216760000000  0.4475180000000 1.0
C      1  0.4872060000000  0.4934080000000  0.5048250000000 1.0
C      1  0.4115350000000  0.4385780000000  0.4801370000000 1.0
C      1  0.5157840000000  0.4626780000000  0.5447940000000 1.0
C      1  0.5233180000000  0.5432220000000  0.5421800000000 1.0
C      1  0.4635850000000  0.5079410000000  0.4411100000000 1.0
C      1  0.5021640000000  0.4236320000000  0.5195890000000 1.0
C      1  0.5064360000000  0.5524540000000  0.4788990000000 1.0
C      1  0.4565130000000  0.4559210000000  0.5021210000000 1.0
C      1  0.5323520000000  0.4617640000000  0.4275090000000 1.0
C      1  0.5144620000000  0.5275340000000  0.5200650000000 1.0
C      1  0.5648040000000  0.4644970000000  0.4938600000000 1.0
C      1  0.3894860000000  0.4304050000000  0.4688830000000 1.0
C      1  0.5609330000000  0.5473760000000  0.5727080000000 1.0
C      1  0.4339610000000  0.4469750000000  0.4915000000000 1.0
C      1  0.4877600000000  0.5144930000000  0.5245620000000 1.0
C      1  0.4994950000000  0.4508520000000  0.5252710000000 1.0
C      1  0.4694410000000  0.5347040000000  0.5324190000000 1.0
C      1  0.4869130000000  0.4933210000000  0.4369740000000 1.0
C      1  0.5143300000000  0.4655570000000  0.4076440000000 1.0
C      1  0.5152010000000  0.5282790000000  0.4906320000000 1.0
C      1  0.4791290000000  0.5614690000000  0.5334770000000 1.0
C      1  0.5405820000000  0.5042910000000  0.5640200000000 1.0
C      1  0.4891470000000  0.5718710000000  0.4863980000000 1.0
C      1  0.5296460000000  0.4730210000000  0.4533920000000 1.0
C      1  0.4923870000000  0.4807940000000  0.4121340000000 1.0
C      1  0.5305280000000  0.4803800000000  0.5580590000000 1.0
C      1  0.5481730000000  0.4678890000000  0.4735200000000 1.0
C      1  0.5057380000000  0.5650760000000  0.5477050000000 1.0
C      1  0.5048250000000  0.3984820000000  0.5133000000000 1.0
C      1  0.5421610000000  0.5321000000000  0.5601230000000 1.0
C      1  0.5066200000000  0.4898550000000  0.4577790000000 1.0
END
