TITL C-627113-6568-639 -3.67229087093464e-07 125000 -769.012979775472 0 0 127 (C1) n - 1
REM
REM in /home/nfs/bkarasulu/CARBON/AIRSS/Generating-Clusters/LCBOP/Only-C1/SD-CG/FIRE-CG
REM
REM
REM
REM
REM
REM ./C.cell (11c1c37f851c82e70ff6c80c92926a4b)
REM AIRSS Version 0.9.1 bugfix July 2018 build 013d7b7c2542+ Fri, 06 Jul 2018 19:26:36 +0100
REM compiler GCC version 9.2.1 20190827 (Red Hat 9.2.1-1)
REM options -cpp -mtune=generic -march=x86-64 -g -O0 -fpre-include=/usr/include/finclude/math-vector-fortran.h
REM seed -1809581744 1818393885 1583167504 -1429241388 1907852018 -1710983474 -1280979558 1311868841 1850499950 161637910 -588362437 1096084889 2112121449 1325243176 203661761 -2093143364 439062712 -1665693645 -561955752 -1360027485 686861805 671081333 2019052462 -1188845956 570922969 -1923767962 -82365549 1016819675 908708280 1226141330 649178524 -165807068 -1117072628
REM
CELL 1.54180   50.00000   50.00000   50.00000   90.00000   90.00000   90.00000
LATT -1
SFAC C  
C      1  0.4170120000000  0.4059100000000  0.5189960000000 1.0
C      1  0.5030900000000  0.5810640000000  0.4399740000000 1.0
C      1  0.5588830000000  0.5410220000000  0.5708040000000 1.0
C      1  0.5736460000000  0.4350510000000  0.4861170000000 1.0
C      1  0.5572800000000  0.5209160000000  0.4738030000000 1.0
C      1  0.5577390000000  0.5803430000000  0.5046510000000 1.0
C      1  0.5184960000000  0.5109790000000  0.4162280000000 1.0
C      1  0.4591530000000  0.4798910000000  0.4744480000000 1.0
C      1  0.4484710000000  0.5804480000000  0.4837110000000 1.0
C      1  0.5941590000000  0.4970470000000  0.5440490000000 1.0
C      1  0.5585860000000  0.5332090000000  0.5419260000000 1.0
C      1  0.5741360000000  0.4841790000000  0.4438560000000 1.0
C      1  0.4203120000000  0.4977660000000  0.4431670000000 1.0
C      1  0.5351360000000  0.5337580000000  0.4616440000000 1.0
C      1  0.5255610000000  0.3933670000000  0.5489440000000 1.0
C      1  0.5927760000000  0.4564060000000  0.4871060000000 1.0
C      1  0.4871650000000  0.5705340000000  0.4615850000000 1.0
C      1  0.5855780000000  0.5440430000000  0.5298980000000 1.0
C      1  0.5427570000000  0.4569510000000  0.3970360000000 1.0
C      1  0.4023890000000  0.6063170000000  0.4937430000000 1.0
C      1  0.4768470000000  0.5291850000000  0.4085960000000 1.0
C      1  0.5441630000000  0.4971670000000  0.4884190000000 1.0
C      1  0.4315750000000  0.5217730000000  0.4319270000000 1.0
C      1  0.5527340000000  0.4317980000000  0.5619790000000 1.0
C      1  0.5052040000000  0.4361170000000  0.5057850000000 1.0
C      1  0.5389290000000  0.4858160000000  0.5801650000000 1.0
C      1  0.6051370000000  0.5230860000000  0.5365510000000 1.0
C      1  0.4413460000000  0.4264450000000  0.4436150000000 1.0
C      1  0.5734230000000  0.5552280000000  0.4463120000000 1.0
C      1  0.4646540000000  0.5695840000000  0.5053600000000 1.0
C      1  0.4465930000000  0.5096290000000  0.5930290000000 1.0
C      1  0.4961540000000  0.4573440000000  0.4024530000000 1.0
C      1  0.4780140000000  0.4445160000000  0.5788160000000 1.0
C      1  0.5183970000000  0.4583480000000  0.3834380000000 1.0
C      1  0.5637660000000  0.5023310000000  0.5385730000000 1.0
C      1  0.5033280000000  0.4161760000000  0.4858630000000 1.0
C      1  0.5538150000000  0.5765970000000  0.4523790000000 1.0
C      1  0.5308570000000  0.6108900000000  0.4805070000000 1.0
C      1  0.4202350000000  0.5266150000000  0.4987120000000 1.0
C      1  0.5296560000000  0.5727680000000  0.4372410000000 1.0
C      1  0.5477750000000  0.4722350000000  0.4453900000000 1.0
C      1  0.4928150000000  0.4973490000000  0.5898520000000 1.0
C      1  0.4520740000000  0.5388070000000  0.4216110000000 1.0
C      1  0.4226900000000  0.4521270000000  0.5373020000000 1.0
C      1  0.4859660000000  0.4125680000000  0.4654670000000 1.0
C      1  0.5245100000000  0.4333070000000  0.5731840000000 1.0
C      1  0.5761390000000  0.4136450000000  0.4685700000000 1.0
C      1  0.5290900000000  0.4472570000000  0.5160390000000 1.0
C      1  0.5798740000000  0.5374170000000  0.4686410000000 1.0
C      1  0.5064350000000  0.4912590000000  0.5281340000000 1.0
C      1  0.5204900000000  0.5053790000000  0.5058920000000 1.0
C      1  0.4073100000000  0.4946930000000  0.4689170000000 1.0
C      1  0.4649810000000  0.5754820000000  0.5511150000000 1.0
C      1  0.5512390000000  0.5907560000000  0.4781010000000 1.0
C      1  0.4612260000000  0.5075840000000  0.4757300000000 1.0
C      1  0.4093820000000  0.5251120000000  0.5249520000000 1.0
C      1  0.5058400000000  0.4518520000000  0.5850830000000 1.0
C      1  0.5462620000000  0.5511500000000  0.5919560000000 1.0
C      1  0.4301020000000  0.4650990000000  0.5633520000000 1.0
C      1  0.5290370000000  0.5386860000000  0.4256490000000 1.0
C      1  0.4171720000000  0.5486110000000  0.5409170000000 1.0
C      1  0.5923180000000  0.4739540000000  0.4640350000000 1.0
C      1  0.5639000000000  0.5353540000000  0.4253380000000 1.0
C      1  0.4966890000000  0.5161500000000  0.5450540000000 1.0
C      1  0.5338470000000  0.5751930000000  0.5224100000000 1.0
C      1  0.4542780000000  0.4130930000000  0.5514190000000 1.0
C      1  0.5941840000000  0.4674450000000  0.5404640000000 1.0
C      1  0.4928230000000  0.5443850000000  0.4698590000000 1.0
C      1  0.4249410000000  0.5944860000000  0.4882240000000 1.0
C      1  0.4850960000000  0.5171600000000  0.4643180000000 1.0
C      1  0.4510120000000  0.4738470000000  0.4132660000000 1.0
C      1  0.4976530000000  0.5203380000000  0.5734900000000 1.0
C      1  0.4569450000000  0.5674210000000  0.4292110000000 1.0
C      1  0.4289590000000  0.4724870000000  0.4313150000000 1.0
C      1  0.4851840000000  0.5743000000000  0.4177590000000 1.0
C      1  0.4564460000000  0.4638260000000  0.5800250000000 1.0
C      1  0.5692220000000  0.4552530000000  0.5538620000000 1.0
C      1  0.4475460000000  0.5255040000000  0.4923980000000 1.0
C      1  0.4525380000000  0.5121090000000  0.5449030000000 1.0
C      1  0.6028030000000  0.4600220000000  0.5138420000000 1.0
C      1  0.4781510000000  0.4787730000000  0.4066230000000 1.0
C      1  0.5302480000000  0.4839490000000  0.4649130000000 1.0
C      1  0.5634990000000  0.4927380000000  0.5096310000000 1.0
C      1  0.4571970000000  0.4347510000000  0.5105000000000 1.0
C      1  0.5209120000000  0.5334360000000  0.5067690000000 1.0
C      1  0.4797440000000  0.5663060000000  0.5734190000000 1.0
C      1  0.4640740000000  0.5413610000000  0.5095500000000 1.0
C      1  0.4350260000000  0.5124420000000  0.5678050000000 1.0
C      1  0.4663080000000  0.4303110000000  0.4561430000000 1.0
C      1  0.4689970000000  0.4569690000000  0.4652400000000 1.0
C      1  0.5768650000000  0.3945850000000  0.4508130000000 1.0
C      1  0.5524520000000  0.4375010000000  0.5041860000000 1.0
C      1  0.4727610000000  0.5286740000000  0.5334500000000 1.0
C      1  0.5748210000000  0.5084940000000  0.4277460000000 1.0
C      1  0.5081350000000  0.5901460000000  0.5196340000000 1.0
C      1  0.5114400000000  0.6107310000000  0.4997320000000 1.0
C      1  0.5179620000000  0.5435170000000  0.4808320000000 1.0
C      1  0.4905130000000  0.5043630000000  0.4095010000000 1.0
C      1  0.5381970000000  0.4545680000000  0.4258470000000 1.0
C      1  0.5098940000000  0.4472090000000  0.4263510000000 1.0
C      1  0.5520820000000  0.4051580000000  0.5500840000000 1.0
C      1  0.5067450000000  0.4113300000000  0.5616270000000 1.0
C      1  0.5272450000000  0.4697960000000  0.5344490000000 1.0
C      1  0.4786180000000  0.4193490000000  0.5642900000000 1.0
C      1  0.5493100000000  0.4797230000000  0.5531300000000 1.0
C      1  0.4052090000000  0.4971880000000  0.5343020000000 1.0
C      1  0.4589910000000  0.5754170000000  0.4577220000000 1.0
C      1  0.4813720000000  0.4751570000000  0.5231930000000 1.0
C      1  0.4222210000000  0.4476160000000  0.4455260000000 1.0
C      1  0.4082180000000  0.4493770000000  0.4706720000000 1.0
C      1  0.4812430000000  0.4488830000000  0.5131000000000 1.0
C      1  0.5194520000000  0.3694390000000  0.5376340000000 1.0
C      1  0.5348300000000  0.5467030000000  0.5272660000000 1.0
C      1  0.4063030000000  0.4723030000000  0.4881230000000 1.0
C      1  0.5135930000000  0.4783510000000  0.5901460000000 1.0
C      1  0.4364810000000  0.4257480000000  0.5300110000000 1.0
C      1  0.4370630000000  0.5662560000000  0.5484460000000 1.0
C      1  0.5204540000000  0.5548820000000  0.5980370000000 1.0
C      1  0.4976930000000  0.5471570000000  0.5835680000000 1.0
C      1  0.4801550000000  0.5824290000000  0.5263720000000 1.0
C      1  0.4655870000000  0.4887450000000  0.5935400000000 1.0
C      1  0.4090720000000  0.4723080000000  0.5174850000000 1.0
C      1  0.4965250000000  0.5502780000000  0.4077210000000 1.0
C      1  0.4576810000000  0.4869270000000  0.5322670000000 1.0
C      1  0.4163050000000  0.4918410000000  0.5609850000000 1.0
C      1  0.5815780000000  0.5671620000000  0.5137370000000 1.0
C      1  0.5048300000000  0.4963360000000  0.4594250000000 1.0
END
