TITL C-627111-6168-2039 -0.149196870334717 125000 -1156.90393111425 0 0 187 (C1) n - 1
REM
REM in /home/nfs/bkarasulu/CARBON/AIRSS/Generating-Clusters/LCBOP/Only-C1/SD-CG/FIRE-CG
REM
REM
REM
REM
REM
REM ./C.cell (11c1c37f851c82e70ff6c80c92926a4b)
REM AIRSS Version 0.9.1 bugfix July 2018 build 013d7b7c2542+ Fri, 06 Jul 2018 19:26:36 +0100
REM compiler GCC version 9.2.1 20190827 (Red Hat 9.2.1-1)
REM options -cpp -mtune=generic -march=x86-64 -g -O0 -fpre-include=/usr/include/finclude/math-vector-fortran.h
REM seed 939209048 1351192497 -1940942322 1846601746 811182782 1785389292 97798944 1242553533 933847585 -456166691 1764647295 1800193651 -1939348014 1978286714 -712408695 274299302 26922469 869711480 -1322857787 -1082063274 884745391 1032399016 -374081062 752233257 -966323340 -147333274 -2066798099 -831702859 -8011175 -928041810 1163723090 -1188616687 857093162
REM
CELL 1.54180   50.00000   50.00000   50.00000   90.00000   90.00000   90.00000
LATT -1
SFAC C  
C      1  0.4687570000000  0.5294350000000  0.5175310000000 1.0
C      1  0.4298090000000  0.6037250000000  0.5983770000000 1.0
C      1  0.4168330000000  0.5417570000000  0.5758710000000 1.0
C      1  0.5196730000000  0.5918850000000  0.4282460000000 1.0
C      1  0.5245280000000  0.3975690000000  0.5055060000000 1.0
C      1  0.3917720000000  0.4970840000000  0.4198940000000 1.0
C      1  0.4424360000000  0.5216270000000  0.5227000000000 1.0
C      1  0.5968710000000  0.4520880000000  0.4222780000000 1.0
C      1  0.5244840000000  0.6320740000000  0.4536110000000 1.0
C      1  0.4992980000000  0.6401950000000  0.4576860000000 1.0
C      1  0.6060250000000  0.4462090000000  0.5299130000000 1.0
C      1  0.5906190000000  0.3749050000000  0.4841250000000 1.0
C      1  0.5504850000000  0.4041270000000  0.5993320000000 1.0
C      1  0.4261130000000  0.5982570000000  0.5045330000000 1.0
C      1  0.5218810000000  0.4484860000000  0.5951380000000 1.0
C      1  0.6086490000000  0.3940150000000  0.4900510000000 1.0
C      1  0.6116560000000  0.4739760000000  0.5398780000000 1.0
C      1  0.5258740000000  0.4019050000000  0.5849920000000 1.0
C      1  0.4626760000000  0.6167540000000  0.4809210000000 1.0
C      1  0.4302340000000  0.4574350000000  0.4890990000000 1.0
C      1  0.5673260000000  0.4139580000000  0.5182880000000 1.0
C      1  0.5503120000000  0.4521240000000  0.5965880000000 1.0
C      1  0.5161940000000  0.6202370000000  0.3885970000000 1.0
C      1  0.3960480000000  0.4999210000000  0.5900900000000 1.0
C      1  0.4757690000000  0.6183190000000  0.5071190000000 1.0
C      1  0.5167870000000  0.4865190000000  0.4698330000000 1.0
C      1  0.3977260000000  0.5332140000000  0.5101570000000 1.0
C      1  0.4771900000000  0.3901730000000  0.5114140000000 1.0
C      1  0.5302920000000  0.4808790000000  0.4449880000000 1.0
C      1  0.5435400000000  0.5036430000000  0.4326720000000 1.0
C      1  0.4445170000000  0.6092970000000  0.4208930000000 1.0
C      1  0.5598440000000  0.4705490000000  0.5776740000000 1.0
C      1  0.4078960000000  0.5390630000000  0.4523820000000 1.0
C      1  0.4381540000000  0.4937550000000  0.5186730000000 1.0
C      1  0.5803130000000  0.5450710000000  0.5515390000000 1.0
C      1  0.5650250000000  0.4601610000000  0.5108260000000 1.0
C      1  0.5680620000000  0.5725850000000  0.4725620000000 1.0
C      1  0.4682120000000  0.6008910000000  0.5288940000000 1.0
C      1  0.4888430000000  0.5085710000000  0.5161330000000 1.0
C      1  0.4521630000000  0.5432340000000  0.4696740000000 1.0
C      1  0.5030450000000  0.5372610000000  0.6104390000000 1.0
C      1  0.4924130000000  0.5682370000000  0.4605730000000 1.0
C      1  0.5107190000000  0.5675930000000  0.4397100000000 1.0
C      1  0.4694560000000  0.5708070000000  0.5652770000000 1.0
C      1  0.4450360000000  0.4426230000000  0.5068830000000 1.0
C      1  0.5603470000000  0.5573470000000  0.4959060000000 1.0
C      1  0.4604550000000  0.4450820000000  0.5940740000000 1.0
C      1  0.3950540000000  0.5154420000000  0.4640890000000 1.0
C      1  0.4849680000000  0.5882910000000  0.5493950000000 1.0
C      1  0.5221980000000  0.4319630000000  0.4585760000000 1.0
C      1  0.4789360000000  0.3617370000000  0.4368120000000 1.0
C      1  0.4468590000000  0.6011210000000  0.6186230000000 1.0
C      1  0.4002250000000  0.5203870000000  0.4087280000000 1.0
C      1  0.5490030000000  0.6260700000000  0.5465530000000 1.0
C      1  0.5276480000000  0.5626450000000  0.5679480000000 1.0
C      1  0.6257930000000  0.4384390000000  0.5090900000000 1.0
C      1  0.4783540000000  0.5011730000000  0.4142180000000 1.0
C      1  0.5631700000000  0.4278840000000  0.6039970000000 1.0
C      1  0.5795060000000  0.4387330000000  0.5233120000000 1.0
C      1  0.5681410000000  0.3613520000000  0.4782530000000 1.0
C      1  0.4421310000000  0.3975830000000  0.4434900000000 1.0
C      1  0.5984280000000  0.5325360000000  0.4202590000000 1.0
C      1  0.4514360000000  0.4728900000000  0.4491870000000 1.0
C      1  0.5605030000000  0.3911240000000  0.5340250000000 1.0
C      1  0.5345990000000  0.4657830000000  0.3863060000000 1.0
C      1  0.5013020000000  0.3527020000000  0.4483340000000 1.0
C      1  0.5954400000000  0.5125810000000  0.4940180000000 1.0
C      1  0.4889560000000  0.5755830000000  0.6360020000000 1.0
C      1  0.4646930000000  0.5220370000000  0.4272960000000 1.0
C      1  0.3934490000000  0.4906830000000  0.4477640000000 1.0
C      1  0.4802790000000  0.3618240000000  0.5089780000000 1.0
C      1  0.4832280000000  0.5159670000000  0.6122740000000 1.0
C      1  0.6195520000000  0.5096180000000  0.5086160000000 1.0
C      1  0.5528180000000  0.5169590000000  0.4771000000000 1.0
C      1  0.4341800000000  0.5589910000000  0.4164700000000 1.0
C      1  0.5044710000000  0.6624810000000  0.5182580000000 1.0
C      1  0.4796520000000  0.4734940000000  0.4087260000000 1.0
C      1  0.5890030000000  0.5187290000000  0.5588130000000 1.0
C      1  0.4212070000000  0.5975220000000  0.5739570000000 1.0
C      1  0.4903160000000  0.5792990000000  0.3920030000000 1.0
C      1  0.4356430000000  0.4853140000000  0.4910770000000 1.0
C      1  0.4557380000000  0.5194750000000  0.4549250000000 1.0
C      1  0.4982380000000  0.3469030000000  0.4953500000000 1.0
C      1  0.4926960000000  0.5295580000000  0.5672210000000 1.0
C      1  0.5089280000000  0.5979240000000  0.4025300000000 1.0
C      1  0.4426500000000  0.5001310000000  0.5860650000000 1.0
C      1  0.3841050000000  0.5181920000000  0.4903910000000 1.0
C      1  0.5465580000000  0.4139490000000  0.4971040000000 1.0
C      1  0.5151430000000  0.4273640000000  0.5767440000000 1.0
C      1  0.4552470000000  0.4004860000000  0.5279880000000 1.0
C      1  0.4186400000000  0.5546220000000  0.5506960000000 1.0
C      1  0.5119510000000  0.5436780000000  0.5833320000000 1.0
C      1  0.4565630000000  0.3763030000000  0.4360350000000 1.0
C      1  0.4659210000000  0.4952330000000  0.6019260000000 1.0
C      1  0.6103500000000  0.5627950000000  0.5091680000000 1.0
C      1  0.5282740000000  0.5065420000000  0.4857070000000 1.0
C      1  0.5350360000000  0.4492410000000  0.4078560000000 1.0
C      1  0.4947620000000  0.4702910000000  0.4781000000000 1.0
C      1  0.4989650000000  0.5036930000000  0.5606080000000 1.0
C      1  0.4679000000000  0.5911170000000  0.6314180000000 1.0
C      1  0.5827320000000  0.4667600000000  0.4665700000000 1.0
C      1  0.4408430000000  0.4743770000000  0.5408170000000 1.0
C      1  0.4802830000000  0.5528480000000  0.3923160000000 1.0
C      1  0.4538040000000  0.4630860000000  0.4029000000000 1.0
C      1  0.4975280000000  0.5325570000000  0.3812510000000 1.0
C      1  0.5075500000000  0.5549530000000  0.6320600000000 1.0
C      1  0.4268880000000  0.5555850000000  0.4663810000000 1.0
C      1  0.5982370000000  0.4502580000000  0.4494350000000 1.0
C      1  0.4192580000000  0.5176770000000  0.5900020000000 1.0
C      1  0.5020810000000  0.4628380000000  0.6082640000000 1.0
C      1  0.4395390000000  0.5941540000000  0.5290290000000 1.0
C      1  0.6190530000000  0.4203170000000  0.4878780000000 1.0
C      1  0.6116800000000  0.5603810000000  0.4818320000000 1.0
C      1  0.4747840000000  0.4677450000000  0.6035630000000 1.0
C      1  0.4730390000000  0.6303220000000  0.4579690000000 1.0
C      1  0.6220520000000  0.5177930000000  0.3756970000000 1.0
C      1  0.5466990000000  0.4810880000000  0.5549400000000 1.0
C      1  0.6154300000000  0.4323180000000  0.4625150000000 1.0
C      1  0.4463690000000  0.4950430000000  0.4660930000000 1.0
C      1  0.5286470000000  0.5207880000000  0.4156740000000 1.0
C      1  0.5930820000000  0.4915700000000  0.4746160000000 1.0
C      1  0.5201220000000  0.5442010000000  0.4283340000000 1.0
C      1  0.5712170000000  0.5295510000000  0.4953320000000 1.0
C      1  0.4572310000000  0.4259650000000  0.5752790000000 1.0
C      1  0.4746150000000  0.5574800000000  0.4790340000000 1.0
C      1  0.4926610000000  0.4586560000000  0.4294870000000 1.0
C      1  0.6412740000000  0.4629180000000  0.5056900000000 1.0
C      1  0.6296270000000  0.4854570000000  0.5193700000000 1.0
C      1  0.4291340000000  0.3940200000000  0.5177730000000 1.0
C      1  0.3877480000000  0.4561290000000  0.5671210000000 1.0
C      1  0.5336350000000  0.3816090000000  0.5281960000000 1.0
C      1  0.3986210000000  0.4630510000000  0.4551350000000 1.0
C      1  0.4117850000000  0.5414940000000  0.4234720000000 1.0
C      1  0.4093880000000  0.4012270000000  0.5009350000000 1.0
C      1  0.4343660000000  0.5848590000000  0.4299890000000 1.0
C      1  0.5908980000000  0.5583380000000  0.4617620000000 1.0
C      1  0.3725310000000  0.5041690000000  0.6029210000000 1.0
C      1  0.5358490000000  0.6076800000000  0.4456560000000 1.0
C      1  0.5837300000000  0.5364490000000  0.4437100000000 1.0
C      1  0.4969740000000  0.4185520000000  0.4706650000000 1.0
C      1  0.5292400000000  0.5520240000000  0.6483940000000 1.0
C      1  0.4315850000000  0.4805530000000  0.5667010000000 1.0
C      1  0.5618070000000  0.4559960000000  0.4825580000000 1.0
C      1  0.5077040000000  0.4344590000000  0.5504350000000 1.0
C      1  0.5220740000000  0.4531740000000  0.4342610000000 1.0
C      1  0.4481330000000  0.4474570000000  0.5339740000000 1.0
C      1  0.4451060000000  0.4218490000000  0.4566040000000 1.0
C      1  0.5138060000000  0.5861780000000  0.5554370000000 1.0
C      1  0.5614000000000  0.5183280000000  0.4498230000000 1.0
C      1  0.5550210000000  0.5556780000000  0.5608700000000 1.0
C      1  0.5151380000000  0.3487820000000  0.4726090000000 1.0
C      1  0.5555340000000  0.4791360000000  0.5285580000000 1.0
C      1  0.5164580000000  0.3780940000000  0.5738550000000 1.0
C      1  0.4035820000000  0.4770710000000  0.5740500000000 1.0
C      1  0.5268870000000  0.4904640000000  0.3785590000000 1.0
C      1  0.4592280000000  0.5454690000000  0.4109040000000 1.0
C      1  0.5117500000000  0.5473620000000  0.5081810000000 1.0
C      1  0.4770580000000  0.4587140000000  0.4557880000000 1.0
C      1  0.5972700000000  0.5589040000000  0.5327380000000 1.0
C      1  0.4957570000000  0.4594390000000  0.5044480000000 1.0
C      1  0.4830710000000  0.5517060000000  0.5052450000000 1.0
C      1  0.4016300000000  0.4188730000000  0.4818940000000 1.0
C      1  0.4715500000000  0.4300710000000  0.4622170000000 1.0
C      1  0.5138440000000  0.5182120000000  0.5064250000000 1.0
C      1  0.5450250000000  0.4335050000000  0.4766620000000 1.0
C      1  0.3602170000000  0.5062760000000  0.4965280000000 1.0
C      1  0.5300230000000  0.6085710000000  0.5501540000000 1.0
C      1  0.6106130000000  0.5255910000000  0.3977860000000 1.0
C      1  0.5025530000000  0.4475550000000  0.5275570000000 1.0
C      1  0.5186820000000  0.5151730000000  0.3895360000000 1.0
C      1  0.5352740000000  0.5620100000000  0.5076040000000 1.0
C      1  0.4691490000000  0.5440780000000  0.5654020000000 1.0
C      1  0.4249260000000  0.5825850000000  0.5504470000000 1.0
C      1  0.4299030000000  0.5830930000000  0.4586160000000 1.0
C      1  0.5995860000000  0.4939360000000  0.5560640000000 1.0
C      1  0.4982340000000  0.4034630000000  0.4959470000000 1.0
C      1  0.4380900000000  0.6014320000000  0.4791620000000 1.0
C      1  0.5559440000000  0.5945270000000  0.4603700000000 1.0
C      1  0.4590070000000  0.6279590000000  0.4336420000000 1.0
C      1  0.5202850000000  0.4885680000000  0.5583040000000 1.0
C      1  0.5431840000000  0.3520470000000  0.4746300000000 1.0
C      1  0.4158570000000  0.4413920000000  0.4688750000000 1.0
C      1  0.5193240000000  0.3692860000000  0.5486600000000 1.0
C      1  0.4380900000000  0.4647780000000  0.4251280000000 1.0
C      1  0.4195530000000  0.5379730000000  0.5274060000000 1.0
C      1  0.4927570000000  0.6398560000000  0.5127330000000 1.0
C      1  0.4549490000000  0.4230370000000  0.5473500000000 1.0
END
