TITL C-627113-6568-739 0.0362243880171559 125000 -654.033354056768 0 0 107 (C1) n - 1
REM
REM in /home/nfs/bkarasulu/CARBON/AIRSS/Generating-Clusters/LCBOP/Only-C1/SD-CG/FIRE-CG
REM
REM
REM
REM
REM
REM ./C.cell (11c1c37f851c82e70ff6c80c92926a4b)
REM AIRSS Version 0.9.1 bugfix July 2018 build 013d7b7c2542+ Fri, 06 Jul 2018 19:26:36 +0100
REM compiler GCC version 9.2.1 20190827 (Red Hat 9.2.1-1)
REM options -cpp -mtune=generic -march=x86-64 -g -O0 -fpre-include=/usr/include/finclude/math-vector-fortran.h
REM seed -559220057 1472055795 -1933488940 863402310 1291995972 1479998523 1666960400 555874451 -2001354734 -539604319 -255961751 -2029456054 -550417683 280378125 1034668263 -1701843859 1112358991 1756151816 1838810224 127675960 104076071 -720623482 2103684482 -1721517149 149793424 291993571 -322865067 -104920679 252843407 -1783662150 135988826 -876665746 1457822253
REM
CELL 1.54180   50.00000   50.00000   50.00000   90.00000   90.00000   90.00000
LATT -1
SFAC C  
C      1  0.4743000000000  0.5635230000000  0.4173790000000 1.0
C      1  0.4140400000000  0.5449070000000  0.5528220000000 1.0
C      1  0.5203240000000  0.4995950000000  0.4865910000000 1.0
C      1  0.4786520000000  0.4322170000000  0.4952170000000 1.0
C      1  0.4225140000000  0.4707760000000  0.4657270000000 1.0
C      1  0.6022010000000  0.5029110000000  0.5085230000000 1.0
C      1  0.4293490000000  0.5539310000000  0.4309810000000 1.0
C      1  0.4336450000000  0.4150960000000  0.4460540000000 1.0
C      1  0.3845550000000  0.4941320000000  0.5212670000000 1.0
C      1  0.5160330000000  0.5399720000000  0.5930460000000 1.0
C      1  0.5792820000000  0.4971190000000  0.6003010000000 1.0
C      1  0.5102240000000  0.4829890000000  0.5405740000000 1.0
C      1  0.4901570000000  0.5993720000000  0.4848130000000 1.0
C      1  0.5268520000000  0.5073300000000  0.5367340000000 1.0
C      1  0.4522870000000  0.4896230000000  0.5238200000000 1.0
C      1  0.5488210000000  0.5283050000000  0.4309070000000 1.0
C      1  0.4752270000000  0.4691160000000  0.4169190000000 1.0
C      1  0.5039770000000  0.4391700000000  0.5046400000000 1.0
C      1  0.5244330000000  0.4284390000000  0.4881010000000 1.0
C      1  0.4888910000000  0.5685020000000  0.3963610000000 1.0
C      1  0.4120400000000  0.4889270000000  0.4220320000000 1.0
C      1  0.4426250000000  0.4618650000000  0.5281490000000 1.0
C      1  0.5541990000000  0.4606200000000  0.5124710000000 1.0
C      1  0.6041450000000  0.4867450000000  0.4840090000000 1.0
C      1  0.4884590000000  0.4934000000000  0.5849440000000 1.0
C      1  0.3738350000000  0.5126760000000  0.5392510000000 1.0
C      1  0.4584280000000  0.4436310000000  0.5431420000000 1.0
C      1  0.5347920000000  0.4259940000000  0.5443340000000 1.0
C      1  0.5830830000000  0.4970160000000  0.4657770000000 1.0
C      1  0.4286320000000  0.4728590000000  0.4378080000000 1.0
C      1  0.5082830000000  0.5965980000000  0.4651410000000 1.0
C      1  0.5264590000000  0.4868670000000  0.4167100000000 1.0
C      1  0.4729800000000  0.4705120000000  0.4669840000000 1.0
C      1  0.5552010000000  0.4127430000000  0.4276100000000 1.0
C      1  0.5404740000000  0.5162590000000  0.4765880000000 1.0
C      1  0.5092810000000  0.4646440000000  0.5177560000000 1.0
C      1  0.4697830000000  0.5042780000000  0.5406850000000 1.0
C      1  0.4537000000000  0.5679180000000  0.4851490000000 1.0
C      1  0.5678830000000  0.5825190000000  0.4636740000000 1.0
C      1  0.5556400000000  0.4293440000000  0.4494950000000 1.0
C      1  0.4228730000000  0.4215270000000  0.4700260000000 1.0
C      1  0.3216900000000  0.5112990000000  0.5529500000000 1.0
C      1  0.5239750000000  0.5544510000000  0.5472990000000 1.0
C      1  0.5347070000000  0.5762280000000  0.5316790000000 1.0
C      1  0.3468880000000  0.5119620000000  0.5463280000000 1.0
C      1  0.5109750000000  0.5315360000000  0.5365010000000 1.0
C      1  0.5753560000000  0.5132840000000  0.5114570000000 1.0
C      1  0.4206080000000  0.4462650000000  0.4832400000000 1.0
C      1  0.4810210000000  0.4741500000000  0.6028200000000 1.0
C      1  0.6011220000000  0.4592060000000  0.4892530000000 1.0
C      1  0.5335380000000  0.5310580000000  0.4545570000000 1.0
C      1  0.5875890000000  0.3427330000000  0.5268440000000 1.0
C      1  0.4462030000000  0.4297330000000  0.4270460000000 1.0
C      1  0.5608040000000  0.3986730000000  0.4890060000000 1.0
C      1  0.4563460000000  0.5565940000000  0.4376880000000 1.0
C      1  0.4483300000000  0.4987050000000  0.4964900000000 1.0
C      1  0.5667950000000  0.5135090000000  0.4836300000000 1.0
C      1  0.5777870000000  0.4513680000000  0.5001510000000 1.0
C      1  0.4221610000000  0.4929010000000  0.4857240000000 1.0
C      1  0.4898320000000  0.5380940000000  0.4689580000000 1.0
C      1  0.4812250000000  0.4321540000000  0.5521590000000 1.0
C      1  0.5129370000000  0.5494640000000  0.4572770000000 1.0
C      1  0.4700900000000  0.4447480000000  0.4731970000000 1.0
C      1  0.5219920000000  0.5759000000000  0.4520110000000 1.0
C      1  0.5077150000000  0.4266950000000  0.5534880000000 1.0
C      1  0.5547920000000  0.5105140000000  0.5308180000000 1.0
C      1  0.5465010000000  0.4020620000000  0.5350470000000 1.0
C      1  0.4709860000000  0.4950630000000  0.4799280000000 1.0
C      1  0.4715270000000  0.5846260000000  0.5000880000000 1.0
C      1  0.4876020000000  0.4887590000000  0.5569790000000 1.0
C      1  0.4267920000000  0.5677610000000  0.4899210000000 1.0
C      1  0.4033190000000  0.5134790000000  0.4167430000000 1.0
C      1  0.5173700000000  0.5989750000000  0.5332810000000 1.0
C      1  0.4190970000000  0.4561810000000  0.5114530000000 1.0
C      1  0.4954690000000  0.5829220000000  0.5720190000000 1.0
C      1  0.5628260000000  0.4625460000000  0.5615420000000 1.0
C      1  0.5683160000000  0.5808560000000  0.4904830000000 1.0
C      1  0.5497860000000  0.5754220000000  0.4430510000000 1.0
C      1  0.4814010000000  0.5305240000000  0.5357820000000 1.0
C      1  0.6032080000000  0.4945250000000  0.6132980000000 1.0
C      1  0.5507220000000  0.4996130000000  0.4260870000000 1.0
C      1  0.3910790000000  0.5319610000000  0.5498920000000 1.0
C      1  0.5746450000000  0.3646370000000  0.5211970000000 1.0
C      1  0.4936870000000  0.5114060000000  0.4805380000000 1.0
C      1  0.5134790000000  0.5607860000000  0.5738590000000 1.0
C      1  0.5470610000000  0.4187150000000  0.4746860000000 1.0
C      1  0.5608530000000  0.3880730000000  0.5151920000000 1.0
C      1  0.5503300000000  0.4500270000000  0.5397510000000 1.0
C      1  0.5625060000000  0.5189040000000  0.6057520000000 1.0
C      1  0.4392500000000  0.5518860000000  0.5485360000000 1.0
C      1  0.5713150000000  0.4780120000000  0.5813760000000 1.0
C      1  0.5708200000000  0.5604900000000  0.4003370000000 1.0
C      1  0.4501770000000  0.4578690000000  0.4252620000000 1.0
C      1  0.5642540000000  0.4561130000000  0.4458110000000 1.0
C      1  0.4973390000000  0.5187920000000  0.5936640000000 1.0
C      1  0.5305880000000  0.4759310000000  0.5009290000000 1.0
C      1  0.4919090000000  0.5936680000000  0.5453430000000 1.0
C      1  0.4047550000000  0.4820700000000  0.5069610000000 1.0
C      1  0.5573400000000  0.5548190000000  0.4233520000000 1.0
C      1  0.5562290000000  0.5762690000000  0.5138870000000 1.0
C      1  0.5686350000000  0.4842110000000  0.4438940000000 1.0
C      1  0.5008880000000  0.4778660000000  0.4154280000000 1.0
C      1  0.4739350000000  0.5794020000000  0.5280370000000 1.0
C      1  0.4654040000000  0.5522220000000  0.4644350000000 1.0
C      1  0.4096170000000  0.5389140000000  0.4214320000000 1.0
C      1  0.4647980000000  0.5537730000000  0.5372840000000 1.0
C      1  0.5411500000000  0.5346760000000  0.6043800000000 1.0
END
