TITL C-627110-360-1455 -0.0834842810276235 125000 -727.944991379657 0 0 121 (C1) n - 1
REM
REM in /home/nfs/bkarasulu/CARBON/AIRSS/Generating-Clusters/LCBOP/Only-C1/SD-CG/FIRE-CG
REM
REM
REM
REM
REM
REM ./C.cell (11c1c37f851c82e70ff6c80c92926a4b)
REM AIRSS Version 0.9.1 bugfix July 2018 build 013d7b7c2542+ Fri, 06 Jul 2018 19:26:36 +0100
REM compiler GCC version 9.2.1 20190827 (Red Hat 9.2.1-1)
REM options -cpp -mtune=generic -march=x86-64 -g -O0 -fpre-include=/usr/include/finclude/math-vector-fortran.h
REM seed -1761030481 1068205692 -785229622 -675798678 -889860124 1968985099 -566770917 792275747 -1847882547 -1122900063 -1209651421 -355152996 54317352 -109417196 -621698743 -2088360805 -76490376 1420935087 -578643513 2069893170 541582231 2017754986 -1677769343 627919120 -683906661 868490641 -542249000 -181419030 -1388453307 -2007815941 1293576447 1153685955 1602110695
REM
CELL 1.54180   50.00000   50.00000   50.00000   90.00000   90.00000   90.00000
LATT -1
SFAC C  
C      1  0.4816910000000  0.3908680000000  0.5626960000000 1.0
C      1  0.5711090000000  0.5556000000000  0.5030120000000 1.0
C      1  0.4147230000000  0.5526010000000  0.5625560000000 1.0
C      1  0.5465660000000  0.4686460000000  0.5295200000000 1.0
C      1  0.5154380000000  0.4972730000000  0.4798460000000 1.0
C      1  0.4031480000000  0.4950260000000  0.4125300000000 1.0
C      1  0.5778400000000  0.4753430000000  0.5897410000000 1.0
C      1  0.3747870000000  0.4927060000000  0.3683440000000 1.0
C      1  0.4898730000000  0.4682790000000  0.4102050000000 1.0
C      1  0.5235810000000  0.4153270000000  0.5830100000000 1.0
C      1  0.4282220000000  0.5706340000000  0.5129310000000 1.0
C      1  0.4844680000000  0.4529670000000  0.5556740000000 1.0
C      1  0.4213940000000  0.4362650000000  0.5675410000000 1.0
C      1  0.4954270000000  0.5378570000000  0.5292550000000 1.0
C      1  0.5241200000000  0.5110090000000  0.5768950000000 1.0
C      1  0.4688390000000  0.5540360000000  0.5731690000000 1.0
C      1  0.4447880000000  0.4520300000000  0.4752030000000 1.0
C      1  0.5419590000000  0.4343450000000  0.5859840000000 1.0
C      1  0.5839560000000  0.4586870000000  0.4831400000000 1.0
C      1  0.4431430000000  0.4810150000000  0.4373290000000 1.0
C      1  0.5176410000000  0.5016700000000  0.5504180000000 1.0
C      1  0.4918770000000  0.4836290000000  0.4879550000000 1.0
C      1  0.4934310000000  0.5690040000000  0.4808970000000 1.0
C      1  0.4653420000000  0.3876250000000  0.5403690000000 1.0
C      1  0.5414260000000  0.5176390000000  0.4434600000000 1.0
C      1  0.5939190000000  0.5057680000000  0.5543450000000 1.0
C      1  0.5358490000000  0.6019870000000  0.4283020000000 1.0
C      1  0.5521460000000  0.5168050000000  0.5830200000000 1.0
C      1  0.5545810000000  0.5227200000000  0.5336870000000 1.0
C      1  0.5017310000000  0.4892870000000  0.3946240000000 1.0
C      1  0.4299210000000  0.4750130000000  0.5237170000000 1.0
C      1  0.4967610000000  0.4598840000000  0.5035250000000 1.0
C      1  0.4289430000000  0.4844280000000  0.5696040000000 1.0
C      1  0.5587100000000  0.4549790000000  0.5869420000000 1.0
C      1  0.4800260000000  0.4632300000000  0.5800300000000 1.0
C      1  0.5748870000000  0.5000320000000  0.5755610000000 1.0
C      1  0.4805340000000  0.5490280000000  0.4646130000000 1.0
C      1  0.5202910000000  0.4354990000000  0.4684270000000 1.0
C      1  0.5080670000000  0.5155440000000  0.3920240000000 1.0
C      1  0.4414530000000  0.4898860000000  0.5447100000000 1.0
C      1  0.5016980000000  0.5244940000000  0.5900160000000 1.0
C      1  0.4676250000000  0.5001350000000  0.5419730000000 1.0
C      1  0.5185550000000  0.5732160000000  0.3506010000000 1.0
C      1  0.4510840000000  0.4771240000000  0.4643860000000 1.0
C      1  0.4459430000000  0.4085120000000  0.5022320000000 1.0
C      1  0.5819990000000  0.5807040000000  0.5100080000000 1.0
C      1  0.4543990000000  0.5355870000000  0.5022950000000 1.0
C      1  0.5289900000000  0.4514740000000  0.4446410000000 1.0
C      1  0.4743020000000  0.3730510000000  0.5166640000000 1.0
C      1  0.6091220000000  0.5007500000000  0.5052950000000 1.0
C      1  0.4720960000000  0.5131350000000  0.4248910000000 1.0
C      1  0.4740380000000  0.4845920000000  0.5951840000000 1.0
C      1  0.5219940000000  0.5663840000000  0.4823060000000 1.0
C      1  0.5328040000000  0.5017560000000  0.5004950000000 1.0
C      1  0.4135850000000  0.5331830000000  0.4766380000000 1.0
C      1  0.4394260000000  0.5480850000000  0.4080020000000 1.0
C      1  0.4958260000000  0.5524260000000  0.5833410000000 1.0
C      1  0.4610630000000  0.5388010000000  0.4222480000000 1.0
C      1  0.5156010000000  0.5724420000000  0.5840580000000 1.0
C      1  0.5126070000000  0.5930650000000  0.5651380000000 1.0
C      1  0.5137080000000  0.5589150000000  0.3718410000000 1.0
C      1  0.4747660000000  0.5127350000000  0.5948090000000 1.0
C      1  0.4938560000000  0.4238150000000  0.4320740000000 1.0
C      1  0.4947370000000  0.5057390000000  0.4376690000000 1.0
C      1  0.4626030000000  0.3867720000000  0.4941410000000 1.0
C      1  0.4375060000000  0.4349660000000  0.4957250000000 1.0
C      1  0.4203270000000  0.4606200000000  0.5790910000000 1.0
C      1  0.5084880000000  0.5440350000000  0.3951460000000 1.0
C      1  0.5560860000000  0.5429110000000  0.5933510000000 1.0
C      1  0.5409160000000  0.5651600000000  0.5942050000000 1.0
C      1  0.5420230000000  0.6023210000000  0.5280240000000 1.0
C      1  0.4683320000000  0.4959460000000  0.4775850000000 1.0
C      1  0.5035760000000  0.5596180000000  0.4194760000000 1.0
C      1  0.5178840000000  0.5065680000000  0.4534280000000 1.0
C      1  0.4277120000000  0.4473810000000  0.5198700000000 1.0
C      1  0.5018290000000  0.4162300000000  0.4573880000000 1.0
C      1  0.5766290000000  0.5334700000000  0.5198450000000 1.0
C      1  0.4805640000000  0.5543390000000  0.4361350000000 1.0
C      1  0.5061870000000  0.3298860000000  0.5158460000000 1.0
C      1  0.4197690000000  0.4976550000000  0.4347840000000 1.0
C      1  0.5469060000000  0.5574230000000  0.4876890000000 1.0
C      1  0.6100220000000  0.5078080000000  0.4566870000000 1.0
C      1  0.4200910000000  0.5588350000000  0.3942260000000 1.0
C      1  0.5145550000000  0.5587760000000  0.5317030000000 1.0
C      1  0.4936010000000  0.5113120000000  0.5396710000000 1.0
C      1  0.5198330000000  0.4449940000000  0.4949860000000 1.0
C      1  0.4905320000000  0.3507200000000  0.5159630000000 1.0
C      1  0.4445060000000  0.4058950000000  0.5323300000000 1.0
C      1  0.4131330000000  0.5163350000000  0.4555070000000 1.0
C      1  0.5567220000000  0.4566810000000  0.4390750000000 1.0
C      1  0.4937760000000  0.5998670000000  0.5183330000000 1.0
C      1  0.4679930000000  0.5257750000000  0.4790810000000 1.0
C      1  0.4781230000000  0.5875860000000  0.4978990000000 1.0
C      1  0.4616880000000  0.4704910000000  0.4177210000000 1.0
C      1  0.5060490000000  0.4493130000000  0.4244450000000 1.0
C      1  0.4580280000000  0.5598350000000  0.5470810000000 1.0
C      1  0.5720660000000  0.4446850000000  0.3884710000000 1.0
C      1  0.6178550000000  0.5141700000000  0.4818130000000 1.0
C      1  0.4691510000000  0.5462380000000  0.5245460000000 1.0
C      1  0.4299840000000  0.5657530000000  0.5422090000000 1.0
C      1  0.3886960000000  0.4935680000000  0.3903760000000 1.0
C      1  0.5652540000000  0.4499950000000  0.4130580000000 1.0
C      1  0.5934650000000  0.4888780000000  0.4469910000000 1.0
C      1  0.4868020000000  0.4535610000000  0.5290210000000 1.0
C      1  0.5388850000000  0.4977130000000  0.5296950000000 1.0
C      1  0.5772860000000  0.4674690000000  0.4564380000000 1.0
C      1  0.4295310000000  0.4282750000000  0.5420220000000 1.0
C      1  0.4257140000000  0.5363900000000  0.5820970000000 1.0
C      1  0.4536310000000  0.5324170000000  0.5870920000000 1.0
C      1  0.5202960000000  0.5813100000000  0.4251670000000 1.0
C      1  0.6011710000000  0.4740890000000  0.4997400000000 1.0
C      1  0.4492900000000  0.5880220000000  0.5018220000000 1.0
C      1  0.4275910000000  0.5456480000000  0.4977070000000 1.0
C      1  0.5439370000000  0.4480050000000  0.5099990000000 1.0
C      1  0.5162470000000  0.5897990000000  0.5356130000000 1.0
C      1  0.5978460000000  0.5151710000000  0.5271750000000 1.0
C      1  0.5675270000000  0.4405220000000  0.4967330000000 1.0
C      1  0.5993390000000  0.4717850000000  0.6063400000000 1.0
C      1  0.5027020000000  0.4003460000000  0.5760380000000 1.0
C      1  0.5596380000000  0.5315810000000  0.4310540000000 1.0
C      1  0.5676750000000  0.6007950000000  0.5207330000000 1.0
END
