TITL C-627110-360-1073 0.00733956593655789 125000 -731.40850919212 0 0 118 (C1) n - 1
REM
REM in /home/nfs/bkarasulu/CARBON/AIRSS/Generating-Clusters/LCBOP/Only-C1/SD-CG/FIRE-CG
REM
REM
REM
REM
REM
REM ./C.cell (11c1c37f851c82e70ff6c80c92926a4b)
REM AIRSS Version 0.9.1 bugfix July 2018 build 013d7b7c2542+ Fri, 06 Jul 2018 19:26:36 +0100
REM compiler GCC version 9.2.1 20190827 (Red Hat 9.2.1-1)
REM options -cpp -mtune=generic -march=x86-64 -g -O0 -fpre-include=/usr/include/finclude/math-vector-fortran.h
REM seed -1663525319 349563609 1007763393 118447023 962983218 391308305 1022562467 264417238 2031082503 -670412014 -1202807337 -440170663 1998536379 395137850 -1297769023 66357657 -1218550333 1575685577 1959314856 -1565359703 1344918314 1747442374 962017517 1089743176 -1531126333 -659922507 789347438 -2024746036 1478109306 -1838681261 345908699 -138099666 487062310
REM
CELL 1.54180   50.00000   50.00000   50.00000   90.00000   90.00000   90.00000
LATT -1
SFAC C  
C      1  0.5183300000000  0.5024310000000  0.4021820000000 1.0
C      1  0.4593710000000  0.4797080000000  0.4705020000000 1.0
C      1  0.3736630000000  0.5278980000000  0.4518820000000 1.0
C      1  0.4700950000000  0.4939010000000  0.3978190000000 1.0
C      1  0.3975700000000  0.4801250000000  0.5060210000000 1.0
C      1  0.4776990000000  0.5532060000000  0.4809170000000 1.0
C      1  0.3709060000000  0.5057190000000  0.4693190000000 1.0
C      1  0.5089120000000  0.4324540000000  0.5564190000000 1.0
C      1  0.5225650000000  0.6039220000000  0.5338070000000 1.0
C      1  0.4027160000000  0.4856980000000  0.5343180000000 1.0
C      1  0.5784120000000  0.4932140000000  0.4851840000000 1.0
C      1  0.4963250000000  0.6099910000000  0.5358120000000 1.0
C      1  0.5558070000000  0.4528150000000  0.4670660000000 1.0
C      1  0.6924680000000  0.4245050000000  0.3719800000000 1.0
C      1  0.4494430000000  0.4236310000000  0.4997650000000 1.0
C      1  0.5230150000000  0.5316460000000  0.4823040000000 1.0
C      1  0.5126370000000  0.6204710000000  0.4778930000000 1.0
C      1  0.6696940000000  0.4322320000000  0.3820430000000 1.0
C      1  0.4149660000000  0.4503410000000  0.5702870000000 1.0
C      1  0.5782150000000  0.4650730000000  0.4804520000000 1.0
C      1  0.5406840000000  0.5643400000000  0.5550400000000 1.0
C      1  0.4988830000000  0.4328250000000  0.5108170000000 1.0
C      1  0.4264250000000  0.4369840000000  0.4951510000000 1.0
C      1  0.5601980000000  0.5141540000000  0.5574100000000 1.0
C      1  0.4867200000000  0.5217280000000  0.6095260000000 1.0
C      1  0.5520460000000  0.5756260000000  0.5074870000000 1.0
C      1  0.5429660000000  0.4359200000000  0.6162570000000 1.0
C      1  0.5221760000000  0.4264550000000  0.4947130000000 1.0
C      1  0.5751330000000  0.5589460000000  0.5004730000000 1.0
C      1  0.5610900000000  0.5018780000000  0.5059790000000 1.0
C      1  0.6233900000000  0.4479420000000  0.4025060000000 1.0
C      1  0.4530530000000  0.5332610000000  0.5735670000000 1.0
C      1  0.5399870000000  0.4085220000000  0.5075070000000 1.0
C      1  0.5158190000000  0.4771120000000  0.5293250000000 1.0
C      1  0.4710430000000  0.5024340000000  0.5249650000000 1.0
C      1  0.5432090000000  0.4951230000000  0.4081280000000 1.0
C      1  0.5154640000000  0.5249160000000  0.5518250000000 1.0
C      1  0.5600980000000  0.4461760000000  0.4395660000000 1.0
C      1  0.4987710000000  0.5857820000000  0.5842750000000 1.0
C      1  0.4707920000000  0.5541850000000  0.5655690000000 1.0
C      1  0.4008230000000  0.5671910000000  0.4390050000000 1.0
C      1  0.5433130000000  0.4041990000000  0.5340920000000 1.0
C      1  0.5444320000000  0.4266300000000  0.4271390000000 1.0
C      1  0.5537540000000  0.5023190000000  0.5832820000000 1.0
C      1  0.4631940000000  0.5454540000000  0.4218890000000 1.0
C      1  0.4919440000000  0.5118440000000  0.4015000000000 1.0
C      1  0.4003190000000  0.4662430000000  0.5544650000000 1.0
C      1  0.5508350000000  0.4746860000000  0.5879570000000 1.0
C      1  0.4079520000000  0.5252960000000  0.4919500000000 1.0
C      1  0.4617140000000  0.5979070000000  0.4696640000000 1.0
C      1  0.5307020000000  0.4142700000000  0.5559250000000 1.0
C      1  0.4857560000000  0.5392450000000  0.4063860000000 1.0
C      1  0.5014480000000  0.5591560000000  0.3961150000000 1.0
C      1  0.5653320000000  0.5378400000000  0.4323390000000 1.0
C      1  0.4694080000000  0.4112200000000  0.5418210000000 1.0
C      1  0.4661410000000  0.4809570000000  0.3741100000000 1.0
C      1  0.4820390000000  0.4244650000000  0.5636290000000 1.0
C      1  0.5345100000000  0.5540710000000  0.4695950000000 1.0
C      1  0.5052020000000  0.4626870000000  0.6014090000000 1.0
C      1  0.5094630000000  0.4694760000000  0.4796520000000 1.0
C      1  0.4320180000000  0.5227410000000  0.5570040000000 1.0
C      1  0.4734640000000  0.6016910000000  0.5479550000000 1.0
C      1  0.5764570000000  0.4639610000000  0.4245820000000 1.0
C      1  0.4526230000000  0.5447370000000  0.4701900000000 1.0
C      1  0.4192850000000  0.4641910000000  0.4949030000000 1.0
C      1  0.5130820000000  0.4892350000000  0.5016340000000 1.0
C      1  0.6002920000000  0.4557730000000  0.4128320000000 1.0
C      1  0.4951250000000  0.5329320000000  0.4895310000000 1.0
C      1  0.5173340000000  0.5674730000000  0.5725410000000 1.0
C      1  0.4389240000000  0.5967190000000  0.4549530000000 1.0
C      1  0.5688910000000  0.5019000000000  0.5333470000000 1.0
C      1  0.4425360000000  0.4812690000000  0.4935500000000 1.0
C      1  0.4251480000000  0.5036420000000  0.5368490000000 1.0
C      1  0.5420470000000  0.5829320000000  0.5332400000000 1.0
C      1  0.6465380000000  0.4400880000000  0.3922750000000 1.0
C      1  0.5424960000000  0.5355220000000  0.5516820000000 1.0
C      1  0.4718440000000  0.4896130000000  0.5773180000000 1.0
C      1  0.5353660000000  0.5090670000000  0.4958270000000 1.0
C      1  0.5770390000000  0.5119870000000  0.4381920000000 1.0
C      1  0.5605960000000  0.3926090000000  0.6402570000000 1.0
C      1  0.5790290000000  0.5427890000000  0.4767430000000 1.0
C      1  0.3506320000000  0.4876910000000  0.4663010000000 1.0
C      1  0.5324410000000  0.5773080000000  0.4858830000000 1.0
C      1  0.5189810000000  0.4191610000000  0.4241080000000 1.0
C      1  0.3766870000000  0.5525700000000  0.4384920000000 1.0
C      1  0.4834140000000  0.5816190000000  0.4788070000000 1.0
C      1  0.4730210000000  0.4204310000000  0.5148900000000 1.0
C      1  0.4466890000000  0.5521430000000  0.4432630000000 1.0
C      1  0.4452890000000  0.4972510000000  0.5172090000000 1.0
C      1  0.5330080000000  0.4576350000000  0.6018250000000 1.0
C      1  0.4797610000000  0.4650990000000  0.5894300000000 1.0
C      1  0.4987760000000  0.5456990000000  0.5623370000000 1.0
C      1  0.5991610000000  0.4495770000000  0.4889300000000 1.0
C      1  0.5848650000000  0.5144080000000  0.4669830000000 1.0
C      1  0.4490540000000  0.4888520000000  0.4459290000000 1.0
C      1  0.5383160000000  0.5179950000000  0.6018510000000 1.0
C      1  0.4528730000000  0.4903500000000  0.4196470000000 1.0
C      1  0.3902050000000  0.5032800000000  0.4900530000000 1.0
C      1  0.4663990000000  0.5140060000000  0.5911360000000 1.0
C      1  0.4894130000000  0.5090540000000  0.5044730000000 1.0
C      1  0.4382940000000  0.4412130000000  0.5796340000000 1.0
C      1  0.5136360000000  0.5226390000000  0.6117610000000 1.0
C      1  0.5082710000000  0.4498620000000  0.5332380000000 1.0
C      1  0.4825770000000  0.4430290000000  0.4494950000000 1.0
C      1  0.4310470000000  0.5371180000000  0.4862160000000 1.0
C      1  0.4802730000000  0.4943570000000  0.5507620000000 1.0
C      1  0.5670200000000  0.4905900000000  0.4226580000000 1.0
C      1  0.5592220000000  0.5513650000000  0.4562390000000 1.0
C      1  0.4947690000000  0.4260490000000  0.4329910000000 1.0
C      1  0.4664230000000  0.4415390000000  0.5802940000000 1.0
C      1  0.5094850000000  0.5934680000000  0.4816840000000 1.0
C      1  0.5518940000000  0.4141930000000  0.6285090000000 1.0
C      1  0.5087850000000  0.4977120000000  0.5484710000000 1.0
C      1  0.3553950000000  0.5626940000000  0.4244870000000 1.0
C      1  0.4278210000000  0.5736810000000  0.4425540000000 1.0
C      1  0.4837720000000  0.4646710000000  0.4676900000000 1.0
C      1  0.5299640000000  0.4488580000000  0.4786230000000 1.0
C      1  0.4731950000000  0.5835150000000  0.5697630000000 1.0
END
