TITL C-627111-6168-1900 0.420162602189673 125000 -420.800577533675 0 0 70 (C1) n - 1
REM
REM in /home/nfs/bkarasulu/CARBON/AIRSS/Generating-Clusters/LCBOP/Only-C1/SD-CG/FIRE-CG
REM
REM
REM
REM
REM
REM ./C.cell (11c1c37f851c82e70ff6c80c92926a4b)
REM AIRSS Version 0.9.1 bugfix July 2018 build 013d7b7c2542+ Fri, 06 Jul 2018 19:26:36 +0100
REM compiler GCC version 9.2.1 20190827 (Red Hat 9.2.1-1)
REM options -cpp -mtune=generic -march=x86-64 -g -O0 -fpre-include=/usr/include/finclude/math-vector-fortran.h
REM seed 1107865583 -1599019008 -433938623 1137655658 -649274915 225727345 117462227 1373089441 1511113255 -668838407 -1255062551 1298478985 562770521 157338776 -1063251464 2039621529 -3469871 -96850251 -1643424511 1406798296 -1159633952 -165414264 1317796419 -1839529194 1476297879 -1606912044 -388964396 1464064428 1706421185 -1559693512 -1871095149 -1750582898 -1522615549
REM
CELL 1.54180   50.00000   50.00000   50.00000   90.00000   90.00000   90.00000
LATT -1
SFAC C  
C      1  0.5683000000000  0.4983390000000  0.5390290000000 1.0
C      1  0.3037530000000  0.6296440000000  0.5609080000000 1.0
C      1  0.5475460000000  0.4300290000000  0.5214020000000 1.0
C      1  0.4173120000000  0.4608880000000  0.5611460000000 1.0
C      1  0.3826760000000  0.4774870000000  0.5255930000000 1.0
C      1  0.5751030000000  0.4583930000000  0.4902760000000 1.0
C      1  0.5279480000000  0.4284140000000  0.4710010000000 1.0
C      1  0.5310290000000  0.5405320000000  0.5482940000000 1.0
C      1  0.3548180000000  0.4824840000000  0.5243160000000 1.0
C      1  0.5444770000000  0.5264120000000  0.4977170000000 1.0
C      1  0.3368940000000  0.5323810000000  0.5366660000000 1.0
C      1  0.4434710000000  0.4566150000000  0.5589330000000 1.0
C      1  0.5352750000000  0.5043590000000  0.4554490000000 1.0
C      1  0.4924950000000  0.5019800000000  0.4844450000000 1.0
C      1  0.5187300000000  0.4727610000000  0.5432640000000 1.0
C      1  0.5137110000000  0.4878860000000  0.4964190000000 1.0
C      1  0.3285750000000  0.5567940000000  0.5427500000000 1.0
C      1  0.5014270000000  0.5366230000000  0.5457640000000 1.0
C      1  0.3947760000000  0.4684430000000  0.5491870000000 1.0
C      1  0.4982810000000  0.5122320000000  0.5606040000000 1.0
C      1  0.5221030000000  0.4961650000000  0.5580970000000 1.0
C      1  0.6018810000000  0.5069900000000  0.4672170000000 1.0
C      1  0.5641530000000  0.4837060000000  0.4943800000000 1.0
C      1  0.4767600000000  0.4359670000000  0.4796390000000 1.0
C      1  0.4659220000000  0.5063820000000  0.4933030000000 1.0
C      1  0.4772160000000  0.4699960000000  0.4383210000000 1.0
C      1  0.5282980000000  0.4600870000000  0.4365210000000 1.0
C      1  0.5727200000000  0.4427760000000  0.4438980000000 1.0
C      1  0.3202570000000  0.5812070000000  0.5488350000000 1.0
C      1  0.5296580000000  0.5741510000000  0.4685200000000 1.0
C      1  0.5398360000000  0.5664410000000  0.5416190000000 1.0
C      1  0.5581200000000  0.5509810000000  0.5023600000000 1.0
C      1  0.5450650000000  0.4394300000000  0.4495900000000 1.0
C      1  0.5805360000000  0.5004430000000  0.5119650000000 1.0
C      1  0.5002950000000  0.4355890000000  0.4642760000000 1.0
C      1  0.5793200000000  0.5137120000000  0.4249170000000 1.0
C      1  0.3992070000000  0.4814380000000  0.5033160000000 1.0
C      1  0.5460450000000  0.5549830000000  0.4541640000000 1.0
C      1  0.5367370000000  0.4236590000000  0.4974700000000 1.0
C      1  0.5007090000000  0.4551310000000  0.4423310000000 1.0
C      1  0.5321760000000  0.5312440000000  0.4471370000000 1.0
C      1  0.4219780000000  0.4822510000000  0.4897190000000 1.0
C      1  0.5394360000000  0.4984110000000  0.4855230000000 1.0
C      1  0.4566030000000  0.4789480000000  0.4533120000000 1.0
C      1  0.5688300000000  0.4704420000000  0.5474230000000 1.0
C      1  0.5426010000000  0.5712910000000  0.5141820000000 1.0
C      1  0.4655220000000  0.4568200000000  0.4952510000000 1.0
C      1  0.4789560000000  0.4609190000000  0.5199630000000 1.0
C      1  0.4857220000000  0.5448110000000  0.5228500000000 1.0
C      1  0.3119370000000  0.6056270000000  0.5549220000000 1.0
C      1  0.5450570000000  0.5136630000000  0.5501450000000 1.0
C      1  0.6011880000000  0.5136610000000  0.4958890000000 1.0
C      1  0.4506480000000  0.4816470000000  0.4832490000000 1.0
C      1  0.5602370000000  0.4460150000000  0.5391930000000 1.0
C      1  0.5412360000000  0.4851920000000  0.4352810000000 1.0
C      1  0.3452770000000  0.5079990000000  0.5305960000000 1.0
C      1  0.6037010000000  0.5418640000000  0.4987360000000 1.0
C      1  0.5056930000000  0.4711950000000  0.5185340000000 1.0
C      1  0.5749260000000  0.5501700000000  0.4596300000000 1.0
C      1  0.4959030000000  0.5658000000000  0.5060500000000 1.0
C      1  0.5857700000000  0.4677650000000  0.4388030000000 1.0
C      1  0.5206000000000  0.5758450000000  0.4959540000000 1.0
C      1  0.5815650000000  0.5553950000000  0.4874280000000 1.0
C      1  0.4654230000000  0.4565890000000  0.5439660000000 1.0
C      1  0.6049350000000  0.4808210000000  0.4557290000000 1.0
C      1  0.5932780000000  0.4396550000000  0.4926160000000 1.0
C      1  0.4650820000000  0.5276860000000  0.5120630000000 1.0
C      1  0.5683610000000  0.4873060000000  0.4260190000000 1.0
C      1  0.5883730000000  0.5264870000000  0.4489120000000 1.0
C      1  0.3375490000000  0.4625560000000  0.5170270000000 1.0
END
