TITL C-627106-156-650 0.000303039606485789 125000 -834.987921653511 0 0 137 (C1) n - 1
REM
REM in /home/nfs/bkarasulu/CARBON/AIRSS/Generating-Clusters/LCBOP/Only-C1/SD-CG/FIRE-CG
REM
REM
REM
REM
REM
REM ./C.cell (11c1c37f851c82e70ff6c80c92926a4b)
REM AIRSS Version 0.9.1 bugfix July 2018 build 013d7b7c2542+ Fri, 06 Jul 2018 19:26:36 +0100
REM compiler GCC version 9.2.1 20190827 (Red Hat 9.2.1-1)
REM options -cpp -mtune=generic -march=x86-64 -g -O0 -fpre-include=/usr/include/finclude/math-vector-fortran.h
REM seed 945283267 1507746339 1162909676 187317473 -2124167493 325951043 -1297976550 1911521277 805159458 -1445837507 87089040 -1952813830 -784246985 727525365 -2092693963 1371821547 -1721128487 557841669 1877941477 213409302 -1989842368 614221232 -2054490958 770006478 1608590658 1405944382 972360960 969628804 311510893 1737310849 -2125108573 -321529413 -495984644
REM
CELL 1.54180   50.00000   50.00000   50.00000   90.00000   90.00000   90.00000
LATT -1
SFAC C  
C      1  0.5040870000000  0.4778600000000  0.3903580000000 1.0
C      1  0.4641730000000  0.4722190000000  0.5472730000000 1.0
C      1  0.5653060000000  0.5413420000000  0.5755280000000 1.0
C      1  0.4703090000000  0.4155560000000  0.5465420000000 1.0
C      1  0.4540810000000  0.4916450000000  0.5304530000000 1.0
C      1  0.5093840000000  0.3879820000000  0.5356610000000 1.0
C      1  0.4588720000000  0.5649550000000  0.5817060000000 1.0
C      1  0.3959670000000  0.4921250000000  0.5062260000000 1.0
C      1  0.4327210000000  0.5761210000000  0.5065440000000 1.0
C      1  0.6267260000000  0.5067660000000  0.4948940000000 1.0
C      1  0.5567040000000  0.5985390000000  0.5421280000000 1.0
C      1  0.5072700000000  0.6093950000000  0.5302420000000 1.0
C      1  0.5030130000000  0.5363290000000  0.5770560000000 1.0
C      1  0.4431100000000  0.4214740000000  0.5493000000000 1.0
C      1  0.5014810000000  0.4645810000000  0.5169200000000 1.0
C      1  0.5797520000000  0.5247420000000  0.4406120000000 1.0
C      1  0.5763990000000  0.5627410000000  0.5170060000000 1.0
C      1  0.4837210000000  0.5000010000000  0.3881270000000 1.0
C      1  0.4998580000000  0.5139050000000  0.5032920000000 1.0
C      1  0.6032340000000  0.5155040000000  0.5093950000000 1.0
C      1  0.4539250000000  0.5589300000000  0.4684350000000 1.0
C      1  0.5546600000000  0.4981050000000  0.5008720000000 1.0
C      1  0.6854780000000  0.4712030000000  0.5244320000000 1.0
C      1  0.5037290000000  0.5032440000000  0.4557990000000 1.0
C      1  0.5082810000000  0.4873330000000  0.5659160000000 1.0
C      1  0.4066280000000  0.4352110000000  0.5085910000000 1.0
C      1  0.5220950000000  0.5133590000000  0.4358100000000 1.0
C      1  0.5586330000000  0.5287480000000  0.5526670000000 1.0
C      1  0.4825330000000  0.3914820000000  0.5381120000000 1.0
C      1  0.5124560000000  0.4598100000000  0.6094170000000 1.0
C      1  0.5392180000000  0.5809650000000  0.4152800000000 1.0
C      1  0.5183960000000  0.4472450000000  0.5014680000000 1.0
C      1  0.5764580000000  0.5641900000000  0.4685120000000 1.0
C      1  0.5219400000000  0.4595210000000  0.4735480000000 1.0
C      1  0.4289570000000  0.4597340000000  0.5767060000000 1.0
C      1  0.5745190000000  0.5528340000000  0.4423520000000 1.0
C      1  0.4452670000000  0.5087880000000  0.6122570000000 1.0
C      1  0.4832380000000  0.5274930000000  0.3827720000000 1.0
C      1  0.4699510000000  0.4381440000000  0.6045920000000 1.0
C      1  0.5435240000000  0.4809050000000  0.4783470000000 1.0
C      1  0.4883290000000  0.4846940000000  0.4981400000000 1.0
C      1  0.6038610000000  0.5895610000000  0.5460650000000 1.0
C      1  0.4817970000000  0.5284930000000  0.5229480000000 1.0
C      1  0.4405290000000  0.4935680000000  0.4837800000000 1.0
C      1  0.4670490000000  0.4118520000000  0.4586510000000 1.0
C      1  0.5794400000000  0.5837040000000  0.5353260000000 1.0
C      1  0.4920940000000  0.4634620000000  0.5455030000000 1.0
C      1  0.4053100000000  0.5289420000000  0.5462660000000 1.0
C      1  0.4238010000000  0.4884080000000  0.5737350000000 1.0
C      1  0.4586920000000  0.4860800000000  0.5033460000000 1.0
C      1  0.4932950000000  0.4286590000000  0.4155700000000 1.0
C      1  0.5890740000000  0.4623300000000  0.5079480000000 1.0
C      1  0.4019080000000  0.4804170000000  0.5308580000000 1.0
C      1  0.5866330000000  0.5894830000000  0.4717670000000 1.0
C      1  0.3904810000000  0.5262860000000  0.4726450000000 1.0
C      1  0.3986450000000  0.5383950000000  0.5195260000000 1.0
C      1  0.3860060000000  0.5190530000000  0.5019900000000 1.0
C      1  0.4933640000000  0.4557950000000  0.4075050000000 1.0
C      1  0.5267320000000  0.5405100000000  0.4445270000000 1.0
C      1  0.5315680000000  0.6068550000000  0.5405860000000 1.0
C      1  0.5511420000000  0.4452450000000  0.5590950000000 1.0
C      1  0.4715510000000  0.4660620000000  0.4510960000000 1.0
C      1  0.4890090000000  0.6024300000000  0.4639430000000 1.0
C      1  0.6605440000000  0.4759840000000  0.5143300000000 1.0
C      1  0.5131090000000  0.5146890000000  0.5597190000000 1.0
C      1  0.5779360000000  0.5186910000000  0.4918880000000 1.0
C      1  0.4679450000000  0.5345720000000  0.4687570000000 1.0
C      1  0.5519710000000  0.4264240000000  0.4449440000000 1.0
C      1  0.4892490000000  0.4351770000000  0.5551140000000 1.0
C      1  0.4030620000000  0.4005680000000  0.4771450000000 1.0
C      1  0.5328890000000  0.4235880000000  0.5608610000000 1.0
C      1  0.4033070000000  0.4845440000000  0.4381020000000 1.0
C      1  0.6519850000000  0.5017050000000  0.5051660000000 1.0
C      1  0.4230620000000  0.4181880000000  0.4895580000000 1.0
C      1  0.4953030000000  0.4762420000000  0.4679970000000 1.0
C      1  0.5905680000000  0.5128500000000  0.4638690000000 1.0
C      1  0.4490970000000  0.4160350000000  0.4785600000000 1.0
C      1  0.4282220000000  0.5571090000000  0.4548490000000 1.0
C      1  0.4464270000000  0.4490820000000  0.5967830000000 1.0
C      1  0.4485930000000  0.5535690000000  0.4067700000000 1.0
C      1  0.5483730000000  0.5513490000000  0.5939910000000 1.0
C      1  0.5616760000000  0.5682610000000  0.4225460000000 1.0
C      1  0.6723540000000  0.5216310000000  0.5077800000000 1.0
C      1  0.5776590000000  0.4222700000000  0.4509680000000 1.0
C      1  0.4076840000000  0.4994180000000  0.5521020000000 1.0
C      1  0.4106710000000  0.4527860000000  0.5308710000000 1.0
C      1  0.4551580000000  0.5783110000000  0.4891630000000 1.0
C      1  0.5157380000000  0.4798770000000  0.5918620000000 1.0
C      1  0.4957380000000  0.5267200000000  0.4751690000000 1.0
C      1  0.4984430000000  0.4368530000000  0.6008950000000 1.0
C      1  0.4440390000000  0.4582450000000  0.4530830000000 1.0
C      1  0.4880050000000  0.6061710000000  0.5122960000000 1.0
C      1  0.5079960000000  0.4277140000000  0.5753700000000 1.0
C      1  0.5994070000000  0.4451450000000  0.4904630000000 1.0
C      1  0.5114460000000  0.5851360000000  0.4180490000000 1.0
C      1  0.3992420000000  0.5011790000000  0.4603820000000 1.0
C      1  0.4212740000000  0.4641200000000  0.4394220000000 1.0
C      1  0.4753230000000  0.5423510000000  0.5772730000000 1.0
C      1  0.5375180000000  0.5429650000000  0.4935900000000 1.0
C      1  0.4252170000000  0.4430280000000  0.5533530000000 1.0
C      1  0.4508380000000  0.5123430000000  0.4657190000000 1.0
C      1  0.5304220000000  0.4863370000000  0.3960460000000 1.0
C      1  0.5215120000000  0.5494950000000  0.5937480000000 1.0
C      1  0.5011970000000  0.5987000000000  0.4405170000000 1.0
C      1  0.4745680000000  0.5513840000000  0.3954770000000 1.0
C      1  0.4743310000000  0.4707310000000  0.4232660000000 1.0
C      1  0.5289050000000  0.4086910000000  0.5359240000000 1.0
C      1  0.5584920000000  0.4664310000000  0.5442340000000 1.0
C      1  0.4643550000000  0.4920710000000  0.4080600000000 1.0
C      1  0.4429710000000  0.5062090000000  0.5851180000000 1.0
C      1  0.5340590000000  0.5208210000000  0.5410720000000 1.0
C      1  0.3788260000000  0.4277500000000  0.5032470000000 1.0
C      1  0.3532080000000  0.3943000000000  0.4758570000000 1.0
C      1  0.4934660000000  0.5713510000000  0.4013930000000 1.0
C      1  0.5193020000000  0.5455920000000  0.4717010000000 1.0
C      1  0.4613680000000  0.5173700000000  0.5391830000000 1.0
C      1  0.4307100000000  0.5561010000000  0.4267530000000 1.0
C      1  0.5670190000000  0.5088690000000  0.4212550000000 1.0
C      1  0.5676800000000  0.4769260000000  0.5197380000000 1.0
C      1  0.4765980000000  0.5967220000000  0.4886500000000 1.0
C      1  0.5673460000000  0.5482140000000  0.4926430000000 1.0
C      1  0.6178480000000  0.5044640000000  0.4676730000000 1.0
C      1  0.5309150000000  0.5175440000000  0.5111590000000 1.0
C      1  0.5959120000000  0.4298240000000  0.4689350000000 1.0
C      1  0.5306530000000  0.4402020000000  0.4532690000000 1.0
C      1  0.5304180000000  0.4243110000000  0.5121990000000 1.0
C      1  0.4816460000000  0.4147780000000  0.4359800000000 1.0
C      1  0.4322730000000  0.5649880000000  0.5758200000000 1.0
C      1  0.4109700000000  0.5583540000000  0.5019620000000 1.0
C      1  0.5401080000000  0.5018810000000  0.4172570000000 1.0
C      1  0.6971830000000  0.5164400000000  0.5179410000000 1.0
C      1  0.7039100000000  0.4913020000000  0.5263080000000 1.0
C      1  0.4134980000000  0.5491140000000  0.5646620000000 1.0
C      1  0.3758700000000  0.4062260000000  0.4844830000000 1.0
C      1  0.4067580000000  0.5505400000000  0.4731250000000 1.0
C      1  0.4128310000000  0.4886400000000  0.4834530000000 1.0
C      1  0.4594430000000  0.5211240000000  0.5671700000000 1.0
END
