TITL C-627109-622-1188 -62160.730158972 125000 -1073.43890839858 0 0 174 (C1) n - 1
REM
REM in /home/nfs/bkarasulu/CARBON/AIRSS/Generating-Clusters/LCBOP/Only-C1/SD-CG/FIRE-CG
REM
REM
REM
REM
REM
REM ./C.cell (11c1c37f851c82e70ff6c80c92926a4b)
REM AIRSS Version 0.9.1 bugfix July 2018 build 013d7b7c2542+ Fri, 06 Jul 2018 19:26:36 +0100
REM compiler GCC version 9.2.1 20190827 (Red Hat 9.2.1-1)
REM options -cpp -mtune=generic -march=x86-64 -g -O0 -fpre-include=/usr/include/finclude/math-vector-fortran.h
REM seed 285684240 -956675997 616256719 2057999770 -1540757308 1560960740 1220880702 687576603 502050062 -60036799 210693553 1119091859 1167737349 1171830171 -1413926884 -367084560 1230953808 1887300647 108013571 -376289918 1717306807 1805050337 -2097074476 -1505046292 -1452082984 -526190641 -1269279049 858850658 743144832 -307929279 988654735 -784805077 1965755135
REM
CELL 1.54180   50.00000   50.00000   50.00000   90.00000   90.00000   90.00000
LATT -1
SFAC C  
C      1  0.4876670000000  0.5250260000000  0.6151480000000 1.0
C      1  0.4680260000000  0.4342690000000  0.4526140000000 1.0
C      1  0.5447770000000  0.3754930000000  0.5169330000000 1.0
C      1  0.4481560000000  0.4475210000000  0.5797740000000 1.0
C      1  0.4851420000000  0.4304900000000  0.6311990000000 1.0
C      1  0.6036520000000  0.5707340000000  0.5415560000000 1.0
C      1  0.4788140000000  0.4070140000000  0.4108400000000 1.0
C      1  0.5818890000000  0.5469880000000  0.6630780000000 1.0
C      1  0.4683570000000  0.4614230000000  0.4404480000000 1.0
C      1  0.4371920000000  0.5526440000000  0.5620720000000 1.0
C      1  0.3790100000000  0.4931640000000  0.4699400000000 1.0
C      1  0.6088900000000  0.5043360000000  0.5092630000000 1.0
C      1  0.5676070000000  0.5028570000000  0.4550660000000 1.0
C      1  0.5707810000000  0.4528960000000  0.3993790000000 1.0
C      1  0.5088710000000  0.4519660000000  0.5208350000000 1.0
C      1  0.3837500000000  0.4802660000000  0.5447870000000 1.0
C      1  0.4811340000000  0.5363300000000  0.5588490000000 1.0
C      1  0.4618680000000  0.5695970000000  0.5198410000000 1.0
C      1  0.4278320000000  0.5117140000000  0.4469750000000 1.0
C      1  0.6158640000000  0.5465490000000  0.5331670000000 1.0
C      1  0.4509650000000  0.5192210000000  0.4336770000000 1.0
C      1  0.4711400000000  0.3471020000000  0.4869920000000 1.0
C      1  0.5244470000000  0.3671540000000  0.5604710000000 1.0
C      1  0.4984150000000  0.5456230000000  0.5381450000000 1.0
C      1  0.4129500000000  0.5360500000000  0.5560840000000 1.0
C      1  0.4817150000000  0.5080550000000  0.5581510000000 1.0
C      1  0.5775190000000  0.5638670000000  0.4480690000000 1.0
C      1  0.5363460000000  0.5697470000000  0.5887100000000 1.0
C      1  0.5611650000000  0.5176860000000  0.4789650000000 1.0
C      1  0.4887680000000  0.4301580000000  0.6040320000000 1.0
C      1  0.5939140000000  0.4205630000000  0.4826640000000 1.0
C      1  0.5562910000000  0.4039940000000  0.4592290000000 1.0
C      1  0.5610800000000  0.5628960000000  0.4962550000000 1.0
C      1  0.4506290000000  0.5932720000000  0.4447050000000 1.0
C      1  0.5301810000000  0.5215300000000  0.5844690000000 1.0
C      1  0.5751580000000  0.5704920000000  0.5487450000000 1.0
C      1  0.4919810000000  0.4168860000000  0.4900690000000 1.0
C      1  0.4543230000000  0.4926880000000  0.4995610000000 1.0
C      1  0.5483420000000  0.4652490000000  0.4969300000000 1.0
C      1  0.5311320000000  0.5007180000000  0.5653340000000 1.0
C      1  0.6113980000000  0.5934780000000  0.5256630000000 1.0
C      1  0.4279430000000  0.4858910000000  0.4596220000000 1.0
C      1  0.4917790000000  0.5493030000000  0.4692240000000 1.0
C      1  0.5402340000000  0.5822160000000  0.4194280000000 1.0
C      1  0.4951020000000  0.3859430000000  0.5261490000000 1.0
C      1  0.4779520000000  0.6012690000000  0.4396590000000 1.0
C      1  0.5145320000000  0.5831440000000  0.5768800000000 1.0
C      1  0.5730010000000  0.4978570000000  0.3850080000000 1.0
C      1  0.5692730000000  0.5234380000000  0.6628280000000 1.0
C      1  0.5862730000000  0.5113260000000  0.4345770000000 1.0
C      1  0.4126810000000  0.5711180000000  0.5259460000000 1.0
C      1  0.4114900000000  0.5888200000000  0.4793450000000 1.0
C      1  0.4559200000000  0.5861790000000  0.4946910000000 1.0
C      1  0.4301360000000  0.4806270000000  0.3683970000000 1.0
C      1  0.5875170000000  0.4866960000000  0.5161590000000 1.0
C      1  0.4367530000000  0.4761690000000  0.4854680000000 1.0
C      1  0.5543020000000  0.4597960000000  0.5688200000000 1.0
C      1  0.4958620000000  0.5999660000000  0.4609920000000 1.0
C      1  0.4368260000000  0.4483100000000  0.4926050000000 1.0
C      1  0.4660950000000  0.4254140000000  0.5272120000000 1.0
C      1  0.5327800000000  0.6011920000000  0.5357240000000 1.0
C      1  0.5660510000000  0.3814010000000  0.5006860000000 1.0
C      1  0.4878270000000  0.4813470000000  0.4448700000000 1.0
C      1  0.5086160000000  0.4988250000000  0.5457890000000 1.0
C      1  0.5116430000000  0.3765800000000  0.4323430000000 1.0
C      1  0.3920150000000  0.4936790000000  0.5662230000000 1.0
C      1  0.4614750000000  0.5390560000000  0.5113460000000 1.0
C      1  0.4938470000000  0.5376780000000  0.4427020000000 1.0
C      1  0.4143510000000  0.5701710000000  0.4181880000000 1.0
C      1  0.3868640000000  0.4682990000000  0.4560330000000 1.0
C      1  0.5000960000000  0.3670690000000  0.4544340000000 1.0
C      1  0.4392550000000  0.5909820000000  0.4716690000000 1.0
C      1  0.4572400000000  0.4686780000000  0.5625230000000 1.0
C      1  0.4128040000000  0.4676770000000  0.4421900000000 1.0
C      1  0.4921760000000  0.5733850000000  0.5291650000000 1.0
C      1  0.4417330000000  0.4369890000000  0.5183790000000 1.0
C      1  0.5826590000000  0.5095350000000  0.4069520000000 1.0
C      1  0.4885130000000  0.4343520000000  0.5121760000000 1.0
C      1  0.4630190000000  0.4128590000000  0.4319300000000 1.0
C      1  0.4605960000000  0.5599630000000  0.4125670000000 1.0
C      1  0.5310500000000  0.5103500000000  0.6312230000000 1.0
C      1  0.5580790000000  0.4740540000000  0.3846010000000 1.0
C      1  0.3885860000000  0.5306090000000  0.5053190000000 1.0
C      1  0.4451710000000  0.4781500000000  0.6645960000000 1.0
C      1  0.4615350000000  0.5470280000000  0.5758410000000 1.0
C      1  0.4010790000000  0.5435330000000  0.5293190000000 1.0
C      1  0.4990820000000  0.5762570000000  0.4767920000000 1.0
C      1  0.5497650000000  0.5104830000000  0.6500960000000 1.0
C      1  0.5349830000000  0.4464590000000  0.5130920000000 1.0
C      1  0.5213610000000  0.3761610000000  0.5341040000000 1.0
C      1  0.4660970000000  0.4253980000000  0.5867770000000 1.0
C      1  0.4764940000000  0.4571870000000  0.3952100000000 1.0
C      1  0.5894320000000  0.4485520000000  0.4773400000000 1.0
C      1  0.5179250000000  0.5942450000000  0.4104100000000 1.0
C      1  0.4757790000000  0.5086500000000  0.6347280000000 1.0
C      1  0.4847730000000  0.4608360000000  0.5588360000000 1.0
C      1  0.5376030000000  0.4432290000000  0.5821150000000 1.0
C      1  0.5543260000000  0.4857050000000  0.5574450000000 1.0
C      1  0.5375750000000  0.4190940000000  0.4741130000000 1.0
C      1  0.5374150000000  0.4655290000000  0.4694130000000 1.0
C      1  0.4558020000000  0.4814930000000  0.3597820000000 1.0
C      1  0.4755890000000  0.5045900000000  0.4845800000000 1.0
C      1  0.4877160000000  0.3676290000000  0.4796290000000 1.0
C      1  0.5394020000000  0.4207550000000  0.5025340000000 1.0
C      1  0.5079420000000  0.4793200000000  0.3656970000000 1.0
C      1  0.5297580000000  0.4771120000000  0.3846480000000 1.0
C      1  0.5588380000000  0.5903270000000  0.5346500000000 1.0
C      1  0.5156490000000  0.5207720000000  0.4337690000000 1.0
C      1  0.5765480000000  0.3978180000000  0.4790960000000 1.0
C      1  0.6112950000000  0.5478240000000  0.4848850000000 1.0
C      1  0.3793960000000  0.5143060000000  0.4509320000000 1.0
C      1  0.4164740000000  0.4731810000000  0.3906170000000 1.0
C      1  0.5217190000000  0.4412600000000  0.4631920000000 1.0
C      1  0.6007670000000  0.5503680000000  0.4587160000000 1.0
C      1  0.5801460000000  0.4564460000000  0.4502900000000 1.0
C      1  0.5602160000000  0.5349390000000  0.5019780000000 1.0
C      1  0.4946560000000  0.4310530000000  0.4658660000000 1.0
C      1  0.4407920000000  0.5775900000000  0.4229860000000 1.0
C      1  0.5267490000000  0.3612540000000  0.5857510000000 1.0
C      1  0.4703290000000  0.5378970000000  0.4268590000000 1.0
C      1  0.4610890000000  0.4931260000000  0.6504180000000 1.0
C      1  0.6147210000000  0.5322470000000  0.5086080000000 1.0
C      1  0.5825210000000  0.4478160000000  0.4234010000000 1.0
C      1  0.4919060000000  0.3893800000000  0.4973100000000 1.0
C      1  0.5110960000000  0.6229590000000  0.4672100000000 1.0
C      1  0.5775440000000  0.4661550000000  0.4985250000000 1.0
C      1  0.6072330000000  0.5279900000000  0.4428130000000 1.0
C      1  0.4385790000000  0.5709340000000  0.5393130000000 1.0
C      1  0.4505890000000  0.5076820000000  0.5234460000000 1.0
C      1  0.4801340000000  0.4726850000000  0.3710500000000 1.0
C      1  0.3824890000000  0.5023510000000  0.4977830000000 1.0
C      1  0.5614390000000  0.5455560000000  0.5530630000000 1.0
C      1  0.5686080000000  0.5821710000000  0.6295170000000 1.0
C      1  0.4922770000000  0.6016850000000  0.4150530000000 1.0
C      1  0.4699480000000  0.5436130000000  0.6025660000000 1.0
C      1  0.4020040000000  0.5182240000000  0.5752020000000 1.0
C      1  0.4018600000000  0.5470310000000  0.4230280000000 1.0
C      1  0.5691850000000  0.4981230000000  0.5359050000000 1.0
C      1  0.4450280000000  0.4317630000000  0.4713910000000 1.0
C      1  0.4778850000000  0.5327860000000  0.4879520000000 1.0
C      1  0.5238350000000  0.6263430000000  0.4906770000000 1.0
C      1  0.5054500000000  0.5831080000000  0.5035540000000 1.0
C      1  0.5503220000000  0.4029280000000  0.4317260000000 1.0
C      1  0.5945480000000  0.5997150000000  0.5049370000000 1.0
C      1  0.4554520000000  0.4613000000000  0.4150890000000 1.0
C      1  0.5441050000000  0.5450480000000  0.5763720000000 1.0
C      1  0.3801010000000  0.4837550000000  0.5186670000000 1.0
C      1  0.5051400000000  0.4185210000000  0.4097860000000 1.0
C      1  0.5157250000000  0.5196840000000  0.6093630000000 1.0
C      1  0.5532920000000  0.5608090000000  0.4326790000000 1.0
C      1  0.5029210000000  0.4705700000000  0.5401890000000 1.0
C      1  0.5396180000000  0.5356640000000  0.4306130000000 1.0
C      1  0.5515570000000  0.5810570000000  0.6091620000000 1.0
C      1  0.4570890000000  0.4952230000000  0.5492970000000 1.0
C      1  0.4029880000000  0.5244750000000  0.4394970000000 1.0
C      1  0.3830960000000  0.5493240000000  0.4842870000000 1.0
C      1  0.5242380000000  0.3997140000000  0.4210710000000 1.0
C      1  0.4263330000000  0.4646440000000  0.4158460000000 1.0
C      1  0.4748000000000  0.4015900000000  0.5416940000000 1.0
C      1  0.4071950000000  0.5916920000000  0.5076150000000 1.0
C      1  0.5097290000000  0.4919890000000  0.4297450000000 1.0
C      1  0.4684020000000  0.4030760000000  0.5691190000000 1.0
C      1  0.5127210000000  0.5229850000000  0.5276240000000 1.0
C      1  0.5147930000000  0.4343290000000  0.5932350000000 1.0
C      1  0.5810780000000  0.5701300000000  0.6497620000000 1.0
C      1  0.5587810000000  0.4759260000000  0.4534330000000 1.0
C      1  0.4009730000000  0.5249030000000  0.6016860000000 1.0
C      1  0.3928070000000  0.5699750000000  0.4698160000000 1.0
C      1  0.5098570000000  0.5895470000000  0.5500590000000 1.0
C      1  0.5221520000000  0.6061470000000  0.5096850000000 1.0
C      1  0.5626540000000  0.5263670000000  0.5305030000000 1.0
C      1  0.5185290000000  0.4717840000000  0.4105980000000 1.0
C      1  0.5025370000000  0.4471810000000  0.4066310000000 1.0
C      1  0.5687900000000  0.5878690000000  0.5070210000000 1.0
END
