TITL C-627110-360-1045 5722.04159001703 125000 -995.756165039409 0 0 160 (C1) n - 1
REM
REM in /home/nfs/bkarasulu/CARBON/AIRSS/Generating-Clusters/LCBOP/Only-C1/SD-CG/FIRE-CG
REM
REM
REM
REM
REM
REM ./C.cell (11c1c37f851c82e70ff6c80c92926a4b)
REM AIRSS Version 0.9.1 bugfix July 2018 build 013d7b7c2542+ Fri, 06 Jul 2018 19:26:36 +0100
REM compiler GCC version 9.2.1 20190827 (Red Hat 9.2.1-1)
REM options -cpp -mtune=generic -march=x86-64 -g -O0 -fpre-include=/usr/include/finclude/math-vector-fortran.h
REM seed -1286291888 -1926812488 347504285 343001965 1076390473 -1195767986 -619149183 -248202647 884483791 -1606678703 -1115225851 -226302727 650452799 1385093306 222519547 338351174 880812877 -1349544255 1134439164 -399737614 825695980 -1135080535 -308505696 1523479999 1347075350 1641852490 -1467088776 -399245184 -1243783813 664076618 1972329880 1442499948 -1795772229
REM
CELL 1.54180   50.00000   50.00000   50.00000   90.00000   90.00000   90.00000
LATT -1
SFAC C  
C      1  0.5422160000000  0.5820730000000  0.5620890000000 1.0
C      1  0.4820800000000  0.5404410000000  0.5037310000000 1.0
C      1  0.4702890000000  0.5198810000000  0.5188350000000 1.0
C      1  0.4350180000000  0.4359930000000  0.4510450000000 1.0
C      1  0.4242790000000  0.4221500000000  0.5225420000000 1.0
C      1  0.4972020000000  0.3926880000000  0.4772160000000 1.0
C      1  0.5525620000000  0.4288040000000  0.4105170000000 1.0
C      1  0.5016220000000  0.4621870000000  0.3957650000000 1.0
C      1  0.4238770000000  0.5341850000000  0.4924270000000 1.0
C      1  0.5270940000000  0.5660630000000  0.5817100000000 1.0
C      1  0.5293680000000  0.5259170000000  0.3850040000000 1.0
C      1  0.4742770000000  0.3763610000000  0.4805770000000 1.0
C      1  0.5427460000000  0.5433620000000  0.5934170000000 1.0
C      1  0.5515100000000  0.5623820000000  0.4689690000000 1.0
C      1  0.5202550000000  0.4763770000000  0.3805860000000 1.0
C      1  0.4007290000000  0.5367840000000  0.5331070000000 1.0
C      1  0.5682680000000  0.4194580000000  0.5803380000000 1.0
C      1  0.4747070000000  0.5547540000000  0.5940510000000 1.0
C      1  0.4365490000000  0.5229110000000  0.4190070000000 1.0
C      1  0.4518960000000  0.4858400000000  0.4949200000000 1.0
C      1  0.5309430000000  0.5299110000000  0.4955210000000 1.0
C      1  0.5277060000000  0.6084030000000  0.4706190000000 1.0
C      1  0.5267310000000  0.4255150000000  0.4219580000000 1.0
C      1  0.5955620000000  0.5553600000000  0.5039040000000 1.0
C      1  0.5182330000000  0.4725920000000  0.4432990000000 1.0
C      1  0.4931110000000  0.5709480000000  0.4672550000000 1.0
C      1  0.5036240000000  0.4236950000000  0.5349700000000 1.0
C      1  0.5240970000000  0.5226700000000  0.5559840000000 1.0
C      1  0.5149700000000  0.5389600000000  0.4053890000000 1.0
C      1  0.4764200000000  0.4747670000000  0.4042560000000 1.0
C      1  0.4492070000000  0.5679390000000  0.3900650000000 1.0
C      1  0.4337920000000  0.4554910000000  0.4300900000000 1.0
C      1  0.4930610000000  0.4460970000000  0.5206420000000 1.0
C      1  0.4451560000000  0.4645030000000  0.5759790000000 1.0
C      1  0.4891320000000  0.6146780000000  0.5222870000000 1.0
C      1  0.4759170000000  0.4918560000000  0.5117040000000 1.0
C      1  0.5741680000000  0.4268060000000  0.5171160000000 1.0
C      1  0.5899260000000  0.4885530000000  0.4383940000000 1.0
C      1  0.5483190000000  0.4779310000000  0.5042630000000 1.0
C      1  0.4118250000000  0.4944260000000  0.5185050000000 1.0
C      1  0.4293130000000  0.4217020000000  0.5510480000000 1.0
C      1  0.5744530000000  0.4726360000000  0.5460550000000 1.0
C      1  0.4724610000000  0.4609800000000  0.5345370000000 1.0
C      1  0.4937180000000  0.5187400000000  0.6199200000000 1.0
C      1  0.4847600000000  0.6411320000000  0.5175980000000 1.0
C      1  0.5711530000000  0.4026500000000  0.5594050000000 1.0
C      1  0.4826700000000  0.4391720000000  0.4630010000000 1.0
C      1  0.5239490000000  0.4363570000000  0.5851760000000 1.0
C      1  0.5941440000000  0.4804220000000  0.4911330000000 1.0
C      1  0.5811620000000  0.5354480000000  0.4437330000000 1.0
C      1  0.4821900000000  0.5454290000000  0.4750760000000 1.0
C      1  0.4664600000000  0.3696720000000  0.5058790000000 1.0
C      1  0.4252900000000  0.4481580000000  0.5108110000000 1.0
C      1  0.4430800000000  0.5436470000000  0.5560230000000 1.0
C      1  0.6136430000000  0.4928740000000  0.5659080000000 1.0
C      1  0.5002450000000  0.5552990000000  0.5199330000000 1.0
C      1  0.5716870000000  0.5850700000000  0.4699900000000 1.0
C      1  0.4327340000000  0.4911540000000  0.5846390000000 1.0
C      1  0.5519490000000  0.4405280000000  0.5896950000000 1.0
C      1  0.4671780000000  0.4729620000000  0.5589520000000 1.0
C      1  0.5505310000000  0.4848460000000  0.5338700000000 1.0
C      1  0.4579020000000  0.5209420000000  0.3994440000000 1.0
C      1  0.3820420000000  0.4991420000000  0.4707480000000 1.0
C      1  0.5660470000000  0.4359510000000  0.4904210000000 1.0
C      1  0.4415220000000  0.5828940000000  0.4362970000000 1.0
C      1  0.5324360000000  0.5215910000000  0.4508840000000 1.0
C      1  0.5737990000000  0.5564400000000  0.5376080000000 1.0
C      1  0.5541820000000  0.5403670000000  0.4512000000000 1.0
C      1  0.5868980000000  0.5282110000000  0.5047170000000 1.0
C      1  0.5351850000000  0.5576700000000  0.4915440000000 1.0
C      1  0.5640880000000  0.5977400000000  0.5160930000000 1.0
C      1  0.5951840000000  0.5588720000000  0.4359270000000 1.0
C      1  0.5721460000000  0.4471900000000  0.4140690000000 1.0
C      1  0.4149190000000  0.4777010000000  0.4340330000000 1.0
C      1  0.4848580000000  0.5885490000000  0.5621810000000 1.0
C      1  0.4188890000000  0.5013510000000  0.4192160000000 1.0
C      1  0.4876860000000  0.5138170000000  0.4350600000000 1.0
C      1  0.4707830000000  0.5293670000000  0.6075030000000 1.0
C      1  0.4744900000000  0.4295300000000  0.4118580000000 1.0
C      1  0.4186200000000  0.4139820000000  0.4566790000000 1.0
C      1  0.5306520000000  0.5006250000000  0.3761320000000 1.0
C      1  0.5892880000000  0.5834300000000  0.4465790000000 1.0
C      1  0.5136920000000  0.3916910000000  0.5005060000000 1.0
C      1  0.4255540000000  0.4462820000000  0.5649710000000 1.0
C      1  0.5699470000000  0.5297170000000  0.5297590000000 1.0
C      1  0.5052470000000  0.5082040000000  0.5748710000000 1.0
C      1  0.4234520000000  0.5825410000000  0.5395720000000 1.0
C      1  0.5234490000000  0.4827430000000  0.4905610000000 1.0
C      1  0.4616650000000  0.5236690000000  0.5458520000000 1.0
C      1  0.6329450000000  0.4873790000000  0.5480990000000 1.0
C      1  0.4303230000000  0.5051970000000  0.4985390000000 1.0
C      1  0.4862150000000  0.5820050000000  0.4122760000000 1.0
C      1  0.4365100000000  0.5607390000000  0.4534380000000 1.0
C      1  0.4573130000000  0.4541260000000  0.4129770000000 1.0
C      1  0.4551240000000  0.4422100000000  0.4705840000000 1.0
C      1  0.5080170000000  0.5010030000000  0.6031490000000 1.0
C      1  0.5523890000000  0.6061640000000  0.4846620000000 1.0
C      1  0.4429580000000  0.3997620000000  0.5616620000000 1.0
C      1  0.4714300000000  0.5284350000000  0.4536930000000 1.0
C      1  0.4064810000000  0.4648890000000  0.5534210000000 1.0
C      1  0.4093180000000  0.4670620000000  0.5244850000000 1.0
C      1  0.5682370000000  0.4927180000000  0.5896480000000 1.0
C      1  0.5491630000000  0.5142660000000  0.5413010000000 1.0
C      1  0.4955970000000  0.4623020000000  0.4529620000000 1.0
C      1  0.5435220000000  0.4768720000000  0.4363200000000 1.0
C      1  0.3964830000000  0.5363480000000  0.5038810000000 1.0
C      1  0.4745540000000  0.5039500000000  0.5661130000000 1.0
C      1  0.6345970000000  0.4778310000000  0.5231170000000 1.0
C      1  0.5133880000000  0.5246340000000  0.4303870000000 1.0
C      1  0.5914390000000  0.5116850000000  0.4549320000000 1.0
C      1  0.4449420000000  0.4579490000000  0.4920700000000 1.0
C      1  0.4340680000000  0.5593810000000  0.4819280000000 1.0
C      1  0.4469040000000  0.5899810000000  0.5252100000000 1.0
C      1  0.5915330000000  0.5082590000000  0.4838760000000 1.0
C      1  0.4195400000000  0.5549200000000  0.5441050000000 1.0
C      1  0.6188620000000  0.4728400000000  0.5020330000000 1.0
C      1  0.4124410000000  0.3997850000000  0.4786640000000 1.0
C      1  0.5570790000000  0.5194630000000  0.5950190000000 1.0
C      1  0.5861770000000  0.4877750000000  0.5674920000000 1.0
C      1  0.5077120000000  0.4743940000000  0.6112850000000 1.0
C      1  0.5104870000000  0.5437840000000  0.5429440000000 1.0
C      1  0.5700010000000  0.4649530000000  0.4913010000000 1.0
C      1  0.5594590000000  0.4667690000000  0.5989230000000 1.0
C      1  0.4755960000000  0.5018450000000  0.4116000000000 1.0
C      1  0.5489230000000  0.4250550000000  0.4696390000000 1.0
C      1  0.5073620000000  0.4489120000000  0.6037330000000 1.0
C      1  0.5264960000000  0.4208710000000  0.4509900000000 1.0
C      1  0.5142280000000  0.4267270000000  0.5608180000000 1.0
C      1  0.3957250000000  0.4816640000000  0.4550380000000 1.0
C      1  0.4508100000000  0.5579760000000  0.5790600000000 1.0
C      1  0.5031870000000  0.4350970000000  0.4075840000000 1.0
C      1  0.4774220000000  0.3810730000000  0.5297260000000 1.0
C      1  0.3789020000000  0.5201480000000  0.4879470000000 1.0
C      1  0.5602570000000  0.5811620000000  0.5395510000000 1.0
C      1  0.5709780000000  0.4032390000000  0.5322570000000 1.0
C      1  0.5001150000000  0.4162270000000  0.4623110000000 1.0
C      1  0.4046910000000  0.5100780000000  0.5423940000000 1.0
C      1  0.5007890000000  0.3973270000000  0.5250460000000 1.0
C      1  0.5110970000000  0.6004510000000  0.5121790000000 1.0
C      1  0.4451190000000  0.5798350000000  0.4985080000000 1.0
C      1  0.4931320000000  0.5565040000000  0.3993790000000 1.0
C      1  0.4716960000000  0.5985100000000  0.5382870000000 1.0
C      1  0.4674700000000  0.5453120000000  0.3885450000000 1.0
C      1  0.5076200000000  0.5932840000000  0.4566710000000 1.0
C      1  0.4622670000000  0.3834210000000  0.5530220000000 1.0
C      1  0.4454510000000  0.5358740000000  0.4429530000000 1.0
C      1  0.4159240000000  0.4016500000000  0.5052800000000 1.0
C      1  0.4094880000000  0.4928420000000  0.5657230000000 1.0
C      1  0.5259510000000  0.5088250000000  0.4769960000000 1.0
C      1  0.5235600000000  0.4770260000000  0.5431540000000 1.0
C      1  0.4567250000000  0.5850290000000  0.4123670000000 1.0
C      1  0.5045500000000  0.4899990000000  0.5354590000000 1.0
C      1  0.4968080000000  0.5701980000000  0.5821950000000 1.0
C      1  0.5872880000000  0.5796120000000  0.4960650000000 1.0
C      1  0.5175470000000  0.5737160000000  0.5071900000000 1.0
C      1  0.5009460000000  0.4660780000000  0.4995340000000 1.0
C      1  0.5826160000000  0.4484360000000  0.5343780000000 1.0
C      1  0.5700240000000  0.4712390000000  0.4286720000000 1.0
C      1  0.4554350000000  0.5092380000000  0.5913600000000 1.0
C      1  0.5027600000000  0.5968910000000  0.4291740000000 1.0
END
