TITL C-627108-131-2103 6.8934122167547e-05 125000 -773.380522388867 0 0 128 (C1) n - 1
REM
REM in /home/nfs/bkarasulu/CARBON/AIRSS/Generating-Clusters/LCBOP/Only-C1/SD-CG/FIRE-CG
REM
REM
REM
REM
REM
REM ./C.cell (11c1c37f851c82e70ff6c80c92926a4b)
REM AIRSS Version 0.9.1 bugfix July 2018 build 013d7b7c2542+ Fri, 06 Jul 2018 19:26:36 +0100
REM compiler GCC version 9.2.1 20190827 (Red Hat 9.2.1-1)
REM options -cpp -mtune=generic -march=x86-64 -g -O0 -fpre-include=/usr/include/finclude/math-vector-fortran.h
REM seed 1541944119 618669086 -1802189805 505879062 1453430486 1720786737 -7436500 -1355768038 362697295 -853031361 1767356201 757548023 -693970034 -738359789 -841665460 -437037576 265982598 -662699256 -333667501 -2068850344 -1151770192 1144332417 -318856538 1511815692 1939438963 -915338940 -1125190946 -1833057548 -630975376 1359653684 1524466063 1713288769 1423587123
REM
CELL 1.54180   50.00000   50.00000   50.00000   90.00000   90.00000   90.00000
LATT -1
SFAC C  
C      1  0.5700850000000  0.4703940000000  0.4352510000000 1.0
C      1  0.5088340000000  0.4734190000000  0.3933070000000 1.0
C      1  0.5070430000000  0.4863740000000  0.5493630000000 1.0
C      1  0.5408280000000  0.5585010000000  0.5176010000000 1.0
C      1  0.4985640000000  0.6017140000000  0.5981380000000 1.0
C      1  0.4053230000000  0.5104400000000  0.5151470000000 1.0
C      1  0.4296970000000  0.5496870000000  0.4092190000000 1.0
C      1  0.4059940000000  0.5577500000000  0.5010470000000 1.0
C      1  0.4697730000000  0.5223880000000  0.4223150000000 1.0
C      1  0.5027600000000  0.5495760000000  0.4347430000000 1.0
C      1  0.5520690000000  0.4597530000000  0.4543850000000 1.0
C      1  0.5633260000000  0.5244730000000  0.4082820000000 1.0
C      1  0.5417150000000  0.5429610000000  0.4097380000000 1.0
C      1  0.4563560000000  0.5390840000000  0.5185730000000 1.0
C      1  0.4477450000000  0.5937560000000  0.5864190000000 1.0
C      1  0.4866660000000  0.4913920000000  0.3939630000000 1.0
C      1  0.5140380000000  0.5358020000000  0.4123180000000 1.0
C      1  0.4286760000000  0.5665000000000  0.4884490000000 1.0
C      1  0.6131140000000  0.4919790000000  0.5204900000000 1.0
C      1  0.5728530000000  0.5811470000000  0.4103100000000 1.0
C      1  0.4257830000000  0.4861470000000  0.4727360000000 1.0
C      1  0.4829270000000  0.5088250000000  0.4917610000000 1.0
C      1  0.5001350000000  0.4324070000000  0.4408620000000 1.0
C      1  0.5568290000000  0.4748180000000  0.4093360000000 1.0
C      1  0.4607030000000  0.5376710000000  0.5738760000000 1.0
C      1  0.5336830000000  0.4602970000000  0.3994760000000 1.0
C      1  0.4641530000000  0.4330530000000  0.5574820000000 1.0
C      1  0.5535290000000  0.4339920000000  0.4649680000000 1.0
C      1  0.4372630000000  0.5490270000000  0.5632790000000 1.0
C      1  0.5575980000000  0.5162780000000  0.5036700000000 1.0
C      1  0.5272690000000  0.5861860000000  0.4618540000000 1.0
C      1  0.5419440000000  0.4479500000000  0.5582570000000 1.0
C      1  0.4716940000000  0.5121920000000  0.5824770000000 1.0
C      1  0.5902300000000  0.4833320000000  0.4532600000000 1.0
C      1  0.5231760000000  0.4533170000000  0.5179170000000 1.0
C      1  0.5548540000000  0.4677110000000  0.5752490000000 1.0
C      1  0.4717650000000  0.6028110000000  0.5948480000000 1.0
C      1  0.4897010000000  0.4106220000000  0.4554200000000 1.0
C      1  0.4274100000000  0.4069700000000  0.5410050000000 1.0
C      1  0.3805040000000  0.4432190000000  0.5640560000000 1.0
C      1  0.4242750000000  0.4380400000000  0.4804580000000 1.0
C      1  0.4035200000000  0.4475240000000  0.5495280000000 1.0
C      1  0.4180800000000  0.4722720000000  0.5543630000000 1.0
C      1  0.4531510000000  0.5572330000000  0.4963860000000 1.0
C      1  0.4591640000000  0.4512170000000  0.5074520000000 1.0
C      1  0.4780880000000  0.3607850000000  0.5637360000000 1.0
C      1  0.4759170000000  0.4385990000000  0.5828640000000 1.0
C      1  0.5846540000000  0.5242260000000  0.4989270000000 1.0
C      1  0.4951070000000  0.4596510000000  0.4466230000000 1.0
C      1  0.5483640000000  0.5700190000000  0.4181030000000 1.0
C      1  0.5317360000000  0.4785550000000  0.5097070000000 1.0
C      1  0.4430360000000  0.4293680000000  0.4597940000000 1.0
C      1  0.5357880000000  0.6093540000000  0.4753010000000 1.0
C      1  0.5945800000000  0.4709190000000  0.4811150000000 1.0
C      1  0.5094360000000  0.4711130000000  0.5988800000000 1.0
C      1  0.5340500000000  0.4831490000000  0.5875980000000 1.0
C      1  0.4110890000000  0.4273240000000  0.5303100000000 1.0
C      1  0.4233430000000  0.4599970000000  0.4303340000000 1.0
C      1  0.5445360000000  0.4943530000000  0.4906750000000 1.0
C      1  0.4335370000000  0.4783010000000  0.5788190000000 1.0
C      1  0.5008300000000  0.5181750000000  0.5850510000000 1.0
C      1  0.4719270000000  0.5066220000000  0.4460020000000 1.0
C      1  0.4107640000000  0.4926120000000  0.5362440000000 1.0
C      1  0.5302520000000  0.5864720000000  0.4331850000000 1.0
C      1  0.4618360000000  0.4854900000000  0.5833070000000 1.0
C      1  0.5165590000000  0.5667850000000  0.5055960000000 1.0
C      1  0.5089790000000  0.4737980000000  0.4663210000000 1.0
C      1  0.5506010000000  0.4231030000000  0.4892030000000 1.0
C      1  0.5850320000000  0.5253060000000  0.4262370000000 1.0
C      1  0.6046200000000  0.5174920000000  0.5177120000000 1.0
C      1  0.4218680000000  0.4874100000000  0.4360670000000 1.0
C      1  0.5607380000000  0.4384150000000  0.5364460000000 1.0
C      1  0.4431560000000  0.5267980000000  0.4139270000000 1.0
C      1  0.5434780000000  0.4330040000000  0.5140790000000 1.0
C      1  0.4820930000000  0.4654170000000  0.5901650000000 1.0
C      1  0.4933650000000  0.4832610000000  0.4877250000000 1.0
C      1  0.5607760000000  0.4994360000000  0.3962520000000 1.0
C      1  0.4091500000000  0.5025770000000  0.4882730000000 1.0
C      1  0.4091390000000  0.5379360000000  0.5213970000000 1.0
C      1  0.4377040000000  0.4633740000000  0.4886350000000 1.0
C      1  0.4719750000000  0.4266100000000  0.4972450000000 1.0
C      1  0.4693620000000  0.4708490000000  0.4424260000000 1.0
C      1  0.5747220000000  0.5946300000000  0.5162910000000 1.0
C      1  0.5962900000000  0.5916850000000  0.4038670000000 1.0
C      1  0.4525790000000  0.4070730000000  0.5533420000000 1.0
C      1  0.6195480000000  0.6017120000000  0.3976970000000 1.0
C      1  0.5227680000000  0.5045750000000  0.5686890000000 1.0
C      1  0.5131450000000  0.5658330000000  0.4773610000000 1.0
C      1  0.5826470000000  0.4578370000000  0.5340020000000 1.0
C      1  0.4614030000000  0.4517290000000  0.5358810000000 1.0
C      1  0.4822530000000  0.5228630000000  0.4678950000000 1.0
C      1  0.4663690000000  0.4181770000000  0.4703300000000 1.0
C      1  0.5934440000000  0.5279190000000  0.4727760000000 1.0
C      1  0.4971150000000  0.5758220000000  0.5237100000000 1.0
C      1  0.4866680000000  0.5724200000000  0.5480210000000 1.0
C      1  0.5276390000000  0.5615620000000  0.5873570000000 1.0
C      1  0.4827130000000  0.5564270000000  0.5706200000000 1.0
C      1  0.5407560000000  0.5260850000000  0.5543430000000 1.0
C      1  0.4569320000000  0.4858360000000  0.3959610000000 1.0
C      1  0.5220200000000  0.5881680000000  0.5957350000000 1.0
C      1  0.5603300000000  0.5757340000000  0.5294830000000 1.0
C      1  0.5972170000000  0.4699060000000  0.5111840000000 1.0
C      1  0.4810630000000  0.4185990000000  0.6008880000000 1.0
C      1  0.4086950000000  0.4279790000000  0.5018360000000 1.0
C      1  0.5478140000000  0.5506770000000  0.5701830000000 1.0
C      1  0.5171850000000  0.4587310000000  0.5457610000000 1.0
C      1  0.5364680000000  0.4800370000000  0.4665180000000 1.0
C      1  0.4853410000000  0.5001550000000  0.5370790000000 1.0
C      1  0.5799040000000  0.4724900000000  0.5604320000000 1.0
C      1  0.5647570000000  0.5690420000000  0.5566700000000 1.0
C      1  0.5929430000000  0.5120730000000  0.4497420000000 1.0
C      1  0.4342340000000  0.4994440000000  0.4120020000000 1.0
C      1  0.4476530000000  0.4499750000000  0.4402030000000 1.0
C      1  0.5149830000000  0.6046010000000  0.4190760000000 1.0
C      1  0.5442910000000  0.5306440000000  0.5249950000000 1.0
C      1  0.5043370000000  0.5464250000000  0.5862120000000 1.0
C      1  0.5053280000000  0.3910720000000  0.4689130000000 1.0
C      1  0.4184450000000  0.4774650000000  0.6021920000000 1.0
C      1  0.5362530000000  0.4334690000000  0.3941660000000 1.0
C      1  0.4925940000000  0.5181230000000  0.4043490000000 1.0
C      1  0.4323650000000  0.5749140000000  0.5743340000000 1.0
C      1  0.5050250000000  0.3907190000000  0.4962640000000 1.0
C      1  0.4657100000000  0.3833560000000  0.5596660000000 1.0
C      1  0.5398450000000  0.6333840000000  0.4845620000000 1.0
C      1  0.4901450000000  0.4089110000000  0.5102110000000 1.0
C      1  0.4332910000000  0.5416530000000  0.5364280000000 1.0
C      1  0.4743360000000  0.5168000000000  0.5172150000000 1.0
C      1  0.4981720000000  0.5464120000000  0.4622420000000 1.0
END
