TITL C-627113-6568-941 6.879808781255 125000 -196.334049386314 0 0 34 (C1) n - 1
REM
REM in /home/nfs/bkarasulu/CARBON/AIRSS/Generating-Clusters/LCBOP/Only-C1/SD-CG/FIRE-CG
REM
REM
REM
REM
REM
REM ./C.cell (11c1c37f851c82e70ff6c80c92926a4b)
REM AIRSS Version 0.9.1 bugfix July 2018 build 013d7b7c2542+ Fri, 06 Jul 2018 19:26:36 +0100
REM compiler GCC version 9.2.1 20190827 (Red Hat 9.2.1-1)
REM options -cpp -mtune=generic -march=x86-64 -g -O0 -fpre-include=/usr/include/finclude/math-vector-fortran.h
REM seed -30519217 -1281767237 -468709072 361520698 1134393220 -1470671214 492998958 -1730460771 -1799097605 -354699682 -2092537887 -1969488512 1538878622 -67421949 -977315499 2122507521 568162706 -131206119 328023776 -841047537 1679761821 1686419931 1173386440 219610467 -1249813116 -1305029314 1836742158 1133979596 -693351400 1145940712 151072753 916303988 1979289128
REM
CELL 1.54180   50.00000   50.00000   50.00000   90.00000   90.00000   90.00000
LATT -1
SFAC C  
C      1  0.5146000000000  0.5135690000000  0.5520390000000 1.0
C      1  0.5058490000000  0.5659080000000  0.4148230000000 1.0
C      1  0.4840580000000  0.4719150000000  0.4930350000000 1.0
C      1  0.4647500000000  0.4576820000000  0.5355050000000 1.0
C      1  0.5493090000000  0.5144300000000  0.4335890000000 1.0
C      1  0.4231970000000  0.5489640000000  0.4636310000000 1.0
C      1  0.4409910000000  0.4891310000000  0.5065940000000 1.0
C      1  0.4799360000000  0.4863420000000  0.5745770000000 1.0
C      1  0.4325640000000  0.4151350000000  0.5436490000000 1.0
C      1  0.5011990000000  0.4557690000000  0.6053550000000 1.0
C      1  0.5252730000000  0.4836210000000  0.4619900000000 1.0
C      1  0.5101740000000  0.4539690000000  0.5578310000000 1.0
C      1  0.5697910000000  0.4733060000000  0.4473750000000 1.0
C      1  0.4806280000000  0.5722680000000  0.4199940000000 1.0
C      1  0.5045540000000  0.4764200000000  0.4768560000000 1.0
C      1  0.4834990000000  0.4651350000000  0.5550080000000 1.0
C      1  0.4360890000000  0.5637600000000  0.4457700000000 1.0
C      1  0.5911700000000  0.5268840000000  0.4927930000000 1.0
C      1  0.4480630000000  0.4356820000000  0.5395600000000 1.0
C      1  0.4918320000000  0.5106830000000  0.5663470000000 1.0
C      1  0.4563060000000  0.5717730000000  0.4305690000000 1.0
C      1  0.4630580000000  0.4727070000000  0.5114700000000 1.0
C      1  0.5764540000000  0.5453340000000  0.4088490000000 1.0
C      1  0.4837780000000  0.4765360000000  0.6011970000000 1.0
C      1  0.5301450000000  0.4686530000000  0.5442530000000 1.0
C      1  0.4261890000000  0.5086140000000  0.4963780000000 1.0
C      1  0.5520860000000  0.5380780000000  0.4189230000000 1.0
C      1  0.5296380000000  0.5542260000000  0.4147220000000 1.0
C      1  0.4197840000000  0.5295630000000  0.4814100000000 1.0
C      1  0.5144660000000  0.4441270000000  0.5843710000000 1.0
C      1  0.5338890000000  0.4965160000000  0.5401310000000 1.0
C      1  0.5483350000000  0.4902760000000  0.4476320000000 1.0
C      1  0.5549050000000  0.5064370000000  0.5248770000000 1.0
C      1  0.5734420000000  0.5165840000000  0.5088950000000 1.0
END
