TITL C-627108-131-2130 43562.3219797483 125000 -962.386157386191 0 0 159 (C1) n - 1
REM
REM in /home/nfs/bkarasulu/CARBON/AIRSS/Generating-Clusters/LCBOP/Only-C1/SD-CG/FIRE-CG
REM
REM
REM
REM
REM
REM ./C.cell (11c1c37f851c82e70ff6c80c92926a4b)
REM AIRSS Version 0.9.1 bugfix July 2018 build 013d7b7c2542+ Fri, 06 Jul 2018 19:26:36 +0100
REM compiler GCC version 9.2.1 20190827 (Red Hat 9.2.1-1)
REM options -cpp -mtune=generic -march=x86-64 -g -O0 -fpre-include=/usr/include/finclude/math-vector-fortran.h
REM seed 2052217450 1661904407 -1652491819 150716590 -1118105430 -590614609 -1445455889 1585501472 332515277 121634044 1927529798 -1004095013 537718194 944612040 -1011120182 827706395 -1864232801 1739183559 -1468940028 588782484 -2090588754 -433725296 -1104930245 119562426 935095492 954757673 -884208175 -2123070139 762685797 480004650 -1250698289 -2015104206 1282773883
REM
CELL 1.54180   50.00000   50.00000   50.00000   90.00000   90.00000   90.00000
LATT -1
SFAC C  
C      1  0.3928210000000  0.5274930000000  0.5236410000000 1.0
C      1  0.5371100000000  0.4555800000000  0.4034380000000 1.0
C      1  0.5622970000000  0.5560380000000  0.4210040000000 1.0
C      1  0.5408600000000  0.4698690000000  0.5197900000000 1.0
C      1  0.5645980000000  0.5467200000000  0.5572130000000 1.0
C      1  0.6305570000000  0.3923420000000  0.4249950000000 1.0
C      1  0.5127580000000  0.3980180000000  0.5229520000000 1.0
C      1  0.6333760000000  0.3708920000000  0.4104480000000 1.0
C      1  0.5503120000000  0.5323890000000  0.4096210000000 1.0
C      1  0.4023980000000  0.5439160000000  0.4794360000000 1.0
C      1  0.4431800000000  0.5588430000000  0.5976970000000 1.0
C      1  0.5006250000000  0.6241430000000  0.4925130000000 1.0
C      1  0.4677580000000  0.4592670000000  0.4869270000000 1.0
C      1  0.4989070000000  0.4271430000000  0.4285780000000 1.0
C      1  0.5783310000000  0.5826320000000  0.4654440000000 1.0
C      1  0.4842040000000  0.4389650000000  0.4749230000000 1.0
C      1  0.4628200000000  0.4673820000000  0.6046570000000 1.0
C      1  0.5266390000000  0.5751010000000  0.5778710000000 1.0
C      1  0.5759410000000  0.5053280000000  0.5085530000000 1.0
C      1  0.5721050000000  0.5725890000000  0.4406600000000 1.0
C      1  0.4364850000000  0.5013820000000  0.4987430000000 1.0
C      1  0.3950630000000  0.4592480000000  0.5810360000000 1.0
C      1  0.4060550000000  0.4868600000000  0.4374940000000 1.0
C      1  0.5156430000000  0.4358930000000  0.4049120000000 1.0
C      1  0.4242990000000  0.4364650000000  0.4440270000000 1.0
C      1  0.4529680000000  0.4070780000000  0.5238790000000 1.0
C      1  0.4710120000000  0.4512690000000  0.3982020000000 1.0
C      1  0.3950220000000  0.4783580000000  0.4883360000000 1.0
C      1  0.5250960000000  0.4156530000000  0.4731700000000 1.0
C      1  0.5247760000000  0.4513100000000  0.6068010000000 1.0
C      1  0.5104270000000  0.4010320000000  0.5506040000000 1.0
C      1  0.4477350000000  0.3910640000000  0.4990560000000 1.0
C      1  0.5041890000000  0.5504410000000  0.4399080000000 1.0
C      1  0.4863910000000  0.5749630000000  0.4377000000000 1.0
C      1  0.6262470000000  0.4139830000000  0.4396630000000 1.0
C      1  0.4285140000000  0.5301470000000  0.4331060000000 1.0
C      1  0.5267680000000  0.4756800000000  0.5645450000000 1.0
C      1  0.5437270000000  0.5330080000000  0.5438670000000 1.0
C      1  0.4459130000000  0.5190000000000  0.4791320000000 1.0
C      1  0.4926080000000  0.4484330000000  0.5299050000000 1.0
C      1  0.4614360000000  0.5879910000000  0.5282800000000 1.0
C      1  0.4187230000000  0.5424140000000  0.5259590000000 1.0
C      1  0.3774370000000  0.5193380000000  0.5452040000000 1.0
C      1  0.5186190000000  0.5291090000000  0.5345970000000 1.0
C      1  0.5177050000000  0.6352660000000  0.5096850000000 1.0
C      1  0.4711080000000  0.5318520000000  0.4060030000000 1.0
C      1  0.4546710000000  0.5859680000000  0.5540220000000 1.0
C      1  0.4397850000000  0.5883390000000  0.4461630000000 1.0
C      1  0.4433340000000  0.5013210000000  0.5265480000000 1.0
C      1  0.5301970000000  0.5483560000000  0.4581450000000 1.0
C      1  0.5466940000000  0.5549500000000  0.5034550000000 1.0
C      1  0.5221970000000  0.4998130000000  0.3893870000000 1.0
C      1  0.5116140000000  0.5070960000000  0.5185780000000 1.0
C      1  0.4708440000000  0.5559550000000  0.4928720000000 1.0
C      1  0.6238000000000  0.5229460000000  0.5193980000000 1.0
C      1  0.5764300000000  0.4822220000000  0.4873670000000 1.0
C      1  0.5808540000000  0.5211710000000  0.4551300000000 1.0
C      1  0.5278950000000  0.4897430000000  0.5060130000000 1.0
C      1  0.5466930000000  0.4625180000000  0.4494780000000 1.0
C      1  0.5436720000000  0.4838490000000  0.4014380000000 1.0
C      1  0.4305750000000  0.5007640000000  0.4307840000000 1.0
C      1  0.4409630000000  0.5270810000000  0.5401080000000 1.0
C      1  0.4057340000000  0.5338790000000  0.4519520000000 1.0
C      1  0.4994270000000  0.4875240000000  0.5600710000000 1.0
C      1  0.4502190000000  0.5460460000000  0.4217730000000 1.0
C      1  0.4087630000000  0.4584310000000  0.4395960000000 1.0
C      1  0.5691640000000  0.5319250000000  0.5813320000000 1.0
C      1  0.4404010000000  0.4649910000000  0.5618360000000 1.0
C      1  0.4975000000000  0.5473650000000  0.5321610000000 1.0
C      1  0.4169230000000  0.5591420000000  0.5002720000000 1.0
C      1  0.4947360000000  0.4383680000000  0.3847770000000 1.0
C      1  0.4041930000000  0.4572180000000  0.5326760000000 1.0
C      1  0.3905460000000  0.5072490000000  0.4517610000000 1.0
C      1  0.4545650000000  0.4797670000000  0.5416780000000 1.0
C      1  0.4494680000000  0.4224920000000  0.4448880000000 1.0
C      1  0.4649520000000  0.5382950000000  0.4712810000000 1.0
C      1  0.4411560000000  0.5358180000000  0.6110760000000 1.0
C      1  0.4861780000000  0.5090930000000  0.5054100000000 1.0
C      1  0.5823390000000  0.5031480000000  0.4327230000000 1.0
C      1  0.5001360000000  0.4862990000000  0.3788010000000 1.0
C      1  0.5962410000000  0.4243140000000  0.5311720000000 1.0
C      1  0.5076260000000  0.4353750000000  0.4557110000000 1.0
C      1  0.4831050000000  0.4847510000000  0.4872480000000 1.0
C      1  0.6276030000000  0.5373660000000  0.4628860000000 1.0
C      1  0.4480690000000  0.5761700000000  0.5779640000000 1.0
C      1  0.5309550000000  0.4918630000000  0.4791090000000 1.0
C      1  0.5309570000000  0.6321830000000  0.5325850000000 1.0
C      1  0.5785140000000  0.5855610000000  0.4928900000000 1.0
C      1  0.4214690000000  0.4417890000000  0.5161400000000 1.0
C      1  0.5556190000000  0.4335330000000  0.5620020000000 1.0
C      1  0.4995620000000  0.4160540000000  0.5741880000000 1.0
C      1  0.4268360000000  0.5941530000000  0.4687750000000 1.0
C      1  0.5182590000000  0.4613190000000  0.4499470000000 1.0
C      1  0.6614830000000  0.5439490000000  0.4971810000000 1.0
C      1  0.5616470000000  0.5048370000000  0.4133340000000 1.0
C      1  0.4580600000000  0.5718380000000  0.4327730000000 1.0
C      1  0.4705030000000  0.5828690000000  0.5017870000000 1.0
C      1  0.4879840000000  0.4772560000000  0.6127860000000 1.0
C      1  0.5322570000000  0.4481210000000  0.5570890000000 1.0
C      1  0.5001670000000  0.5387270000000  0.4108570000000 1.0
C      1  0.5554040000000  0.4796240000000  0.4695690000000 1.0
C      1  0.5226930000000  0.4488860000000  0.5298920000000 1.0
C      1  0.6077190000000  0.4278360000000  0.5074460000000 1.0
C      1  0.6180520000000  0.4360950000000  0.4546710000000 1.0
C      1  0.3858240000000  0.5247420000000  0.4956290000000 1.0
C      1  0.4826040000000  0.4122730000000  0.4844170000000 1.0
C      1  0.6039300000000  0.5255420000000  0.4727050000000 1.0
C      1  0.4733010000000  0.4282590000000  0.5678630000000 1.0
C      1  0.4415180000000  0.5099360000000  0.6175450000000 1.0
C      1  0.5536530000000  0.5079120000000  0.5855320000000 1.0
C      1  0.4533890000000  0.4863960000000  0.4350190000000 1.0
C      1  0.5144110000000  0.5532100000000  0.5881920000000 1.0
C      1  0.6143450000000  0.4333950000000  0.4823200000000 1.0
C      1  0.6011550000000  0.4824420000000  0.4326670000000 1.0
C      1  0.6515860000000  0.5453890000000  0.4720800000000 1.0
C      1  0.4796470000000  0.5374860000000  0.5123020000000 1.0
C      1  0.4169700000000  0.4685090000000  0.6231630000000 1.0
C      1  0.4836460000000  0.6039220000000  0.4888550000000 1.0
C      1  0.4729690000000  0.4257050000000  0.5370230000000 1.0
C      1  0.5629190000000  0.4879050000000  0.5344150000000 1.0
C      1  0.5233420000000  0.5271180000000  0.3990450000000 1.0
C      1  0.4824020000000  0.4735520000000  0.5413280000000 1.0
C      1  0.4389440000000  0.4551550000000  0.4961310000000 1.0
C      1  0.4693060000000  0.4326520000000  0.4240240000000 1.0
C      1  0.4408350000000  0.4817370000000  0.6166680000000 1.0
C      1  0.4090070000000  0.6057210000000  0.5123250000000 1.0
C      1  0.5786100000000  0.4255610000000  0.5510720000000 1.0
C      1  0.5646660000000  0.5739220000000  0.5158130000000 1.0
C      1  0.4862930000000  0.5306340000000  0.4542820000000 1.0
C      1  0.4121530000000  0.4620870000000  0.5592250000000 1.0
C      1  0.5083780000000  0.4039120000000  0.4947560000000 1.0
C      1  0.3620950000000  0.5141800000000  0.5656270000000 1.0
C      1  0.3821590000000  0.5014750000000  0.4789390000000 1.0
C      1  0.4182630000000  0.5870210000000  0.4947120000000 1.0
C      1  0.4742040000000  0.4801470000000  0.3902690000000 1.0
C      1  0.4633900000000  0.5257390000000  0.5606100000000 1.0
C      1  0.5281530000000  0.5637530000000  0.4833700000000 1.0
C      1  0.5164000000000  0.4791670000000  0.6097630000000 1.0
C      1  0.5439320000000  0.5893150000000  0.5597930000000 1.0
C      1  0.5146200000000  0.4283430000000  0.5955170000000 1.0
C      1  0.4887190000000  0.5132190000000  0.5711090000000 1.0
C      1  0.4634780000000  0.5063830000000  0.3949320000000 1.0
C      1  0.5078270000000  0.5253950000000  0.5897510000000 1.0
C      1  0.6129240000000  0.4604010000000  0.4417210000000 1.0
C      1  0.5060700000000  0.4845040000000  0.4645810000000 1.0
C      1  0.5570140000000  0.5286600000000  0.4960280000000 1.0
C      1  0.5517550000000  0.4909000000000  0.5621960000000 1.0
C      1  0.5391920000000  0.6156040000000  0.5517170000000 1.0
C      1  0.6028040000000  0.5181350000000  0.5014270000000 1.0
C      1  0.5277650000000  0.5057250000000  0.6004520000000 1.0
C      1  0.4231310000000  0.4782710000000  0.4904610000000 1.0
C      1  0.4581640000000  0.4510360000000  0.5804810000000 1.0
C      1  0.4949090000000  0.5048170000000  0.4474020000000 1.0
C      1  0.5548240000000  0.5301330000000  0.4654080000000 1.0
C      1  0.5634560000000  0.5733320000000  0.5454150000000 1.0
C      1  0.3966940000000  0.4601980000000  0.6077210000000 1.0
C      1  0.4578650000000  0.4025980000000  0.4744280000000 1.0
C      1  0.4269330000000  0.4173330000000  0.5281210000000 1.0
C      1  0.6484930000000  0.5336430000000  0.5185220000000 1.0
END
