TITL C-627113-6568-867 -2.52112163619941 125000 -532.91640862482 0 0 89 (C1) n - 1
REM
REM in /home/nfs/bkarasulu/CARBON/AIRSS/Generating-Clusters/LCBOP/Only-C1/SD-CG/FIRE-CG
REM
REM
REM
REM
REM
REM ./C.cell (11c1c37f851c82e70ff6c80c92926a4b)
REM AIRSS Version 0.9.1 bugfix July 2018 build 013d7b7c2542+ Fri, 06 Jul 2018 19:26:36 +0100
REM compiler GCC version 9.2.1 20190827 (Red Hat 9.2.1-1)
REM options -cpp -mtune=generic -march=x86-64 -g -O0 -fpre-include=/usr/include/finclude/math-vector-fortran.h
REM seed 674290391 -950421500 -509187635 821409180 -1395414911 272067104 1624811133 1660913925 -1133981697 -46892954 1407941011 -1774834208 -590206789 718936322 -1485790827 -1528515001 415755693 1245978151 -535993560 1066985793 892817889 5980004 20679792 -1214266291 -1548900016 2083207432 -1437314040 -1446682340 -1308185587 -613829011 -148080804 857132845 794832066
REM
CELL 1.54180   50.00000   50.00000   50.00000   90.00000   90.00000   90.00000
LATT -1
SFAC C  
C      1  0.4043950000000  0.4673450000000  0.4915560000000 1.0
C      1  0.5336790000000  0.5087500000000  0.4565960000000 1.0
C      1  0.4332000000000  0.4427110000000  0.3757110000000 1.0
C      1  0.6060730000000  0.6568630000000  0.6116130000000 1.0
C      1  0.5805330000000  0.4870940000000  0.5989630000000 1.0
C      1  0.4249200000000  0.5472140000000  0.4443930000000 1.0
C      1  0.4863260000000  0.4319200000000  0.5213450000000 1.0
C      1  0.5596990000000  0.4134280000000  0.5279520000000 1.0
C      1  0.5565600000000  0.4648900000000  0.4616530000000 1.0
C      1  0.4881860000000  0.5676670000000  0.4302780000000 1.0
C      1  0.4121680000000  0.5450810000000  0.5395980000000 1.0
C      1  0.5344710000000  0.4472520000000  0.4647050000000 1.0
C      1  0.6025620000000  0.4709500000000  0.6007360000000 1.0
C      1  0.5795910000000  0.7075590000000  0.5326300000000 1.0
C      1  0.3531120000000  0.4848400000000  0.4890220000000 1.0
C      1  0.5165730000000  0.4328840000000  0.4163490000000 1.0
C      1  0.4923020000000  0.4738620000000  0.3564220000000 1.0
C      1  0.5545880000000  0.4406550000000  0.5301370000000 1.0
C      1  0.4335110000000  0.5150960000000  0.4785590000000 1.0
C      1  0.5631680000000  0.5760050000000  0.5768410000000 1.0
C      1  0.3291070000000  0.4948950000000  0.4875150000000 1.0
C      1  0.4876620000000  0.5125510000000  0.5542280000000 1.0
C      1  0.4786870000000  0.4259550000000  0.4739690000000 1.0
C      1  0.5361670000000  0.4877730000000  0.6192220000000 1.0
C      1  0.4245830000000  0.5415760000000  0.4719530000000 1.0
C      1  0.5098660000000  0.4393630000000  0.3915060000000 1.0
C      1  0.5359400000000  0.4544440000000  0.5131320000000 1.0
C      1  0.5758400000000  0.5046320000000  0.4826390000000 1.0
C      1  0.5739600000000  0.5001600000000  0.5745720000000 1.0
C      1  0.5024030000000  0.4537460000000  0.3704890000000 1.0
C      1  0.5263970000000  0.5457450000000  0.5668200000000 1.0
C      1  0.4767440000000  0.5894230000000  0.4215960000000 1.0
C      1  0.5876270000000  0.6704750000000  0.5690060000000 1.0
C      1  0.6193030000000  0.6625570000000  0.6333330000000 1.0
C      1  0.5242160000000  0.4352160000000  0.4416490000000 1.0
C      1  0.5554170000000  0.4977810000000  0.5283940000000 1.0
C      1  0.5533480000000  0.5502450000000  0.5728500000000 1.0
C      1  0.4967360000000  0.4325300000000  0.4947210000000 1.0
C      1  0.4134290000000  0.5580960000000  0.4915040000000 1.0
C      1  0.5678120000000  0.4855790000000  0.5511920000000 1.0
C      1  0.4461630000000  0.4064340000000  0.3399620000000 1.0
C      1  0.5117890000000  0.4821560000000  0.6103940000000 1.0
C      1  0.6017340000000  0.4954910000000  0.4752140000000 1.0
C      1  0.5155580000000  0.5259520000000  0.4478060000000 1.0
C      1  0.6049120000000  0.4711930000000  0.4633050000000 1.0
C      1  0.4214060000000  0.4689180000000  0.4683970000000 1.0
C      1  0.5336850000000  0.4822330000000  0.5185660000000 1.0
C      1  0.4356070000000  0.4458730000000  0.4601390000000 1.0
C      1  0.4850470000000  0.4572190000000  0.5723960000000 1.0
C      1  0.4458050000000  0.5075750000000  0.5315050000000 1.0
C      1  0.5832080000000  0.4559790000000  0.4570600000000 1.0
C      1  0.5696220000000  0.5123440000000  0.5089900000000 1.0
C      1  0.4270290000000  0.5234890000000  0.5452250000000 1.0
C      1  0.5746570000000  0.4996290000000  0.6454180000000 1.0
C      1  0.4163030000000  0.4578090000000  0.5154020000000 1.0
C      1  0.5835760000000  0.6891660000000  0.5506710000000 1.0
C      1  0.5918930000000  0.6507630000000  0.5883290000000 1.0
C      1  0.4488230000000  0.5318040000000  0.3745240000000 1.0
C      1  0.5633000000000  0.3878050000000  0.5248550000000 1.0
C      1  0.4292330000000  0.5288330000000  0.4234910000000 1.0
C      1  0.4639300000000  0.5173150000000  0.3581650000000 1.0
C      1  0.5003620000000  0.5458050000000  0.4390170000000 1.0
C      1  0.4364120000000  0.5361790000000  0.3976020000000 1.0
C      1  0.5226760000000  0.4434910000000  0.4904830000000 1.0
C      1  0.5544340000000  0.4932530000000  0.4667270000000 1.0
C      1  0.5725720000000  0.6004790000000  0.5806060000000 1.0
C      1  0.4381760000000  0.4405180000000  0.5190540000000 1.0
C      1  0.4791090000000  0.4964490000000  0.3518690000000 1.0
C      1  0.4634740000000  0.4480460000000  0.5296040000000 1.0
C      1  0.4672680000000  0.4953730000000  0.5454710000000 1.0
C      1  0.4285870000000  0.5012020000000  0.4311500000000 1.0
C      1  0.4392760000000  0.4197220000000  0.4994700000000 1.0
C      1  0.5638170000000  0.4914550000000  0.6216530000000 1.0
C      1  0.4929670000000  0.4721540000000  0.5945430000000 1.0
C      1  0.4973840000000  0.4319680000000  0.5678700000000 1.0
C      1  0.4504910000000  0.4263790000000  0.4741050000000 1.0
C      1  0.5047050000000  0.5318210000000  0.5605970000000 1.0
C      1  0.3776830000000  0.4750450000000  0.4904950000000 1.0
C      1  0.4280560000000  0.4811750000000  0.4117260000000 1.0
C      1  0.5700670000000  0.5278970000000  0.5747130000000 1.0
C      1  0.4993090000000  0.4201610000000  0.5435510000000 1.0
C      1  0.5819790000000  0.6249520000000  0.5843710000000 1.0
C      1  0.4694610000000  0.4673600000000  0.5501120000000 1.0
C      1  0.5681800000000  0.4572330000000  0.5489200000000 1.0
C      1  0.4073850000000  0.5594860000000  0.5175130000000 1.0
C      1  0.4296520000000  0.4619700000000  0.3935580000000 1.0
C      1  0.4390700000000  0.4241690000000  0.3577030000000 1.0
C      1  0.4283940000000  0.4947350000000  0.4589700000000 1.0
C      1  0.4449090000000  0.5087380000000  0.5033830000000 1.0
END
