TITL C-627106-156-898 0.00771345551115251 125000 -365.701667946699 0 0 62 (C1) n - 1
REM
REM in /home/nfs/bkarasulu/CARBON/AIRSS/Generating-Clusters/LCBOP/Only-C1/SD-CG/FIRE-CG
REM
REM
REM
REM
REM
REM ./C.cell (11c1c37f851c82e70ff6c80c92926a4b)
REM AIRSS Version 0.9.1 bugfix July 2018 build 013d7b7c2542+ Fri, 06 Jul 2018 19:26:36 +0100
REM compiler GCC version 9.2.1 20190827 (Red Hat 9.2.1-1)
REM options -cpp -mtune=generic -march=x86-64 -g -O0 -fpre-include=/usr/include/finclude/math-vector-fortran.h
REM seed -1085882271 1657436533 -1153486704 -549385709 -275965359 -760413237 -860922890 1777810213 -1473539012 1718086978 -260291139 961984038 573861382 -102269561 -1128322824 -1716457003 -1051334473 1563856308 -1559539989 -2080926882 414831912 1192115546 1614512910 2140745371 478991952 431323394 1113004733 867103735 -1269549287 595781081 -1686413953 -934827212 1353208418
REM
CELL 1.54180   50.00000   50.00000   50.00000   90.00000   90.00000   90.00000
LATT -1
SFAC C  
C      1  0.5068830000000  0.3789110000000  0.5083450000000 1.0
C      1  0.4774220000000  0.5473640000000  0.4464470000000 1.0
C      1  0.5550350000000  0.3937530000000  0.4664920000000 1.0
C      1  0.5282470000000  0.5422930000000  0.5780430000000 1.0
C      1  0.5130590000000  0.4545910000000  0.5132180000000 1.0
C      1  0.5064980000000  0.6093620000000  0.5769360000000 1.0
C      1  0.5393420000000  0.5127970000000  0.4647240000000 1.0
C      1  0.5351780000000  0.5288040000000  0.4883190000000 1.0
C      1  0.5037750000000  0.6104820000000  0.5499420000000 1.0
C      1  0.5131670000000  0.3539060000000  0.4941310000000 1.0
C      1  0.4267890000000  0.5337460000000  0.5171750000000 1.0
C      1  0.5138520000000  0.5047550000000  0.4494530000000 1.0
C      1  0.4252010000000  0.5611750000000  0.5104220000000 1.0
C      1  0.4829200000000  0.4905880000000  0.5395810000000 1.0
C      1  0.5110490000000  0.5226040000000  0.5012910000000 1.0
C      1  0.5074040000000  0.5852720000000  0.5894750000000 1.0
C      1  0.4518920000000  0.4669500000000  0.4473730000000 1.0
C      1  0.4709400000000  0.4788520000000  0.4606180000000 1.0
C      1  0.5032120000000  0.5768530000000  0.4810660000000 1.0
C      1  0.4951050000000  0.5626660000000  0.5485860000000 1.0
C      1  0.5757310000000  0.5430770000000  0.5212380000000 1.0
C      1  0.5627730000000  0.4636440000000  0.5055460000000 1.0
C      1  0.5051090000000  0.4374660000000  0.4911370000000 1.0
C      1  0.4201800000000  0.4899360000000  0.5036420000000 1.0
C      1  0.5213100000000  0.4362560000000  0.4669460000000 1.0
C      1  0.6010750000000  0.5515690000000  0.5156640000000 1.0
C      1  0.5561120000000  0.5418130000000  0.5012420000000 1.0
C      1  0.4573520000000  0.5862490000000  0.4779480000000 1.0
C      1  0.5199400000000  0.4545820000000  0.4452250000000 1.0
C      1  0.4670440000000  0.5352450000000  0.4924370000000 1.0
C      1  0.4246250000000  0.5161010000000  0.4923000000000 1.0
C      1  0.5393280000000  0.3502870000000  0.4850850000000 1.0
C      1  0.4398350000000  0.5154350000000  0.5376450000000 1.0
C      1  0.4819460000000  0.4211210000000  0.4946510000000 1.0
C      1  0.5705670000000  0.4775740000000  0.4840230000000 1.0
C      1  0.4934900000000  0.4924400000000  0.4697010000000 1.0
C      1  0.4519360000000  0.5337740000000  0.4493570000000 1.0
C      1  0.4891020000000  0.3500230000000  0.4782290000000 1.0
C      1  0.5616450000000  0.4954140000000  0.4660250000000 1.0
C      1  0.4833450000000  0.5398230000000  0.5367360000000 1.0
C      1  0.5080090000000  0.5612260000000  0.5743840000000 1.0
C      1  0.5012970000000  0.4962910000000  0.4962970000000 1.0
C      1  0.4682510000000  0.5157930000000  0.5439160000000 1.0
C      1  0.5558840000000  0.3679740000000  0.4734920000000 1.0
C      1  0.4847450000000  0.3932840000000  0.4958270000000 1.0
C      1  0.4572630000000  0.4324820000000  0.4979520000000 1.0
C      1  0.5199730000000  0.4794870000000  0.4341440000000 1.0
C      1  0.4713590000000  0.6040250000000  0.4964480000000 1.0
C      1  0.5408360000000  0.4552550000000  0.5185590000000 1.0
C      1  0.4335220000000  0.5761620000000  0.4894070000000 1.0
C      1  0.4960610000000  0.5917540000000  0.5053610000000 1.0
C      1  0.5510910000000  0.5337860000000  0.5672830000000 1.0
C      1  0.4797880000000  0.5710090000000  0.4635160000000 1.0
C      1  0.4891040000000  0.5379520000000  0.5090440000000 1.0
C      1  0.4281670000000  0.4895460000000  0.5302080000000 1.0
C      1  0.5413750000000  0.4165510000000  0.4653440000000 1.0
C      1  0.4731450000000  0.3727920000000  0.4787180000000 1.0
C      1  0.4992770000000  0.5297980000000  0.4393610000000 1.0
C      1  0.5683830000000  0.5352180000000  0.5471320000000 1.0
C      1  0.4991730000000  0.5876970000000  0.5333100000000 1.0
C      1  0.4980300000000  0.4786430000000  0.5180980000000 1.0
C      1  0.4458540000000  0.5257240000000  0.4757850000000 1.0
END
