TITL C-627110-360-1554 -5.59981850913726e-07 125000 -507.303668006149 0 0 83 (C1) n - 1
REM
REM in /home/nfs/bkarasulu/CARBON/AIRSS/Generating-Clusters/LCBOP/Only-C1/SD-CG/FIRE-CG
REM
REM
REM
REM
REM
REM ./C.cell (11c1c37f851c82e70ff6c80c92926a4b)
REM AIRSS Version 0.9.1 bugfix July 2018 build 013d7b7c2542+ Fri, 06 Jul 2018 19:26:36 +0100
REM compiler GCC version 9.2.1 20190827 (Red Hat 9.2.1-1)
REM options -cpp -mtune=generic -march=x86-64 -g -O0 -fpre-include=/usr/include/finclude/math-vector-fortran.h
REM seed 344382831 258263495 -652321779 556554331 1545264977 -104026031 -2017563760 1765193016 -459163679 -707784933 -164616237 917773416 920287043 794367682 -1532495838 925216556 1914686478 1780152301 -374794349 1003124738 -1209749671 2017793704 -1775369258 1359413335 -1194688271 1851129006 -60261487 1271971325 636630679 714762322 -313489769 -956291357 311860235
REM
CELL 1.54180   50.00000   50.00000   50.00000   90.00000   90.00000   90.00000
LATT -1
SFAC C  
C      1  0.5060180000000  0.5341310000000  0.5538190000000 1.0
C      1  0.4533640000000  0.4976440000000  0.4585780000000 1.0
C      1  0.4272410000000  0.4662020000000  0.5501410000000 1.0
C      1  0.5547700000000  0.4935960000000  0.5872250000000 1.0
C      1  0.4925050000000  0.4392890000000  0.5396170000000 1.0
C      1  0.4639160000000  0.4356490000000  0.5388570000000 1.0
C      1  0.5301160000000  0.4269280000000  0.4760820000000 1.0
C      1  0.4507990000000  0.4519900000000  0.5595550000000 1.0
C      1  0.4517140000000  0.4387710000000  0.5138760000000 1.0
C      1  0.4438080000000  0.5458710000000  0.4586450000000 1.0
C      1  0.4810170000000  0.5807980000000  0.4603580000000 1.0
C      1  0.5513660000000  0.5591180000000  0.5290090000000 1.0
C      1  0.4126450000000  0.5029590000000  0.5133710000000 1.0
C      1  0.4328950000000  0.4620570000000  0.4755550000000 1.0
C      1  0.5159470000000  0.4484620000000  0.4302530000000 1.0
C      1  0.5423220000000  0.5579530000000  0.5735490000000 1.0
C      1  0.4848080000000  0.5212470000000  0.4383250000000 1.0
C      1  0.5201310000000  0.4909930000000  0.4983080000000 1.0
C      1  0.4938580000000  0.5605730000000  0.5432510000000 1.0
C      1  0.4673530000000  0.4530900000000  0.4374600000000 1.0
C      1  0.5495510000000  0.5249780000000  0.4284780000000 1.0
C      1  0.5459300000000  0.5031260000000  0.4458440000000 1.0
C      1  0.4876000000000  0.4085530000000  0.4884160000000 1.0
C      1  0.4246060000000  0.5353070000000  0.4784670000000 1.0
C      1  0.5883640000000  0.5158580000000  0.4988570000000 1.0
C      1  0.4918440000000  0.5295890000000  0.4888740000000 1.0
C      1  0.5585960000000  0.4591840000000  0.4599150000000 1.0
C      1  0.5321580000000  0.5317780000000  0.5679160000000 1.0
C      1  0.5197180000000  0.4704140000000  0.5180520000000 1.0
C      1  0.4547290000000  0.5130950000000  0.5575300000000 1.0
C      1  0.5282860000000  0.4213690000000  0.3850250000000 1.0
C      1  0.4683670000000  0.4834210000000  0.5935590000000 1.0
C      1  0.4362740000000  0.5331100000000  0.5499680000000 1.0
C      1  0.5779110000000  0.5500370000000  0.5316970000000 1.0
C      1  0.4709440000000  0.5019340000000  0.5359130000000 1.0
C      1  0.5083300000000  0.4436560000000  0.5158520000000 1.0
C      1  0.4592170000000  0.5070330000000  0.5845510000000 1.0
C      1  0.5024540000000  0.5640750000000  0.4527970000000 1.0
C      1  0.5121370000000  0.4817100000000  0.5444220000000 1.0
C      1  0.5463630000000  0.5534990000000  0.4847060000000 1.0
C      1  0.4640470000000  0.4887030000000  0.5061140000000 1.0
C      1  0.4672070000000  0.5669360000000  0.5321000000000 1.0
C      1  0.5335140000000  0.4449960000000  0.4529480000000 1.0
C      1  0.4766620000000  0.4862360000000  0.4758200000000 1.0
C      1  0.5060550000000  0.4866060000000  0.4744250000000 1.0
C      1  0.5642300000000  0.4012370000000  0.5030770000000 1.0
C      1  0.5007010000000  0.5099630000000  0.5372770000000 1.0
C      1  0.5790580000000  0.4933700000000  0.4847500000000 1.0
C      1  0.5716180000000  0.4768800000000  0.5299020000000 1.0
C      1  0.4270310000000  0.4889640000000  0.4672890000000 1.0
C      1  0.5764640000000  0.4697690000000  0.5026320000000 1.0
C      1  0.4970920000000  0.5369270000000  0.4604720000000 1.0
C      1  0.4581520000000  0.5697000000000  0.4734080000000 1.0
C      1  0.4974000000000  0.4952190000000  0.4312980000000 1.0
C      1  0.5290140000000  0.5678270000000  0.4433500000000 1.0
C      1  0.4216680000000  0.4771450000000  0.5236580000000 1.0
C      1  0.4975860000000  0.4613030000000  0.5595820000000 1.0
C      1  0.5649610000000  0.4876190000000  0.4598330000000 1.0
C      1  0.5222690000000  0.4344020000000  0.4067740000000 1.0
C      1  0.5396040000000  0.5743540000000  0.5500670000000 1.0
C      1  0.5691980000000  0.4479050000000  0.4856100000000 1.0
C      1  0.4425550000000  0.4653070000000  0.5043570000000 1.0
C      1  0.5516080000000  0.5097350000000  0.5649010000000 1.0
C      1  0.5467760000000  0.5714570000000  0.4648800000000 1.0
C      1  0.5193260000000  0.4947780000000  0.4504580000000 1.0
C      1  0.5556120000000  0.4232130000000  0.4898400000000 1.0
C      1  0.4464010000000  0.5598060000000  0.5511350000000 1.0
C      1  0.4665270000000  0.5225040000000  0.4977600000000 1.0
C      1  0.5688030000000  0.5030920000000  0.5418390000000 1.0
C      1  0.5128700000000  0.5820600000000  0.5450440000000 1.0
C      1  0.5827680000000  0.5230730000000  0.5259560000000 1.0
C      1  0.5076020000000  0.4265520000000  0.4931220000000 1.0
C      1  0.5144530000000  0.5194650000000  0.5090890000000 1.0
C      1  0.4559380000000  0.5666190000000  0.5036870000000 1.0
C      1  0.4417650000000  0.5392490000000  0.5038250000000 1.0
C      1  0.4569490000000  0.5229590000000  0.4450570000000 1.0
C      1  0.5394340000000  0.5497000000000  0.4240830000000 1.0
C      1  0.4918220000000  0.4656750000000  0.4292710000000 1.0
C      1  0.4478070000000  0.4476860000000  0.4556650000000 1.0
C      1  0.5362550000000  0.5436810000000  0.5091750000000 1.0
C      1  0.4136990000000  0.5083140000000  0.4834880000000 1.0
C      1  0.4731520000000  0.4629490000000  0.5751960000000 1.0
C      1  0.4243740000000  0.5270190000000  0.5251140000000 1.0
END
