TITL C-627112-676-696 -0.00212917801306347 125000 -528.568526787305 0 0 87 (C1) n - 1
REM
REM in /home/nfs/bkarasulu/CARBON/AIRSS/Generating-Clusters/LCBOP/Only-C1/SD-CG/FIRE-CG
REM
REM
REM
REM
REM
REM ./C.cell (11c1c37f851c82e70ff6c80c92926a4b)
REM AIRSS Version 0.9.1 bugfix July 2018 build 013d7b7c2542+ Fri, 06 Jul 2018 19:26:36 +0100
REM compiler GCC version 9.2.1 20190827 (Red Hat 9.2.1-1)
REM options -cpp -mtune=generic -march=x86-64 -g -O0 -fpre-include=/usr/include/finclude/math-vector-fortran.h
REM seed -139059856 813157975 1684843491 -891007257 -1409372200 1516883506 1750184362 210212984 -105343924 58262986 1273215532 1120577628 -55583491 -1266397385 392775117 294584372 893876237 -25416742 461795119 -1281089162 972704316 -844497554 -549137770 -12658273 798424898 882667440 266936243 1577150441 -419115481 896230029 -1089133061 290510660 1904287850
REM
CELL 1.54180   50.00000   50.00000   50.00000   90.00000   90.00000   90.00000
LATT -1
SFAC C  
C      1  0.4583920000000  0.4929530000000  0.4790680000000 1.0
C      1  0.4621300000000  0.4108610000000  0.5550080000000 1.0
C      1  0.5229010000000  0.4982730000000  0.4889510000000 1.0
C      1  0.4097900000000  0.4518030000000  0.4640000000000 1.0
C      1  0.4996710000000  0.4843320000000  0.4546000000000 1.0
C      1  0.5704640000000  0.5237380000000  0.4456370000000 1.0
C      1  0.4770740000000  0.5851890000000  0.5092940000000 1.0
C      1  0.5002470000000  0.4969130000000  0.5546390000000 1.0
C      1  0.5510520000000  0.4671110000000  0.4499800000000 1.0
C      1  0.4826550000000  0.5044520000000  0.4681830000000 1.0
C      1  0.5247920000000  0.5201930000000  0.4603630000000 1.0
C      1  0.5660720000000  0.4601530000000  0.4731420000000 1.0
C      1  0.4196720000000  0.5067560000000  0.5049780000000 1.0
C      1  0.4343520000000  0.4901750000000  0.5487650000000 1.0
C      1  0.5528370000000  0.4907040000000  0.5725090000000 1.0
C      1  0.5110200000000  0.4946100000000  0.6259840000000 1.0
C      1  0.4409820000000  0.4053670000000  0.5378590000000 1.0
C      1  0.4136810000000  0.4651610000000  0.4411890000000 1.0
C      1  0.5436870000000  0.5144420000000  0.4403700000000 1.0
C      1  0.4308940000000  0.5725620000000  0.5066930000000 1.0
C      1  0.5924890000000  0.5340380000000  0.5799160000000 1.0
C      1  0.4167100000000  0.4488210000000  0.4897760000000 1.0
C      1  0.4785670000000  0.5468290000000  0.5416270000000 1.0
C      1  0.4558690000000  0.5336340000000  0.5543460000000 1.0
C      1  0.5213750000000  0.4682660000000  0.4436440000000 1.0
C      1  0.5421330000000  0.5646810000000  0.4564830000000 1.0
C      1  0.4396300000000  0.5348840000000  0.4673040000000 1.0
C      1  0.5847790000000  0.5255030000000  0.5551670000000 1.0
C      1  0.4774830000000  0.4352680000000  0.5542020000000 1.0
C      1  0.5211000000000  0.4669360000000  0.4138250000000 1.0
C      1  0.5301570000000  0.4265170000000  0.5990500000000 1.0
C      1  0.5386550000000  0.4744270000000  0.5907620000000 1.0
C      1  0.5185660000000  0.5481180000000  0.4515290000000 1.0
C      1  0.5662440000000  0.5436990000000  0.4911280000000 1.0
C      1  0.4216230000000  0.5625250000000  0.5299330000000 1.0
C      1  0.4886910000000  0.4439130000000  0.5796120000000 1.0
C      1  0.5835940000000  0.4997890000000  0.5044810000000 1.0
C      1  0.5435940000000  0.4843450000000  0.4071000000000 1.0
C      1  0.4546780000000  0.5051890000000  0.5620280000000 1.0
C      1  0.5079750000000  0.5413320000000  0.4998800000000 1.0
C      1  0.5357600000000  0.5117760000000  0.4124450000000 1.0
C      1  0.5406110000000  0.5096930000000  0.5081640000000 1.0
C      1  0.5129470000000  0.4806250000000  0.6025400000000 1.0
C      1  0.5660270000000  0.5480180000000  0.4625900000000 1.0
C      1  0.5075930000000  0.5487430000000  0.4249260000000 1.0
C      1  0.4894240000000  0.3980390000000  0.5935180000000 1.0
C      1  0.4564360000000  0.5721880000000  0.4941340000000 1.0
C      1  0.4993420000000  0.5046460000000  0.5286050000000 1.0
C      1  0.5947060000000  0.5375110000000  0.5310850000000 1.0
C      1  0.4891950000000  0.4711970000000  0.5886290000000 1.0
C      1  0.5638620000000  0.4350460000000  0.4838270000000 1.0
C      1  0.4279740000000  0.5356610000000  0.4414550000000 1.0
C      1  0.4867770000000  0.5334940000000  0.4787400000000 1.0
C      1  0.4782000000000  0.4914740000000  0.5713720000000 1.0
C      1  0.5660450000000  0.5037130000000  0.5511640000000 1.0
C      1  0.4845760000000  0.4644470000000  0.5079220000000 1.0
C      1  0.5386170000000  0.5385050000000  0.5020430000000 1.0
C      1  0.4596800000000  0.4693990000000  0.4952450000000 1.0
C      1  0.4246930000000  0.4848290000000  0.5227930000000 1.0
C      1  0.5832900000000  0.4792800000000  0.4853530000000 1.0
C      1  0.4702510000000  0.3926090000000  0.5751570000000 1.0
C      1  0.5028600000000  0.4228620000000  0.5937920000000 1.0
C      1  0.4710690000000  0.4652840000000  0.3986450000000 1.0
C      1  0.5167940000000  0.5315520000000  0.4055400000000 1.0
C      1  0.4471230000000  0.4733480000000  0.4070130000000 1.0
C      1  0.5612150000000  0.4980480000000  0.5235370000000 1.0
C      1  0.5464540000000  0.4476610000000  0.5955080000000 1.0
C      1  0.4210880000000  0.3960260000000  0.5238490000000 1.0
C      1  0.4343010000000  0.4626230000000  0.5069200000000 1.0
C      1  0.4622810000000  0.5500420000000  0.4768060000000 1.0
C      1  0.5369990000000  0.5904100000000  0.4664770000000 1.0
C      1  0.5662880000000  0.4795190000000  0.4271210000000 1.0
C      1  0.5189050000000  0.6026010000000  0.4820230000000 1.0
C      1  0.4313090000000  0.5473440000000  0.5499810000000 1.0
C      1  0.4275100000000  0.4831620000000  0.4245320000000 1.0
C      1  0.4201920000000  0.5591540000000  0.4299460000000 1.0
C      1  0.5852660000000  0.5013490000000  0.4342240000000 1.0
C      1  0.4970330000000  0.6006010000000  0.4972220000000 1.0
C      1  0.4246730000000  0.5109280000000  0.4282320000000 1.0
C      1  0.5876810000000  0.5290630000000  0.5046440000000 1.0
C      1  0.6121580000000  0.5004810000000  0.4302130000000 1.0
C      1  0.4974660000000  0.4618650000000  0.4000890000000 1.0
C      1  0.4852270000000  0.4463740000000  0.5295190000000 1.0
C      1  0.5026700000000  0.4864660000000  0.5066080000000 1.0
C      1  0.4956420000000  0.5320630000000  0.5246550000000 1.0
C      1  0.4362460000000  0.5110970000000  0.4824090000000 1.0
C      1  0.4792650000000  0.5747210000000  0.5357830000000 1.0
END
