TITL C-627109-622-951 0.114993185406088 125000 -511.49465748176 0 0 85 (C1) n - 1
REM
REM in /home/nfs/bkarasulu/CARBON/AIRSS/Generating-Clusters/LCBOP/Only-C1/SD-CG/FIRE-CG
REM
REM
REM
REM
REM
REM ./C.cell (11c1c37f851c82e70ff6c80c92926a4b)
REM AIRSS Version 0.9.1 bugfix July 2018 build 013d7b7c2542+ Fri, 06 Jul 2018 19:26:36 +0100
REM compiler GCC version 9.2.1 20190827 (Red Hat 9.2.1-1)
REM options -cpp -mtune=generic -march=x86-64 -g -O0 -fpre-include=/usr/include/finclude/math-vector-fortran.h
REM seed 1646352024 -185308193 -1376668170 -1754384771 -237359559 -1158618080 1594170063 2031956070 682853111 1164015660 1307943043 -1120921699 -200125640 -445180103 -250919804 275726892 1965877000 -994393756 -1295908974 -1536579279 13109806 -800245097 824438 1847371745 -937211401 2000149584 -746517882 1653935294 -383874584 -522997091 971616368 252537034 -1202012388
REM
CELL 1.54180   50.00000   50.00000   50.00000   90.00000   90.00000   90.00000
LATT -1
SFAC C  
C      1  0.4937880000000  0.5415990000000  0.5572720000000 1.0
C      1  0.5662700000000  0.5710100000000  0.5056240000000 1.0
C      1  0.4398550000000  0.4500220000000  0.6215130000000 1.0
C      1  0.4713460000000  0.5278260000000  0.5627840000000 1.0
C      1  0.4398730000000  0.4836690000000  0.5536900000000 1.0
C      1  0.5424690000000  0.5445980000000  0.5552200000000 1.0
C      1  0.4330090000000  0.4759680000000  0.5253170000000 1.0
C      1  0.4193930000000  0.5463460000000  0.5250340000000 1.0
C      1  0.4628890000000  0.5756200000000  0.5194850000000 1.0
C      1  0.5547310000000  0.5081450000000  0.4965590000000 1.0
C      1  0.5565300000000  0.4855280000000  0.3763240000000 1.0
C      1  0.5213050000000  0.5472570000000  0.3934040000000 1.0
C      1  0.5125340000000  0.4494890000000  0.6389750000000 1.0
C      1  0.5658760000000  0.5141650000000  0.5887670000000 1.0
C      1  0.5877880000000  0.4702180000000  0.5377060000000 1.0
C      1  0.5154690000000  0.4794390000000  0.5481570000000 1.0
C      1  0.4581090000000  0.4921120000000  0.4012800000000 1.0
C      1  0.5172520000000  0.5471290000000  0.5422280000000 1.0
C      1  0.4864710000000  0.4465240000000  0.6433410000000 1.0
C      1  0.4764130000000  0.4599470000000  0.5749050000000 1.0
C      1  0.5530280000000  0.4663360000000  0.4553930000000 1.0
C      1  0.5817060000000  0.4677010000000  0.6010170000000 1.0
C      1  0.4996730000000  0.4840250000000  0.5255580000000 1.0
C      1  0.5506750000000  0.5022310000000  0.5221380000000 1.0
C      1  0.4594030000000  0.5392920000000  0.4708130000000 1.0
C      1  0.5964790000000  0.5367730000000  0.5281360000000 1.0
C      1  0.5176370000000  0.4476800000000  0.4249590000000 1.0
C      1  0.5181550000000  0.5415890000000  0.4416760000000 1.0
C      1  0.5404600000000  0.4907360000000  0.5442610000000 1.0
C      1  0.4816350000000  0.5313960000000  0.4851830000000 1.0
C      1  0.4336700000000  0.4571580000000  0.5964580000000 1.0
C      1  0.4128900000000  0.4609100000000  0.4841530000000 1.0
C      1  0.5019200000000  0.4702630000000  0.4999940000000 1.0
C      1  0.5455810000000  0.5126600000000  0.4705080000000 1.0
C      1  0.5878940000000  0.5570080000000  0.5128070000000 1.0
C      1  0.5250410000000  0.4543180000000  0.4978960000000 1.0
C      1  0.3976110000000  0.5118730000000  0.4574300000000 1.0
C      1  0.4745090000000  0.4957640000000  0.5285790000000 1.0
C      1  0.5516750000000  0.4940680000000  0.4498890000000 1.0
C      1  0.4992380000000  0.4673360000000  0.3842490000000 1.0
C      1  0.5207780000000  0.4648050000000  0.4020470000000 1.0
C      1  0.5144090000000  0.5582080000000  0.5132190000000 1.0
C      1  0.4754300000000  0.4766230000000  0.4877410000000 1.0
C      1  0.4748160000000  0.4780580000000  0.3835330000000 1.0
C      1  0.4773700000000  0.5423580000000  0.4140870000000 1.0
C      1  0.4246210000000  0.4551860000000  0.4605560000000 1.0
C      1  0.4922170000000  0.4380050000000  0.4322080000000 1.0
C      1  0.5388530000000  0.4467430000000  0.4434920000000 1.0
C      1  0.6051710000000  0.4540850000000  0.6045630000000 1.0
C      1  0.4576820000000  0.4798180000000  0.5107000000000 1.0
C      1  0.4638260000000  0.5194770000000  0.4047690000000 1.0
C      1  0.5495750000000  0.4990380000000  0.4222140000000 1.0
C      1  0.5396060000000  0.5728630000000  0.5064520000000 1.0
C      1  0.4482410000000  0.4652190000000  0.5739790000000 1.0
C      1  0.5019070000000  0.4663060000000  0.5689650000000 1.0
C      1  0.5424990000000  0.4834070000000  0.3997130000000 1.0
C      1  0.5805010000000  0.4897340000000  0.5836180000000 1.0
C      1  0.4892970000000  0.5756180000000  0.5150900000000 1.0
C      1  0.5866480000000  0.5203850000000  0.5485420000000 1.0
C      1  0.4560660000000  0.5615560000000  0.4542940000000 1.0
C      1  0.5586300000000  0.4598790000000  0.6149520000000 1.0
C      1  0.5497670000000  0.4492690000000  0.5077540000000 1.0
C      1  0.4495650000000  0.5135270000000  0.4608780000000 1.0
C      1  0.5255030000000  0.5326720000000  0.4674390000000 1.0
C      1  0.4107110000000  0.4769990000000  0.5078100000000 1.0
C      1  0.5903590000000  0.4919110000000  0.5558250000000 1.0
C      1  0.5058630000000  0.5434020000000  0.4163330000000 1.0
C      1  0.4597680000000  0.5054960000000  0.5508020000000 1.0
C      1  0.3967450000000  0.5020970000000  0.5057670000000 1.0
C      1  0.5080180000000  0.5387450000000  0.4896620000000 1.0
C      1  0.5364960000000  0.4541630000000  0.6284740000000 1.0
C      1  0.4629120000000  0.5621200000000  0.4282180000000 1.0
C      1  0.4430810000000  0.4564790000000  0.4390570000000 1.0
C      1  0.4423710000000  0.4765410000000  0.4189310000000 1.0
C      1  0.4701270000000  0.4963650000000  0.4688240000000 1.0
C      1  0.5490230000000  0.5540280000000  0.3492670000000 1.0
C      1  0.5650400000000  0.5315000000000  0.5656520000000 1.0
C      1  0.4046920000000  0.5243850000000  0.5211160000000 1.0
C      1  0.4389220000000  0.5644810000000  0.5234130000000 1.0
C      1  0.4236010000000  0.5122420000000  0.4510840000000 1.0
C      1  0.3848170000000  0.5076440000000  0.4807210000000 1.0
C      1  0.5351920000000  0.5509830000000  0.3711540000000 1.0
C      1  0.4663870000000  0.4404820000000  0.4386400000000 1.0
C      1  0.5722950000000  0.4550030000000  0.5215600000000 1.0
C      1  0.4603500000000  0.4463710000000  0.6382030000000 1.0
END
