TITL C-627113-6568-1334 -5.40343548742451e-07 125000 -708.824338408202 0 0 117 (C1) n - 1
REM
REM in /home/nfs/bkarasulu/CARBON/AIRSS/Generating-Clusters/LCBOP/Only-C1/SD-CG/FIRE-CG
REM
REM
REM
REM
REM
REM ./C.cell (11c1c37f851c82e70ff6c80c92926a4b)
REM AIRSS Version 0.9.1 bugfix July 2018 build 013d7b7c2542+ Fri, 06 Jul 2018 19:26:36 +0100
REM compiler GCC version 9.2.1 20190827 (Red Hat 9.2.1-1)
REM options -cpp -mtune=generic -march=x86-64 -g -O0 -fpre-include=/usr/include/finclude/math-vector-fortran.h
REM seed -1429127192 1253319565 -559927675 1319264053 -1696760915 -488751403 1494068518 337789312 1298172459 1543424138 -865190210 1459791676 1406148725 -1448486026 -466543968 -65428956 -801177693 1518080106 -23032247 -574206588 -1928951375 193254377 -371832005 1675693803 -643072954 1251453131 -1596881014 -1597599761 752280891 -1328881867 300412110 457716247 224395155
REM
CELL 1.54180   50.00000   50.00000   50.00000   90.00000   90.00000   90.00000
LATT -1
SFAC C  
C      1  0.5634550000000  0.5931580000000  0.4737710000000 1.0
C      1  0.5274120000000  0.4150960000000  0.4349210000000 1.0
C      1  0.4667340000000  0.4831780000000  0.5395330000000 1.0
C      1  0.5400100000000  0.4197740000000  0.4810210000000 1.0
C      1  0.4651930000000  0.4750470000000  0.4320200000000 1.0
C      1  0.5015480000000  0.4695890000000  0.5092630000000 1.0
C      1  0.4746500000000  0.4860670000000  0.5927590000000 1.0
C      1  0.5926220000000  0.4831430000000  0.4967990000000 1.0
C      1  0.5714280000000  0.5463130000000  0.5664650000000 1.0
C      1  0.5949230000000  0.4341490000000  0.5087570000000 1.0
C      1  0.5244040000000  0.5893250000000  0.4431050000000 1.0
C      1  0.5543060000000  0.5861900000000  0.5348380000000 1.0
C      1  0.5486320000000  0.4990160000000  0.4394000000000 1.0
C      1  0.4024910000000  0.4748260000000  0.5295210000000 1.0
C      1  0.3999550000000  0.5103800000000  0.4892290000000 1.0
C      1  0.4469650000000  0.4682260000000  0.4756200000000 1.0
C      1  0.5398700000000  0.4940020000000  0.5302720000000 1.0
C      1  0.5306480000000  0.4993160000000  0.5856290000000 1.0
C      1  0.5334170000000  0.5404530000000  0.5195100000000 1.0
C      1  0.4780640000000  0.4492150000000  0.5064680000000 1.0
C      1  0.5255010000000  0.5292200000000  0.5820230000000 1.0
C      1  0.5797820000000  0.5296150000000  0.4985800000000 1.0
C      1  0.4410350000000  0.4793580000000  0.5007420000000 1.0
C      1  0.5516700000000  0.5257650000000  0.5023550000000 1.0
C      1  0.5574040000000  0.4048720000000  0.4976800000000 1.0
C      1  0.4381200000000  0.3856130000000  0.4991280000000 1.0
C      1  0.5658850000000  0.5414260000000  0.4418710000000 1.0
C      1  0.5399840000000  0.5449610000000  0.4271300000000 1.0
C      1  0.4567790000000  0.5938100000000  0.4951140000000 1.0
C      1  0.4561970000000  0.5570700000000  0.5702320000000 1.0
C      1  0.5228640000000  0.4399510000000  0.4254700000000 1.0
C      1  0.5300750000000  0.4383310000000  0.5376530000000 1.0
C      1  0.5860810000000  0.5078810000000  0.4792910000000 1.0
C      1  0.4632620000000  0.5194890000000  0.4902260000000 1.0
C      1  0.4091290000000  0.5180810000000  0.4605380000000 1.0
C      1  0.5087560000000  0.4804540000000  0.5878320000000 1.0
C      1  0.5880440000000  0.6007160000000  0.4779390000000 1.0
C      1  0.4414220000000  0.5079820000000  0.5030830000000 1.0
C      1  0.5562580000000  0.4900100000000  0.5748220000000 1.0
C      1  0.5032940000000  0.5127480000000  0.4227950000000 1.0
C      1  0.5191350000000  0.5658040000000  0.4272640000000 1.0
C      1  0.5138880000000  0.5022620000000  0.5386320000000 1.0
C      1  0.4837510000000  0.4279510000000  0.5295790000000 1.0
C      1  0.5713380000000  0.5137400000000  0.4525820000000 1.0
C      1  0.4840050000000  0.5994820000000  0.4916960000000 1.0
C      1  0.4687700000000  0.5826810000000  0.5678570000000 1.0
C      1  0.4850780000000  0.5064670000000  0.4022250000000 1.0
C      1  0.4218470000000  0.5671090000000  0.4678340000000 1.0
C      1  0.4234420000000  0.4998150000000  0.4423030000000 1.0
C      1  0.5114570000000  0.5143400000000  0.4695760000000 1.0
C      1  0.4175610000000  0.4646570000000  0.5507930000000 1.0
C      1  0.6369800000000  0.4169180000000  0.4800630000000 1.0
C      1  0.5380250000000  0.5839970000000  0.4677060000000 1.0
C      1  0.3927010000000  0.4598050000000  0.4835250000000 1.0
C      1  0.4203130000000  0.5400600000000  0.5316140000000 1.0
C      1  0.5723690000000  0.4180840000000  0.5177220000000 1.0
C      1  0.4633750000000  0.5092430000000  0.5808580000000 1.0
C      1  0.5724360000000  0.4665070000000  0.5720010000000 1.0
C      1  0.4217980000000  0.4184730000000  0.4681250000000 1.0
C      1  0.4937480000000  0.4505830000000  0.5727670000000 1.0
C      1  0.5184360000000  0.5413720000000  0.4767480000000 1.0
C      1  0.4899890000000  0.5502220000000  0.5359030000000 1.0
C      1  0.5582440000000  0.4325530000000  0.5393470000000 1.0
C      1  0.4397750000000  0.5408990000000  0.4281200000000 1.0
C      1  0.4500340000000  0.3882720000000  0.5229660000000 1.0
C      1  0.4955890000000  0.3995880000000  0.4671570000000 1.0
C      1  0.5763250000000  0.4557810000000  0.5454180000000 1.0
C      1  0.4180560000000  0.5226780000000  0.5092540000000 1.0
C      1  0.5054070000000  0.5762520000000  0.5343950000000 1.0
C      1  0.5902010000000  0.5446410000000  0.5469450000000 1.0
C      1  0.4944870000000  0.4825890000000  0.5360960000000 1.0
C      1  0.4908840000000  0.5613340000000  0.4213850000000 1.0
C      1  0.4854640000000  0.4602370000000  0.4488050000000 1.0
C      1  0.4917520000000  0.5137200000000  0.4491530000000 1.0
C      1  0.5243580000000  0.4512450000000  0.5126870000000 1.0
C      1  0.4911680000000  0.6146240000000  0.4687200000000 1.0
C      1  0.5055390000000  0.6102400000000  0.4461920000000 1.0
C      1  0.5356740000000  0.4778420000000  0.4529640000000 1.0
C      1  0.5051960000000  0.5276080000000  0.5258010000000 1.0
C      1  0.5220440000000  0.4083350000000  0.4619110000000 1.0
C      1  0.5042870000000  0.5830390000000  0.5040200000000 1.0
C      1  0.4604460000000  0.4951840000000  0.4106940000000 1.0
C      1  0.5908990000000  0.4619620000000  0.5183400000000 1.0
C      1  0.4995440000000  0.5389290000000  0.5894110000000 1.0
C      1  0.4721810000000  0.4522010000000  0.4753990000000 1.0
C      1  0.4687300000000  0.3994610000000  0.4653940000000 1.0
C      1  0.4476110000000  0.4874530000000  0.4541870000000 1.0
C      1  0.5437720000000  0.4744780000000  0.4803360000000 1.0
C      1  0.4642470000000  0.5554910000000  0.4234810000000 1.0
C      1  0.5029750000000  0.4966060000000  0.4913380000000 1.0
C      1  0.4683560000000  0.4049290000000  0.5327910000000 1.0
C      1  0.5939110000000  0.5400100000000  0.5205760000000 1.0
C      1  0.4342980000000  0.5504940000000  0.5525290000000 1.0
C      1  0.4657100000000  0.4593100000000  0.5798160000000 1.0
C      1  0.5139550000000  0.4613770000000  0.4418690000000 1.0
C      1  0.5214500000000  0.5685310000000  0.4850870000000 1.0
C      1  0.4867120000000  0.5165730000000  0.5051850000000 1.0
C      1  0.5594710000000  0.5009600000000  0.5487090000000 1.0
C      1  0.4421080000000  0.4001370000000  0.4752230000000 1.0
C      1  0.5388490000000  0.4473650000000  0.4891400000000 1.0
C      1  0.4540710000000  0.5024710000000  0.5551250000000 1.0
C      1  0.4035410000000  0.4376300000000  0.4728220000000 1.0
C      1  0.4903350000000  0.5924340000000  0.5541490000000 1.0
C      1  0.3945790000000  0.4823030000000  0.5012420000000 1.0
C      1  0.5341350000000  0.5644120000000  0.5404340000000 1.0
C      1  0.4372740000000  0.5128810000000  0.4183490000000 1.0
C      1  0.4658110000000  0.5115100000000  0.4621620000000 1.0
C      1  0.5425540000000  0.5480110000000  0.5662800000000 1.0
C      1  0.4555280000000  0.4660290000000  0.5201740000000 1.0
C      1  0.5314130000000  0.5171000000000  0.4234110000000 1.0
C      1  0.4346890000000  0.5832130000000  0.4846840000000 1.0
C      1  0.4717840000000  0.5362190000000  0.5836750000000 1.0
C      1  0.4209990000000  0.5444340000000  0.4514720000000 1.0
C      1  0.5037320000000  0.4357800000000  0.5502480000000 1.0
C      1  0.5457080000000  0.4965820000000  0.5020810000000 1.0
C      1  0.6167460000000  0.4252010000000  0.4942410000000 1.0
C      1  0.4386800000000  0.4574770000000  0.5678330000000 1.0
END
