TITL C-627108-131-604 0.0622992180430323 125000 -184.574509762934 0 0 32 (C1) n - 1
REM
REM in /home/nfs/bkarasulu/CARBON/AIRSS/Generating-Clusters/LCBOP/Only-C1/SD-CG/FIRE-CG
REM
REM
REM
REM
REM
REM ./C.cell (11c1c37f851c82e70ff6c80c92926a4b)
REM AIRSS Version 0.9.1 bugfix July 2018 build 013d7b7c2542+ Fri, 06 Jul 2018 19:26:36 +0100
REM compiler GCC version 9.2.1 20190827 (Red Hat 9.2.1-1)
REM options -cpp -mtune=generic -march=x86-64 -g -O0 -fpre-include=/usr/include/finclude/math-vector-fortran.h
REM seed -1642811699 -1766428538 -1283143022 -1260552679 171896505 -700557688 -705628415 649521508 -1932608613 1508349441 -1955968913 -972206658 -2074827363 1978229080 1377144895 2017378825 -355030804 -1415394683 -1368789259 1530743182 526973841 -2075940353 -335920510 -1930616791 826607858 1211852393 -441360744 548530190 -402817440 1880088489 -460447129 -1664186880 -1883164416
REM
CELL 1.54180   50.00000   50.00000   50.00000   90.00000   90.00000   90.00000
LATT -1
SFAC C  
C      1  0.5640450000000  0.4928440000000  0.4443040000000 1.0
C      1  0.4632960000000  0.4103970000000  0.6148780000000 1.0
C      1  0.5524550000000  0.5384770000000  0.4240290000000 1.0
C      1  0.4598730000000  0.3879500000000  0.6285550000000 1.0
C      1  0.4766800000000  0.5476200000000  0.4725560000000 1.0
C      1  0.5012850000000  0.5044270000000  0.4138220000000 1.0
C      1  0.4667180000000  0.4328370000000  0.6012050000000 1.0
C      1  0.5258250000000  0.5465480000000  0.4188410000000 1.0
C      1  0.5448220000000  0.4797550000000  0.4584650000000 1.0
C      1  0.4565070000000  0.3658740000000  0.6420060000000 1.0
C      1  0.5275880000000  0.5198600000000  0.4745770000000 1.0
C      1  0.4994830000000  0.4361510000000  0.5104210000000 1.0
C      1  0.4968270000000  0.4831390000000  0.4842590000000 1.0
C      1  0.4757900000000  0.5020460000000  0.4887800000000 1.0
C      1  0.5013360000000  0.5577200000000  0.5190540000000 1.0
C      1  0.4976720000000  0.5431940000000  0.5438680000000 1.0
C      1  0.5104690000000  0.5277850000000  0.4041150000000 1.0
C      1  0.4803450000000  0.5474660000000  0.5013020000000 1.0
C      1  0.5043140000000  0.4926360000000  0.4376090000000 1.0
C      1  0.5662430000000  0.5167540000000  0.4320190000000 1.0
C      1  0.5357470000000  0.5409580000000  0.4887870000000 1.0
C      1  0.4750980000000  0.5194440000000  0.5121540000000 1.0
C      1  0.5266900000000  0.5587270000000  0.5068980000000 1.0
C      1  0.4909660000000  0.5628510000000  0.4539650000000 1.0
C      1  0.4827780000000  0.5186910000000  0.5398900000000 1.0
C      1  0.4701620000000  0.4552390000000  0.5874750000000 1.0
C      1  0.5179680000000  0.4925150000000  0.4647630000000 1.0
C      1  0.4684340000000  0.5202200000000  0.4670120000000 1.0
C      1  0.4777270000000  0.4987550000000  0.5582450000000 1.0
C      1  0.4983040000000  0.4583620000000  0.4968420000000 1.0
C      1  0.4737320000000  0.4774230000000  0.5734290000000 1.0
C      1  0.5108220000000  0.5633350000000  0.4358750000000 1.0
END
