TITL C-627106-156-1783 0.00572548641128247 125000 -516.754683920514 0 0 85 (C1) n - 1
REM
REM in /home/nfs/bkarasulu/CARBON/AIRSS/Generating-Clusters/LCBOP/Only-C1/SD-CG/FIRE-CG
REM
REM
REM
REM
REM
REM ./C.cell (11c1c37f851c82e70ff6c80c92926a4b)
REM AIRSS Version 0.9.1 bugfix July 2018 build 013d7b7c2542+ Fri, 06 Jul 2018 19:26:36 +0100
REM compiler GCC version 9.2.1 20190827 (Red Hat 9.2.1-1)
REM options -cpp -mtune=generic -march=x86-64 -g -O0 -fpre-include=/usr/include/finclude/math-vector-fortran.h
REM seed -1867585185 -1408831631 -1230607630 -1711851793 1777114344 1440971209 1477010631 -1933970626 1295672308 -688221275 -507444059 -1856622126 -78184803 240561495 -1909798675 485161517 887501392 -1892583332 -1942653190 411712639 33322509 -1480207104 1576966372 -916576688 -1909559355 273045804 723574500 500895234 -1321755844 1634425085 -305222484 1041094099 -1991548165
REM
CELL 1.54180   50.00000   50.00000   50.00000   90.00000   90.00000   90.00000
LATT -1
SFAC C  
C      1  0.4761680000000  0.4530380000000  0.5141520000000 1.0
C      1  0.4692610000000  0.4903960000000  0.4853020000000 1.0
C      1  0.4441410000000  0.4693130000000  0.4339500000000 1.0
C      1  0.4770320000000  0.5087220000000  0.5512750000000 1.0
C      1  0.5542710000000  0.5254940000000  0.4557240000000 1.0
C      1  0.5014270000000  0.4305590000000  0.4197930000000 1.0
C      1  0.5823770000000  0.5506400000000  0.5221260000000 1.0
C      1  0.4894870000000  0.5007020000000  0.4683730000000 1.0
C      1  0.4106470000000  0.4505200000000  0.4952920000000 1.0
C      1  0.4532480000000  0.4907810000000  0.5606440000000 1.0
C      1  0.5448570000000  0.5814070000000  0.4648210000000 1.0
C      1  0.5245330000000  0.5271210000000  0.4170580000000 1.0
C      1  0.4942040000000  0.5523940000000  0.4664280000000 1.0
C      1  0.4967770000000  0.4378830000000  0.5803420000000 1.0
C      1  0.4756330000000  0.4225540000000  0.4781100000000 1.0
C      1  0.4053210000000  0.4899940000000  0.5389210000000 1.0
C      1  0.4917180000000  0.5024710000000  0.5250930000000 1.0
C      1  0.5228740000000  0.4988960000000  0.4180120000000 1.0
C      1  0.5761760000000  0.5085780000000  0.4507880000000 1.0
C      1  0.4502100000000  0.4424190000000  0.5211240000000 1.0
C      1  0.4190870000000  0.5230450000000  0.5078730000000 1.0
C      1  0.5221540000000  0.4774150000000  0.4364980000000 1.0
C      1  0.5156370000000  0.5760770000000  0.5731680000000 1.0
C      1  0.5372310000000  0.5640010000000  0.6412690000000 1.0
C      1  0.4487430000000  0.4305950000000  0.4736220000000 1.0
C      1  0.5044150000000  0.5261430000000  0.4720290000000 1.0
C      1  0.4574470000000  0.4802030000000  0.3883360000000 1.0
C      1  0.5328150000000  0.4898140000000  0.4817770000000 1.0
C      1  0.5015690000000  0.5448560000000  0.4185760000000 1.0
C      1  0.4417980000000  0.4848760000000  0.4834420000000 1.0
C      1  0.4339920000000  0.4349170000000  0.4983200000000 1.0
C      1  0.5311470000000  0.4542250000000  0.5178700000000 1.0
C      1  0.5244810000000  0.4297940000000  0.4361460000000 1.0
C      1  0.4425800000000  0.4458220000000  0.5477780000000 1.0
C      1  0.5646480000000  0.4523370000000  0.4795340000000 1.0
C      1  0.5097850000000  0.5915130000000  0.5521790000000 1.0
C      1  0.4417830000000  0.4465800000000  0.4511350000000 1.0
C      1  0.5200560000000  0.4861220000000  0.5593560000000 1.0
C      1  0.5091780000000  0.5287300000000  0.5845760000000 1.0
C      1  0.5015280000000  0.5065410000000  0.5692510000000 1.0
C      1  0.5701990000000  0.5686430000000  0.5037740000000 1.0
C      1  0.5341010000000  0.5185790000000  0.4752990000000 1.0
C      1  0.5114160000000  0.4820900000000  0.4625280000000 1.0
C      1  0.5186440000000  0.4319310000000  0.5033440000000 1.0
C      1  0.4240150000000  0.5292890000000  0.4802570000000 1.0
C      1  0.5275440000000  0.5595160000000  0.6170200000000 1.0
C      1  0.5796220000000  0.4824870000000  0.4451910000000 1.0
C      1  0.4976980000000  0.5937390000000  0.5282390000000 1.0
C      1  0.4337310000000  0.4955990000000  0.4402480000000 1.0
C      1  0.5688920000000  0.4842760000000  0.5170630000000 1.0
C      1  0.5142580000000  0.5207250000000  0.5214800000000 1.0
C      1  0.4735410000000  0.4509340000000  0.5837280000000 1.0
C      1  0.4546100000000  0.4630170000000  0.5668890000000 1.0
C      1  0.5714080000000  0.5046850000000  0.5338730000000 1.0
C      1  0.4280260000000  0.5020140000000  0.5515080000000 1.0
C      1  0.4816490000000  0.5753320000000  0.5141080000000 1.0
C      1  0.5635700000000  0.5311900000000  0.5318710000000 1.0
C      1  0.5467630000000  0.5684140000000  0.6651290000000 1.0
C      1  0.5442810000000  0.5414010000000  0.4343010000000 1.0
C      1  0.5338260000000  0.5675960000000  0.4428270000000 1.0
C      1  0.4049100000000  0.4970240000000  0.5110530000000 1.0
C      1  0.4154710000000  0.4780950000000  0.4929930000000 1.0
C      1  0.5172520000000  0.4391190000000  0.5628830000000 1.0
C      1  0.4605670000000  0.4649490000000  0.4108270000000 1.0
C      1  0.4335200000000  0.5254690000000  0.5336440000000 1.0
C      1  0.5349190000000  0.4165410000000  0.4851330000000 1.0
C      1  0.5173700000000  0.5547410000000  0.5914200000000 1.0
C      1  0.4803700000000  0.4812100000000  0.5100180000000 1.0
C      1  0.4599810000000  0.5336570000000  0.5407710000000 1.0
C      1  0.5642410000000  0.4597040000000  0.4516350000000 1.0
C      1  0.5259270000000  0.4122930000000  0.4584660000000 1.0
C      1  0.4800300000000  0.4444480000000  0.4116850000000 1.0
C      1  0.4276770000000  0.5173630000000  0.4557680000000 1.0
C      1  0.5042220000000  0.5627600000000  0.4414850000000 1.0
C      1  0.4911730000000  0.4341700000000  0.4988280000000 1.0
C      1  0.5714770000000  0.5787330000000  0.4767030000000 1.0
C      1  0.5496450000000  0.4708690000000  0.4990430000000 1.0
C      1  0.4827470000000  0.5681970000000  0.4867930000000 1.0
C      1  0.4683950000000  0.5578410000000  0.5312230000000 1.0
C      1  0.5362920000000  0.5389570000000  0.5233690000000 1.0
C      1  0.5620250000000  0.4248760000000  0.4860030000000 1.0
C      1  0.5405220000000  0.5644750000000  0.5094880000000 1.0
C      1  0.5284470000000  0.5803820000000  0.4888930000000 1.0
C      1  0.5250610000000  0.4607100000000  0.5460430000000 1.0
C      1  0.5395270000000  0.4544720000000  0.4370940000000 1.0
END
