TITL C-627108-131-1426 31787.5727411621 125000 -861.925243366043 0 0 142 (C1) n - 1
REM
REM in /home/nfs/bkarasulu/CARBON/AIRSS/Generating-Clusters/LCBOP/Only-C1/SD-CG/FIRE-CG
REM
REM
REM
REM
REM
REM ./C.cell (11c1c37f851c82e70ff6c80c92926a4b)
REM AIRSS Version 0.9.1 bugfix July 2018 build 013d7b7c2542+ Fri, 06 Jul 2018 19:26:36 +0100
REM compiler GCC version 9.2.1 20190827 (Red Hat 9.2.1-1)
REM options -cpp -mtune=generic -march=x86-64 -g -O0 -fpre-include=/usr/include/finclude/math-vector-fortran.h
REM seed 216012355 874619609 -1448318231 -864316253 -916885923 -1446998611 113072459 1795003595 1338304795 -630394231 470017738 129410292 -1589694679 -1177719225 1858283743 1019295927 392236892 -1718745861 -1187314309 2082217838 58545730 -433733068 -806581463 322744665 1773285175 -638371637 763689072 -709487461 -509682873 -26615898 -2127845706 -391752766 2101715984
REM
CELL 1.54180   50.00000   50.00000   50.00000   90.00000   90.00000   90.00000
LATT -1
SFAC C  
C      1  0.4603890000000  0.4786750000000  0.4649670000000 1.0
C      1  0.5133160000000  0.4910650000000  0.4795490000000 1.0
C      1  0.5182550000000  0.4374570000000  0.6132570000000 1.0
C      1  0.5361570000000  0.4015820000000  0.4597280000000 1.0
C      1  0.5428200000000  0.5913250000000  0.4864800000000 1.0
C      1  0.5215890000000  0.4554330000000  0.5096910000000 1.0
C      1  0.4825090000000  0.4666760000000  0.6294740000000 1.0
C      1  0.5532600000000  0.5166430000000  0.5211240000000 1.0
C      1  0.4572340000000  0.6234480000000  0.4764740000000 1.0
C      1  0.4787350000000  0.4103270000000  0.5555690000000 1.0
C      1  0.4163110000000  0.5469100000000  0.5054340000000 1.0
C      1  0.5020710000000  0.6074830000000  0.4669670000000 1.0
C      1  0.5219550000000  0.4683890000000  0.4648070000000 1.0
C      1  0.4081870000000  0.5670750000000  0.5232240000000 1.0
C      1  0.5945910000000  0.5719130000000  0.5527550000000 1.0
C      1  0.4288370000000  0.4709100000000  0.5786270000000 1.0
C      1  0.4864460000000  0.5891680000000  0.5383500000000 1.0
C      1  0.5009450000000  0.5180690000000  0.4393550000000 1.0
C      1  0.4953130000000  0.5425870000000  0.4972410000000 1.0
C      1  0.5087100000000  0.6002530000000  0.5218390000000 1.0
C      1  0.4144680000000  0.5722090000000  0.5487240000000 1.0
C      1  0.5317240000000  0.6041960000000  0.5386630000000 1.0
C      1  0.4521880000000  0.5567470000000  0.5768230000000 1.0
C      1  0.5616310000000  0.4600330000000  0.5589160000000 1.0
C      1  0.5182040000000  0.6058590000000  0.4426390000000 1.0
C      1  0.5982420000000  0.5139670000000  0.4641030000000 1.0
C      1  0.4199220000000  0.5030460000000  0.3660120000000 1.0
C      1  0.4455910000000  0.4859590000000  0.5975090000000 1.0
C      1  0.4117200000000  0.4308530000000  0.5365210000000 1.0
C      1  0.4538140000000  0.5257180000000  0.4706640000000 1.0
C      1  0.5334320000000  0.4334590000000  0.4218520000000 1.0
C      1  0.5636660000000  0.5497740000000  0.4266560000000 1.0
C      1  0.5042530000000  0.5737030000000  0.5838330000000 1.0
C      1  0.5476750000000  0.5305480000000  0.4394960000000 1.0
C      1  0.4739050000000  0.6065100000000  0.4629700000000 1.0
C      1  0.4493090000000  0.5102730000000  0.5276370000000 1.0
C      1  0.5824190000000  0.4798730000000  0.5130920000000 1.0
C      1  0.5759410000000  0.5078670000000  0.5066660000000 1.0
C      1  0.4204770000000  0.4979230000000  0.4446300000000 1.0
C      1  0.5203320000000  0.5377960000000  0.4393390000000 1.0
C      1  0.5559950000000  0.4467420000000  0.4339380000000 1.0
C      1  0.5720800000000  0.5519930000000  0.4851610000000 1.0
C      1  0.5161100000000  0.6023790000000  0.4924150000000 1.0
C      1  0.4819340000000  0.4222680000000  0.5831660000000 1.0
C      1  0.5319460000000  0.4984330000000  0.3945450000000 1.0
C      1  0.5186550000000  0.5530720000000  0.4855580000000 1.0
C      1  0.5849500000000  0.5260320000000  0.4864780000000 1.0
C      1  0.5853470000000  0.4603840000000  0.4917930000000 1.0
C      1  0.5472890000000  0.5710400000000  0.4154190000000 1.0
C      1  0.5302990000000  0.5619110000000  0.5870200000000 1.0
C      1  0.4537970000000  0.5100090000000  0.5558400000000 1.0
C      1  0.5183000000000  0.4844760000000  0.5075140000000 1.0
C      1  0.4121740000000  0.4528070000000  0.4572750000000 1.0
C      1  0.5591200000000  0.4928300000000  0.4043470000000 1.0
C      1  0.5806910000000  0.5946200000000  0.5455130000000 1.0
C      1  0.4904300000000  0.4724570000000  0.5532390000000 1.0
C      1  0.5775650000000  0.4310740000000  0.4920750000000 1.0
C      1  0.5840260000000  0.5251090000000  0.5655870000000 1.0
C      1  0.4865040000000  0.3986320000000  0.4868640000000 1.0
C      1  0.4103950000000  0.5263340000000  0.5636320000000 1.0
C      1  0.4925230000000  0.4235220000000  0.4455160000000 1.0
C      1  0.4739210000000  0.4719130000000  0.4409490000000 1.0
C      1  0.5443730000000  0.4389910000000  0.5497590000000 1.0
C      1  0.5342260000000  0.5401510000000  0.6045350000000 1.0
C      1  0.4376820000000  0.4893450000000  0.3792590000000 1.0
C      1  0.5115180000000  0.4754190000000  0.3942750000000 1.0
C      1  0.4898950000000  0.4496110000000  0.4325710000000 1.0
C      1  0.5415290000000  0.5147880000000  0.6087030000000 1.0
C      1  0.4428270000000  0.5014700000000  0.4614540000000 1.0
C      1  0.4572010000000  0.4122720000000  0.5365460000000 1.0
C      1  0.4538810000000  0.5615270000000  0.4401180000000 1.0
C      1  0.4747710000000  0.4140970000000  0.4661850000000 1.0
C      1  0.4341940000000  0.4322340000000  0.4938040000000 1.0
C      1  0.5494890000000  0.4903540000000  0.6014620000000 1.0
C      1  0.5930080000000  0.4909910000000  0.4477740000000 1.0
C      1  0.4635270000000  0.5875130000000  0.4446940000000 1.0
C      1  0.5362230000000  0.4022400000000  0.4883260000000 1.0
C      1  0.4624340000000  0.4649230000000  0.6100190000000 1.0
C      1  0.4338400000000  0.4352570000000  0.4455080000000 1.0
C      1  0.5318180000000  0.5550720000000  0.3950000000000 1.0
C      1  0.4824580000000  0.5687440000000  0.5630400000000 1.0
C      1  0.4247710000000  0.5209570000000  0.5151500000000 1.0
C      1  0.5591550000000  0.5920260000000  0.4608410000000 1.0
C      1  0.4575300000000  0.4766500000000  0.3966060000000 1.0
C      1  0.4061150000000  0.4747040000000  0.5626030000000 1.0
C      1  0.5812550000000  0.4422770000000  0.4462280000000 1.0
C      1  0.3984290000000  0.4506480000000  0.5493050000000 1.0
C      1  0.4779410000000  0.5177600000000  0.4227600000000 1.0
C      1  0.4669280000000  0.4599400000000  0.5495360000000 1.0
C      1  0.5798080000000  0.4764520000000  0.5426060000000 1.0
C      1  0.4054700000000  0.4995140000000  0.5205830000000 1.0
C      1  0.5105920000000  0.4266350000000  0.5886450000000 1.0
C      1  0.5806570000000  0.4927430000000  0.4213520000000 1.0
C      1  0.5030200000000  0.4935670000000  0.5635820000000 1.0
C      1  0.4658280000000  0.4738730000000  0.4919420000000 1.0
C      1  0.5843350000000  0.4212200000000  0.4655950000000 1.0
C      1  0.4123180000000  0.4727060000000  0.4367370000000 1.0
C      1  0.4627200000000  0.4411730000000  0.5919400000000 1.0
C      1  0.5527450000000  0.5921590000000  0.5522920000000 1.0
C      1  0.5886700000000  0.5000470000000  0.5569500000000 1.0
C      1  0.4927740000000  0.5426360000000  0.5509360000000 1.0
C      1  0.4679280000000  0.4915290000000  0.4200690000000 1.0
C      1  0.4142650000000  0.4541040000000  0.4864360000000 1.0
C      1  0.5514260000000  0.5675170000000  0.5687010000000 1.0
C      1  0.5805060000000  0.5731520000000  0.4667290000000 1.0
C      1  0.4545230000000  0.5098610000000  0.5850840000000 1.0
C      1  0.5202570000000  0.4141890000000  0.4398860000000 1.0
C      1  0.5256870000000  0.4226960000000  0.5641310000000 1.0
C      1  0.5066390000000  0.4070180000000  0.5478440000000 1.0
C      1  0.4578060000000  0.5358860000000  0.5954390000000 1.0
C      1  0.4054560000000  0.4762240000000  0.5030910000000 1.0
C      1  0.5770530000000  0.5522410000000  0.5651280000000 1.0
C      1  0.4973300000000  0.5089020000000  0.4659890000000 1.0
C      1  0.4480310000000  0.4239600000000  0.4684330000000 1.0
C      1  0.4801840000000  0.5258750000000  0.4804790000000 1.0
C      1  0.5127000000000  0.4531180000000  0.4132250000000 1.0
C      1  0.5903620000000  0.4661320000000  0.4620930000000 1.0
C      1  0.4349780000000  0.4233580000000  0.5214870000000 1.0
C      1  0.4373520000000  0.4543770000000  0.4155220000000 1.0
C      1  0.5275100000000  0.5276790000000  0.3895820000000 1.0
C      1  0.5146290000000  0.5578740000000  0.4578080000000 1.0
C      1  0.4623470000000  0.4900250000000  0.5129760000000 1.0
C      1  0.4025830000000  0.5005190000000  0.5502510000000 1.0
C      1  0.4482370000000  0.4517740000000  0.5690780000000 1.0
C      1  0.5161930000000  0.4472170000000  0.4826420000000 1.0
C      1  0.5426880000000  0.4684160000000  0.4469900000000 1.0
C      1  0.5533940000000  0.4207130000000  0.5033970000000 1.0
C      1  0.4904450000000  0.5422110000000  0.5237540000000 1.0
C      1  0.4410810000000  0.5492810000000  0.4623200000000 1.0
C      1  0.4254360000000  0.5524120000000  0.5654830000000 1.0
C      1  0.5535410000000  0.5111760000000  0.4571580000000 1.0
C      1  0.5563740000000  0.4707060000000  0.5847230000000 1.0
C      1  0.4847000000000  0.4736720000000  0.3817800000000 1.0
C      1  0.5064720000000  0.4544130000000  0.6305140000000 1.0
C      1  0.5449440000000  0.5620490000000  0.4937700000000 1.0
C      1  0.5030140000000  0.5202620000000  0.5642180000000 1.0
C      1  0.5299350000000  0.5039550000000  0.5233530000000 1.0
C      1  0.4196500000000  0.5555050000000  0.4787650000000 1.0
C      1  0.5402210000000  0.4383070000000  0.5219060000000 1.0
C      1  0.5107280000000  0.3940820000000  0.4980510000000 1.0
C      1  0.5428890000000  0.5925270000000  0.4360210000000 1.0
C      1  0.4639550000000  0.5426630000000  0.4209750000000 1.0
END
