TITL C-627113-6568-1905 1.62023568019476 125000 -169.615031868135 0 0 29 (C1) n - 1
REM
REM in /home/nfs/bkarasulu/CARBON/AIRSS/Generating-Clusters/LCBOP/Only-C1/SD-CG/FIRE-CG
REM
REM
REM
REM
REM
REM ./C.cell (11c1c37f851c82e70ff6c80c92926a4b)
REM AIRSS Version 0.9.1 bugfix July 2018 build 013d7b7c2542+ Fri, 06 Jul 2018 19:26:36 +0100
REM compiler GCC version 9.2.1 20190827 (Red Hat 9.2.1-1)
REM options -cpp -mtune=generic -march=x86-64 -g -O0 -fpre-include=/usr/include/finclude/math-vector-fortran.h
REM seed -1882285087 -420002088 -1182026947 -1764837545 568164088 1218445477 -1343179768 890541530 -254470884 -2054839775 -1688383911 627856280 -19931549 -1858266747 599565750 1893701828 1549867218 1639955320 -1829953437 -597216523 718930381 -658597381 876492115 1575462803 1810960516 791366738 1295947688 -630818383 -1230092105 1626649238 -731134001 378659512 -204442849
REM
CELL 1.54180   50.00000   50.00000   50.00000   90.00000   90.00000   90.00000
LATT -1
SFAC C  
C      1  0.5475070000000  0.4577030000000  0.5023230000000 1.0
C      1  0.4589600000000  0.6007790000000  0.5258870000000 1.0
C      1  0.6032130000000  0.4133030000000  0.5245740000000 1.0
C      1  0.3788620000000  0.5602250000000  0.5098150000000 1.0
C      1  0.6214300000000  0.4072800000000  0.5058220000000 1.0
C      1  0.4808520000000  0.5289930000000  0.5120520000000 1.0
C      1  0.4260950000000  0.5678530000000  0.5157100000000 1.0
C      1  0.4426150000000  0.6220240000000  0.5291000000000 1.0
C      1  0.5860400000000  0.4401220000000  0.4774840000000 1.0
C      1  0.3825040000000  0.5104210000000  0.4991850000000 1.0
C      1  0.6267950000000  0.4125670000000  0.4786670000000 1.0
C      1  0.5253120000000  0.4721110000000  0.5035110000000 1.0
C      1  0.6488170000000  0.4018630000000  0.4664840000000 1.0
C      1  0.4029410000000  0.4935100000000  0.4972910000000 1.0
C      1  0.4533940000000  0.5738370000000  0.5194640000000 1.0
C      1  0.6128940000000  0.4353110000000  0.4373810000000 1.0
C      1  0.4724380000000  0.5537300000000  0.5167420000000 1.0
C      1  0.5810450000000  0.4285170000000  0.5232420000000 1.0
C      1  0.6169360000000  0.4408250000000  0.4122320000000 1.0
C      1  0.4157650000000  0.6240210000000  0.5271420000000 1.0
C      1  0.5707830000000  0.4426060000000  0.5010350000000 1.0
C      1  0.3731360000000  0.5349200000000  0.5037370000000 1.0
C      1  0.4548440000000  0.4898180000000  0.5011130000000 1.0
C      1  0.4286400000000  0.4868070000000  0.4981110000000 1.0
C      1  0.3971350000000  0.6053520000000  0.5213720000000 1.0
C      1  0.6085230000000  0.4294280000000  0.4643290000000 1.0
C      1  0.5031180000000  0.4865190000000  0.5046980000000 1.0
C      1  0.3996680000000  0.5778640000000  0.5155520000000 1.0
C      1  0.4797380000000  0.5016920000000  0.5059480000000 1.0
END
