TITL C-627111-6168-1557 -4.08817795521265e-07 125000 -619.5848854531 0 0 102 (C1) n - 1
REM
REM in /home/nfs/bkarasulu/CARBON/AIRSS/Generating-Clusters/LCBOP/Only-C1/SD-CG/FIRE-CG
REM
REM
REM
REM
REM
REM ./C.cell (11c1c37f851c82e70ff6c80c92926a4b)
REM AIRSS Version 0.9.1 bugfix July 2018 build 013d7b7c2542+ Fri, 06 Jul 2018 19:26:36 +0100
REM compiler GCC version 9.2.1 20190827 (Red Hat 9.2.1-1)
REM options -cpp -mtune=generic -march=x86-64 -g -O0 -fpre-include=/usr/include/finclude/math-vector-fortran.h
REM seed -1836202691 -575203970 811633145 1954655169 642831069 -2102040453 -542158788 -1833091131 -972233739 587040980 -654934595 234206047 431027423 1662265644 263494208 1670111478 1530974014 -1666505957 810934085 -1395411965 1539792434 1096114003 403587604 -721946792 1080172960 -1073601412 316925849 1905226303 -188151934 -1321742632 128540928 846813678 1986990681
REM
CELL 1.54180   50.00000   50.00000   50.00000   90.00000   90.00000   90.00000
LATT -1
SFAC C  
C      1  0.5412060000000  0.5220810000000  0.6075950000000 1.0
C      1  0.4684920000000  0.5959040000000  0.5325220000000 1.0
C      1  0.5271440000000  0.5385550000000  0.5886230000000 1.0
C      1  0.4846300000000  0.5589800000000  0.4802610000000 1.0
C      1  0.4871000000000  0.4354200000000  0.5574500000000 1.0
C      1  0.4160000000000  0.5352670000000  0.5177750000000 1.0
C      1  0.5112210000000  0.5903920000000  0.5099170000000 1.0
C      1  0.4308660000000  0.4624000000000  0.5088540000000 1.0
C      1  0.4709410000000  0.4894570000000  0.4890700000000 1.0
C      1  0.4829410000000  0.5987880000000  0.5083100000000 1.0
C      1  0.5706970000000  0.5376340000000  0.4685970000000 1.0
C      1  0.4787040000000  0.5023680000000  0.5104420000000 1.0
C      1  0.4330930000000  0.5181660000000  0.5604010000000 1.0
C      1  0.4807860000000  0.4219070000000  0.4205590000000 1.0
C      1  0.5466090000000  0.5060530000000  0.5634460000000 1.0
C      1  0.5394460000000  0.4866280000000  0.5452540000000 1.0
C      1  0.5603900000000  0.4467980000000  0.5504690000000 1.0
C      1  0.5383100000000  0.5745990000000  0.4630730000000 1.0
C      1  0.4811200000000  0.4107090000000  0.5160750000000 1.0
C      1  0.4870130000000  0.5257700000000  0.5553790000000 1.0
C      1  0.4887140000000  0.4947130000000  0.5533820000000 1.0
C      1  0.5625930000000  0.4928470000000  0.4558260000000 1.0
C      1  0.5025870000000  0.5699680000000  0.4279080000000 1.0
C      1  0.4707830000000  0.5962440000000  0.4556260000000 1.0
C      1  0.5535490000000  0.5020630000000  0.5909160000000 1.0
C      1  0.4403610000000  0.5727220000000  0.4847280000000 1.0
C      1  0.5152170000000  0.3791830000000  0.4927310000000 1.0
C      1  0.5385380000000  0.5883040000000  0.5675000000000 1.0
C      1  0.5516320000000  0.4034640000000  0.4659670000000 1.0
C      1  0.4872800000000  0.5057090000000  0.4191620000000 1.0
C      1  0.5335360000000  0.5480820000000  0.5372830000000 1.0
C      1  0.5116630000000  0.4783800000000  0.5426050000000 1.0
C      1  0.5354070000000  0.3845970000000  0.4760220000000 1.0
C      1  0.5038920000000  0.5101370000000  0.5143790000000 1.0
C      1  0.5604710000000  0.4707680000000  0.5338320000000 1.0
C      1  0.4272670000000  0.4605490000000  0.4801180000000 1.0
C      1  0.4396580000000  0.4943590000000  0.5463480000000 1.0
C      1  0.4959840000000  0.3881560000000  0.5090420000000 1.0
C      1  0.4859700000000  0.5507560000000  0.5377650000000 1.0
C      1  0.4522660000000  0.4157180000000  0.5118540000000 1.0
C      1  0.5342600000000  0.5317390000000  0.5607980000000 1.0
C      1  0.4579840000000  0.4676630000000  0.4086690000000 1.0
C      1  0.5704560000000  0.4923410000000  0.4864220000000 1.0
C      1  0.5257600000000  0.5594280000000  0.4406560000000 1.0
C      1  0.5143040000000  0.4445860000000  0.4451800000000 1.0
C      1  0.5228660000000  0.4692960000000  0.4978490000000 1.0
C      1  0.5593260000000  0.4410250000000  0.4950100000000 1.0
C      1  0.4808430000000  0.5386210000000  0.5815900000000 1.0
C      1  0.4419920000000  0.5470710000000  0.4691990000000 1.0
C      1  0.5340670000000  0.5313520000000  0.4346560000000 1.0
C      1  0.4245660000000  0.5130780000000  0.5017400000000 1.0
C      1  0.4433510000000  0.4088860000000  0.4851660000000 1.0
C      1  0.5750170000000  0.5223990000000  0.4934640000000 1.0
C      1  0.4243660000000  0.5409690000000  0.5438350000000 1.0
C      1  0.4644310000000  0.5112600000000  0.4353200000000 1.0
C      1  0.5470240000000  0.4234050000000  0.5151790000000 1.0
C      1  0.5665850000000  0.4686250000000  0.5047610000000 1.0
C      1  0.4731500000000  0.4668600000000  0.4698220000000 1.0
C      1  0.5176150000000  0.4812210000000  0.4734770000000 1.0
C      1  0.5401270000000  0.4275630000000  0.5430240000000 1.0
C      1  0.5057340000000  0.5487680000000  0.4946500000000 1.0
C      1  0.4634960000000  0.4506890000000  0.5477400000000 1.0
C      1  0.5267530000000  0.5907800000000  0.4845700000000 1.0
C      1  0.4439900000000  0.5010010000000  0.4535350000000 1.0
C      1  0.5161760000000  0.5237870000000  0.4934830000000 1.0
C      1  0.4415170000000  0.5605440000000  0.5551330000000 1.0
C      1  0.5554580000000  0.4315280000000  0.4681040000000 1.0
C      1  0.4474890000000  0.4120730000000  0.4583570000000 1.0
C      1  0.4918750000000  0.4373980000000  0.5106000000000 1.0
C      1  0.5037900000000  0.4388170000000  0.4194070000000 1.0
C      1  0.5078490000000  0.4648170000000  0.4060720000000 1.0
C      1  0.5429550000000  0.4475990000000  0.4484420000000 1.0
C      1  0.5135980000000  0.4272280000000  0.5551360000000 1.0
C      1  0.5150560000000  0.5809570000000  0.5803680000000 1.0
C      1  0.5584860000000  0.5213140000000  0.4482470000000 1.0
C      1  0.4689870000000  0.5504240000000  0.4564970000000 1.0
C      1  0.4449330000000  0.4415730000000  0.5250290000000 1.0
C      1  0.4339140000000  0.5195870000000  0.4743040000000 1.0
C      1  0.4633550000000  0.4795720000000  0.5531020000000 1.0
C      1  0.4564060000000  0.4265640000000  0.4352470000000 1.0
C      1  0.4472520000000  0.4539260000000  0.4315220000000 1.0
C      1  0.5499250000000  0.4736760000000  0.4379840000000 1.0
C      1  0.5039470000000  0.5551660000000  0.5892330000000 1.0
C      1  0.5594240000000  0.5816010000000  0.5502890000000 1.0
C      1  0.4449740000000  0.4699340000000  0.4569330000000 1.0
C      1  0.5080850000000  0.4595970000000  0.5198280000000 1.0
C      1  0.4646270000000  0.5700940000000  0.5431700000000 1.0
C      1  0.4688830000000  0.5863670000000  0.4849700000000 1.0
C      1  0.5001470000000  0.4662210000000  0.4576770000000 1.0
C      1  0.4765020000000  0.4441700000000  0.4876290000000 1.0
C      1  0.5208220000000  0.5083480000000  0.4716620000000 1.0
C      1  0.4528420000000  0.5379330000000  0.5827570000000 1.0
C      1  0.5425930000000  0.5246960000000  0.6344720000000 1.0
C      1  0.4294300000000  0.4894470000000  0.5190390000000 1.0
C      1  0.5168420000000  0.5106540000000  0.4225970000000 1.0
C      1  0.4832270000000  0.4804390000000  0.4047130000000 1.0
C      1  0.5295980000000  0.4832430000000  0.4179330000000 1.0
C      1  0.5646260000000  0.5650040000000  0.4682420000000 1.0
C      1  0.5753800000000  0.5398940000000  0.5166140000000 1.0
C      1  0.5105420000000  0.5612480000000  0.5213500000000 1.0
C      1  0.5599430000000  0.5585970000000  0.5322200000000 1.0
C      1  0.4764070000000  0.5727420000000  0.4382570000000 1.0
END
