TITL C-627106-156-354 0.000265968026155817 125000 -343.550045015373 0 0 56 (C1) n - 1
REM
REM in /home/nfs/bkarasulu/CARBON/AIRSS/Generating-Clusters/LCBOP/Only-C1/SD-CG/FIRE-CG
REM
REM
REM
REM
REM
REM ./C.cell (11c1c37f851c82e70ff6c80c92926a4b)
REM AIRSS Version 0.9.1 bugfix July 2018 build 013d7b7c2542+ Fri, 06 Jul 2018 19:26:36 +0100
REM compiler GCC version 9.2.1 20190827 (Red Hat 9.2.1-1)
REM options -cpp -mtune=generic -march=x86-64 -g -O0 -fpre-include=/usr/include/finclude/math-vector-fortran.h
REM seed 989267338 -834108275 -903500988 718230611 1480054202 -53312496 8116801 738433137 304385176 -2086265065 759956929 -1192534092 -1399399477 -409867472 48390445 -258252633 1125795166 -396058321 -1517170076 2043084203 -1253216900 -936820469 1299766792 2073239263 1492272483 161659818 -1792345767 -1115263294 456174136 1486012119 1958747325 -137070489 130954442
REM
CELL 1.54180   50.00000   50.00000   50.00000   90.00000   90.00000   90.00000
LATT -1
SFAC C  
C      1  0.4808500000000  0.4838910000000  0.4161430000000 1.0
C      1  0.5519070000000  0.5393240000000  0.5360840000000 1.0
C      1  0.4878640000000  0.5063310000000  0.5616590000000 1.0
C      1  0.5147890000000  0.4519210000000  0.6055000000000 1.0
C      1  0.5061900000000  0.4702160000000  0.4624000000000 1.0
C      1  0.4356560000000  0.4655160000000  0.4376610000000 1.0
C      1  0.4155660000000  0.5067450000000  0.4995770000000 1.0
C      1  0.4194950000000  0.4801300000000  0.4566990000000 1.0
C      1  0.4569330000000  0.5296130000000  0.5080470000000 1.0
C      1  0.5568360000000  0.5456300000000  0.5105530000000 1.0
C      1  0.5594140000000  0.4358010000000  0.5926230000000 1.0
C      1  0.5468070000000  0.4453800000000  0.5215500000000 1.0
C      1  0.4743060000000  0.5760650000000  0.5076080000000 1.0
C      1  0.5580200000000  0.4551810000000  0.5714280000000 1.0
C      1  0.4761100000000  0.5147280000000  0.4919470000000 1.0
C      1  0.4889540000000  0.4599130000000  0.5481470000000 1.0
C      1  0.5471600000000  0.5046490000000  0.5693370000000 1.0
C      1  0.4338310000000  0.5551480000000  0.4539780000000 1.0
C      1  0.4541910000000  0.5154310000000  0.4495280000000 1.0
C      1  0.5484930000000  0.4862460000000  0.4410400000000 1.0
C      1  0.4156240000000  0.5048870000000  0.4711170000000 1.0
C      1  0.5191600000000  0.5370690000000  0.4781270000000 1.0
C      1  0.5026580000000  0.5246350000000  0.4979690000000 1.0
C      1  0.5422630000000  0.4784620000000  0.5772260000000 1.0
C      1  0.5605480000000  0.4479840000000  0.5443710000000 1.0
C      1  0.5357550000000  0.4348230000000  0.6084490000000 1.0
C      1  0.5216090000000  0.4480920000000  0.5093620000000 1.0
C      1  0.4850420000000  0.5676930000000  0.4584510000000 1.0
C      1  0.4341860000000  0.5165680000000  0.5186360000000 1.0
C      1  0.4952940000000  0.4793360000000  0.5675300000000 1.0
C      1  0.5069720000000  0.5239360000000  0.5484530000000 1.0
C      1  0.5060310000000  0.5466620000000  0.4545290000000 1.0
C      1  0.4236030000000  0.4471870000000  0.4211960000000 1.0
C      1  0.4729230000000  0.5510360000000  0.5204710000000 1.0
C      1  0.4992620000000  0.4483720000000  0.5264390000000 1.0
C      1  0.4985340000000  0.5370230000000  0.5247460000000 1.0
C      1  0.4821090000000  0.5821400000000  0.4824750000000 1.0
C      1  0.5208410000000  0.4855410000000  0.4429050000000 1.0
C      1  0.4688530000000  0.5334090000000  0.4326080000000 1.0
C      1  0.4284510000000  0.5268810000000  0.4578180000000 1.0
C      1  0.6009600000000  0.4926590000000  0.4445170000000 1.0
C      1  0.4779260000000  0.4750610000000  0.4610560000000 1.0
C      1  0.4375500000000  0.5108120000000  0.5460730000000 1.0
C      1  0.4972800000000  0.5280120000000  0.4330230000000 1.0
C      1  0.5032510000000  0.5006670000000  0.4258030000000 1.0
C      1  0.5154700000000  0.4724970000000  0.5861000000000 1.0
C      1  0.4598920000000  0.5111980000000  0.5613000000000 1.0
C      1  0.6266600000000  0.4963360000000  0.4468920000000 1.0
C      1  0.4641250000000  0.4697880000000  0.4356650000000 1.0
C      1  0.5812300000000  0.4201770000000  0.5972600000000 1.0
C      1  0.5179780000000  0.4551590000000  0.4826040000000 1.0
C      1  0.5449620000000  0.5441680000000  0.4865380000000 1.0
C      1  0.4609390000000  0.5601740000000  0.4438690000000 1.0
C      1  0.4684930000000  0.5004670000000  0.4695310000000 1.0
C      1  0.5748030000000  0.4890450000000  0.4422230000000 1.0
C      1  0.5353930000000  0.5241850000000  0.5531610000000 1.0
END
