TITL C-627106-156-1226 0.413774400989004 125000 -448.288165542183 0 0 75 (C1) n - 1
REM
REM in /home/nfs/bkarasulu/CARBON/AIRSS/Generating-Clusters/LCBOP/Only-C1/SD-CG/FIRE-CG
REM
REM
REM
REM
REM
REM ./C.cell (11c1c37f851c82e70ff6c80c92926a4b)
REM AIRSS Version 0.9.1 bugfix July 2018 build 013d7b7c2542+ Fri, 06 Jul 2018 19:26:36 +0100
REM compiler GCC version 9.2.1 20190827 (Red Hat 9.2.1-1)
REM options -cpp -mtune=generic -march=x86-64 -g -O0 -fpre-include=/usr/include/finclude/math-vector-fortran.h
REM seed 1134103651 1973309736 -726737667 -1505473119 -1535348481 2114213586 -746483272 -223613111 1925876493 509282049 591983224 -1160409396 -633630092 331141150 1515973410 -1170236938 -174579111 -911034463 -328867492 431607322 -1407965768 -56088203 1455665272 701819940 -1150583300 -1476706457 1125268276 1938631978 66582845 801743081 -527183998 423865432 -1623149869
REM
CELL 1.54180   50.00000   50.00000   50.00000   90.00000   90.00000   90.00000
LATT -1
SFAC C  
C      1  0.4808740000000  0.6465060000000  0.4182420000000 1.0
C      1  0.5084180000000  0.5902180000000  0.4604580000000 1.0
C      1  0.5452200000000  0.3850940000000  0.4576720000000 1.0
C      1  0.5485880000000  0.5077010000000  0.6206300000000 1.0
C      1  0.4984540000000  0.3724500000000  0.4578350000000 1.0
C      1  0.5217880000000  0.5505410000000  0.4885990000000 1.0
C      1  0.5316420000000  0.6258430000000  0.5705230000000 1.0
C      1  0.4858970000000  0.5998460000000  0.4450050000000 1.0
C      1  0.4851710000000  0.5018980000000  0.3710140000000 1.0
C      1  0.4487990000000  0.4168420000000  0.4768390000000 1.0
C      1  0.4872010000000  0.4009080000000  0.5022510000000 1.0
C      1  0.4546270000000  0.5063650000000  0.4695570000000 1.0
C      1  0.4628610000000  0.3989560000000  0.5449810000000 1.0
C      1  0.5548280000000  0.4350670000000  0.4936430000000 1.0
C      1  0.4507040000000  0.4643680000000  0.4946080000000 1.0
C      1  0.5133950000000  0.4052150000000  0.4898370000000 1.0
C      1  0.5374420000000  0.5471920000000  0.5979990000000 1.0
C      1  0.5619320000000  0.4626150000000  0.4912350000000 1.0
C      1  0.4724630000000  0.3750430000000  0.4652200000000 1.0
C      1  0.5386780000000  0.5728950000000  0.5874120000000 1.0
C      1  0.5336040000000  0.5786590000000  0.5594620000000 1.0
C      1  0.4717530000000  0.4764490000000  0.4163150000000 1.0
C      1  0.5202090000000  0.3875790000000  0.4682210000000 1.0
C      1  0.5744560000000  0.4160010000000  0.4932260000000 1.0
C      1  0.4665590000000  0.5784960000000  0.4480160000000 1.0
C      1  0.5609360000000  0.5412110000000  0.5435840000000 1.0
C      1  0.4333180000000  0.4235440000000  0.4525960000000 1.0
C      1  0.4400910000000  0.4951480000000  0.4475470000000 1.0
C      1  0.5401700000000  0.5596050000000  0.5394700000000 1.0
C      1  0.5066480000000  0.4544840000000  0.5855040000000 1.0
C      1  0.5131290000000  0.4450900000000  0.5173880000000 1.0
C      1  0.4628480000000  0.5330550000000  0.4689990000000 1.0
C      1  0.4212230000000  0.4258230000000  0.5434860000000 1.0
C      1  0.4652480000000  0.3949170000000  0.4840760000000 1.0
C      1  0.4446990000000  0.4469530000000  0.4392790000000 1.0
C      1  0.4447480000000  0.4743270000000  0.4285460000000 1.0
C      1  0.5070680000000  0.4720400000000  0.5122230000000 1.0
C      1  0.5277170000000  0.4284040000000  0.4990260000000 1.0
C      1  0.4628120000000  0.4426260000000  0.4808590000000 1.0
C      1  0.5444210000000  0.5953970000000  0.6037670000000 1.0
C      1  0.5515830000000  0.4785420000000  0.4700580000000 1.0
C      1  0.5263240000000  0.5581670000000  0.5151610000000 1.0
C      1  0.5188560000000  0.5256340000000  0.5913590000000 1.0
C      1  0.4764470000000  0.5566540000000  0.4642490000000 1.0
C      1  0.5014780000000  0.4389530000000  0.5646580000000 1.0
C      1  0.4897130000000  0.4900410000000  0.5024510000000 1.0
C      1  0.4246790000000  0.4638620000000  0.5060880000000 1.0
C      1  0.5553780000000  0.5343410000000  0.6169130000000 1.0
C      1  0.5164810000000  0.4616570000000  0.4354770000000 1.0
C      1  0.4783100000000  0.6695620000000  0.4054180000000 1.0
C      1  0.4862760000000  0.6172520000000  0.5161580000000 1.0
C      1  0.4995420000000  0.4308640000000  0.5381220000000 1.0
C      1  0.5393340000000  0.4666800000000  0.4479450000000 1.0
C      1  0.4642020000000  0.4892620000000  0.4904980000000 1.0
C      1  0.5799350000000  0.4951050000000  0.5291010000000 1.0
C      1  0.4378430000000  0.4062820000000  0.5507540000000 1.0
C      1  0.4757880000000  0.6922380000000  0.3928060000000 1.0
C      1  0.5065470000000  0.6100890000000  0.5316500000000 1.0
C      1  0.5368500000000  0.5294890000000  0.4779240000000 1.0
C      1  0.5760700000000  0.4752740000000  0.5118500000000 1.0
C      1  0.5034140000000  0.5643600000000  0.4725820000000 1.0
C      1  0.4186460000000  0.4468070000000  0.5274060000000 1.0
C      1  0.4784850000000  0.4893930000000  0.3928780000000 1.0
C      1  0.4834200000000  0.6234910000000  0.4311040000000 1.0
C      1  0.4048880000000  0.4798800000000  0.4959260000000 1.0
C      1  0.4719730000000  0.4481800000000  0.4535930000000 1.0
C      1  0.4650290000000  0.6252700000000  0.5033550000000 1.0
C      1  0.5487290000000  0.5062520000000  0.4731850000000 1.0
C      1  0.4840020000000  0.4085170000000  0.5294400000000 1.0
C      1  0.4888840000000  0.4618610000000  0.4347830000000 1.0
C      1  0.5411580000000  0.6209870000000  0.5954410000000 1.0
C      1  0.5148270000000  0.4755790000000  0.5993140000000 1.0
C      1  0.5256690000000  0.5003920000000  0.6044180000000 1.0
C      1  0.5241610000000  0.6051000000000  0.5526010000000 1.0
C      1  0.5744440000000  0.5186100000000  0.5401870000000 1.0
END
