TITL C-627112-676-1282 58.7969710646039 125000 -1060.96259818462 0 0 174 (C1) n - 1
REM
REM in /home/nfs/bkarasulu/CARBON/AIRSS/Generating-Clusters/LCBOP/Only-C1/SD-CG/FIRE-CG
REM
REM
REM
REM
REM
REM ./C.cell (11c1c37f851c82e70ff6c80c92926a4b)
REM AIRSS Version 0.9.1 bugfix July 2018 build 013d7b7c2542+ Fri, 06 Jul 2018 19:26:36 +0100
REM compiler GCC version 9.2.1 20190827 (Red Hat 9.2.1-1)
REM options -cpp -mtune=generic -march=x86-64 -g -O0 -fpre-include=/usr/include/finclude/math-vector-fortran.h
REM seed 318267843 1796898945 2111340293 -1923219097 -2131294773 132978436 -1458374970 2083736112 -487952994 868511047 -1566494550 1726667543 -1307127394 1619362020 -1523528529 1402944283 -669823099 1639726430 -2021836800 1462106051 2122722756 -334748687 1568231456 -1551967036 1963169367 2112938686 -877293699 -1292458684 -1899460670 1155274527 -1217569956 632476172 -1568533070
REM
CELL 1.54180   50.00000   50.00000   50.00000   90.00000   90.00000   90.00000
LATT -1
SFAC C  
C      1  0.4876480000000  0.6016750000000  0.5036720000000 1.0
C      1  0.4968460000000  0.5766260000000  0.5137320000000 1.0
C      1  0.4493830000000  0.6003940000000  0.4372150000000 1.0
C      1  0.4396880000000  0.4409320000000  0.4108780000000 1.0
C      1  0.5895930000000  0.5358240000000  0.4990610000000 1.0
C      1  0.6042450000000  0.4186000000000  0.4881850000000 1.0
C      1  0.5424270000000  0.5175990000000  0.5413280000000 1.0
C      1  0.5209350000000  0.4537130000000  0.4014940000000 1.0
C      1  0.3677230000000  0.5168880000000  0.5010210000000 1.0
C      1  0.5104130000000  0.4465990000000  0.4933490000000 1.0
C      1  0.5606580000000  0.5394640000000  0.5446840000000 1.0
C      1  0.5412160000000  0.5308990000000  0.4082030000000 1.0
C      1  0.4948340000000  0.4593560000000  0.6053630000000 1.0
C      1  0.4278470000000  0.5403140000000  0.5052880000000 1.0
C      1  0.5747050000000  0.4836550000000  0.5566040000000 1.0
C      1  0.5396110000000  0.4736600000000  0.5231020000000 1.0
C      1  0.5454260000000  0.5110210000000  0.3871320000000 1.0
C      1  0.5602300000000  0.4519790000000  0.4429730000000 1.0
C      1  0.5971900000000  0.5395080000000  0.4688040000000 1.0
C      1  0.5953400000000  0.4468620000000  0.5290110000000 1.0
C      1  0.4571700000000  0.4446960000000  0.5600630000000 1.0
C      1  0.4560870000000  0.5389570000000  0.4206600000000 1.0
C      1  0.5688290000000  0.4795300000000  0.4340150000000 1.0
C      1  0.5549870000000  0.5834850000000  0.5897230000000 1.0
C      1  0.5383160000000  0.6345400000000  0.5356920000000 1.0
C      1  0.5876840000000  0.3953670000000  0.4874780000000 1.0
C      1  0.4319820000000  0.5918400000000  0.5281320000000 1.0
C      1  0.4723120000000  0.5080440000000  0.4785480000000 1.0
C      1  0.5024750000000  0.4631930000000  0.5562390000000 1.0
C      1  0.5764280000000  0.5472180000000  0.4492450000000 1.0
C      1  0.4549230000000  0.5768280000000  0.5344190000000 1.0
C      1  0.4458440000000  0.5788910000000  0.4794660000000 1.0
C      1  0.5365790000000  0.5738200000000  0.4500210000000 1.0
C      1  0.6103700000000  0.4408900000000  0.5045300000000 1.0
C      1  0.5124920000000  0.5342970000000  0.4143200000000 1.0
C      1  0.4688470000000  0.5116920000000  0.5306460000000 1.0
C      1  0.5549990000000  0.5356810000000  0.6052140000000 1.0
C      1  0.5108070000000  0.4738920000000  0.4561790000000 1.0
C      1  0.5195560000000  0.6302970000000  0.5150680000000 1.0
C      1  0.4479250000000  0.5367220000000  0.4483610000000 1.0
C      1  0.5119830000000  0.6125400000000  0.4646520000000 1.0
C      1  0.4901960000000  0.3779540000000  0.5792620000000 1.0
C      1  0.4745360000000  0.4123060000000  0.4349710000000 1.0
C      1  0.5527580000000  0.4912200000000  0.5410220000000 1.0
C      1  0.5222330000000  0.5029680000000  0.5905870000000 1.0
C      1  0.4184320000000  0.4685170000000  0.5456920000000 1.0
C      1  0.5808600000000  0.4842590000000  0.4088100000000 1.0
C      1  0.3994890000000  0.4563720000000  0.4744800000000 1.0
C      1  0.5189430000000  0.3864750000000  0.4499470000000 1.0
C      1  0.4746460000000  0.5375280000000  0.5409220000000 1.0
C      1  0.5567670000000  0.5038330000000  0.4742970000000 1.0
C      1  0.4167010000000  0.5174740000000  0.4060350000000 1.0
C      1  0.4169420000000  0.4543130000000  0.4241750000000 1.0
C      1  0.5163510000000  0.5365690000000  0.4779150000000 1.0
C      1  0.4403480000000  0.5128450000000  0.5230850000000 1.0
C      1  0.4579940000000  0.4535100000000  0.3932010000000 1.0
C      1  0.4643700000000  0.5343710000000  0.4721010000000 1.0
C      1  0.4542360000000  0.4888020000000  0.4389460000000 1.0
C      1  0.4787340000000  0.4820600000000  0.4244990000000 1.0
C      1  0.5064150000000  0.4729850000000  0.4836230000000 1.0
C      1  0.4922390000000  0.6224260000000  0.5230550000000 1.0
C      1  0.6290220000000  0.4606590000000  0.4968690000000 1.0
C      1  0.4740400000000  0.4209880000000  0.4813060000000 1.0
C      1  0.4108760000000  0.5277480000000  0.4809290000000 1.0
C      1  0.6024160000000  0.5238430000000  0.5248910000000 1.0
C      1  0.4556770000000  0.5532470000000  0.4937580000000 1.0
C      1  0.5658550000000  0.4014500000000  0.5298160000000 1.0
C      1  0.4197590000000  0.5312110000000  0.4535380000000 1.0
C      1  0.4732530000000  0.3982440000000  0.5338580000000 1.0
C      1  0.4851660000000  0.5255170000000  0.6173500000000 1.0
C      1  0.3309660000000  0.5330640000000  0.5349250000000 1.0
C      1  0.5405900000000  0.5908370000000  0.4957040000000 1.0
C      1  0.5034740000000  0.5091320000000  0.4265010000000 1.0
C      1  0.4507270000000  0.3953600000000  0.5165810000000 1.0
C      1  0.4088130000000  0.4196770000000  0.5367160000000 1.0
C      1  0.4635250000000  0.5956470000000  0.4626880000000 1.0
C      1  0.5659650000000  0.5803050000000  0.4851390000000 1.0
C      1  0.5275290000000  0.5684430000000  0.5134300000000 1.0
C      1  0.5547060000000  0.4657130000000  0.4992150000000 1.0
C      1  0.4618510000000  0.5470870000000  0.5655130000000 1.0
C      1  0.4572910000000  0.3982000000000  0.4885350000000 1.0
C      1  0.5831760000000  0.3854570000000  0.5135850000000 1.0
C      1  0.5138200000000  0.4721390000000  0.5847780000000 1.0
C      1  0.4991850000000  0.5604360000000  0.4118550000000 1.0
C      1  0.4899960000000  0.4308670000000  0.5028910000000 1.0
C      1  0.4991470000000  0.3881420000000  0.6021800000000 1.0
C      1  0.5048650000000  0.5277390000000  0.5961810000000 1.0
C      1  0.5394470000000  0.3859500000000  0.4705310000000 1.0
C      1  0.4389510000000  0.5362310000000  0.5755100000000 1.0
C      1  0.4112390000000  0.4495420000000  0.5002390000000 1.0
C      1  0.5784800000000  0.4292480000000  0.4358140000000 1.0
C      1  0.5214540000000  0.5965830000000  0.4419850000000 1.0
C      1  0.5757610000000  0.4996790000000  0.5807620000000 1.0
C      1  0.4961780000000  0.3933560000000  0.4362040000000 1.0
C      1  0.3896870000000  0.4830530000000  0.4738290000000 1.0
C      1  0.5772150000000  0.4263890000000  0.5377910000000 1.0
C      1  0.4397960000000  0.5004180000000  0.6034630000000 1.0
C      1  0.4925850000000  0.4952460000000  0.4937180000000 1.0
C      1  0.5515660000000  0.5091590000000  0.5944160000000 1.0
C      1  0.4614130000000  0.5754830000000  0.5619560000000 1.0
C      1  0.5963010000000  0.4743990000000  0.5399110000000 1.0
C      1  0.5311000000000  0.3865180000000  0.4979720000000 1.0
C      1  0.4428320000000  0.6184730000000  0.5372390000000 1.0
C      1  0.5204680000000  0.5520990000000  0.4570830000000 1.0
C      1  0.5224170000000  0.4959090000000  0.4425090000000 1.0
C      1  0.5534540000000  0.4507060000000  0.4737620000000 1.0
C      1  0.5103700000000  0.5868760000000  0.4171210000000 1.0
C      1  0.4391170000000  0.4496350000000  0.4970030000000 1.0
C      1  0.5569760000000  0.6059310000000  0.5753850000000 1.0
C      1  0.4251470000000  0.4174660000000  0.4485040000000 1.0
C      1  0.4520010000000  0.4661820000000  0.4813820000000 1.0
C      1  0.5390240000000  0.3960600000000  0.5222240000000 1.0
C      1  0.4097030000000  0.4427010000000  0.4503090000000 1.0
C      1  0.5590210000000  0.4396840000000  0.5944250000000 1.0
C      1  0.4054270000000  0.5234440000000  0.4301770000000 1.0
C      1  0.5116920000000  0.4758820000000  0.5327160000000 1.0
C      1  0.4808950000000  0.5961210000000  0.5674720000000 1.0
C      1  0.5398340000000  0.4558740000000  0.5874210000000 1.0
C      1  0.5556630000000  0.5613550000000  0.5279180000000 1.0
C      1  0.4439700000000  0.4749950000000  0.5925120000000 1.0
C      1  0.4763860000000  0.4775300000000  0.3946830000000 1.0
C      1  0.4446090000000  0.5207890000000  0.4012710000000 1.0
C      1  0.5681990000000  0.5150720000000  0.4949670000000 1.0
C      1  0.5188790000000  0.5213360000000  0.5254880000000 1.0
C      1  0.4552360000000  0.4889130000000  0.4667080000000 1.0
C      1  0.4585800000000  0.5868290000000  0.4144990000000 1.0
C      1  0.5143160000000  0.5560910000000  0.5904470000000 1.0
C      1  0.5227280000000  0.4958790000000  0.3779950000000 1.0
C      1  0.5423950000000  0.5594580000000  0.5967640000000 1.0
C      1  0.5759000000000  0.5628920000000  0.5058670000000 1.0
C      1  0.4193570000000  0.5856750000000  0.4693470000000 1.0
C      1  0.3894070000000  0.5091100000000  0.4852080000000 1.0
C      1  0.4965300000000  0.5004620000000  0.5225640000000 1.0
C      1  0.5705420000000  0.4978920000000  0.3878480000000 1.0
C      1  0.4736560000000  0.6185260000000  0.5463070000000 1.0
C      1  0.4610550000000  0.5026370000000  0.3864900000000 1.0
C      1  0.5595390000000  0.5291130000000  0.4321190000000 1.0
C      1  0.4068980000000  0.4469840000000  0.5288730000000 1.0
C      1  0.4514620000000  0.3773630000000  0.4717360000000 1.0
C      1  0.4671450000000  0.4633980000000  0.6043440000000 1.0
C      1  0.4931450000000  0.5318160000000  0.6429030000000 1.0
C      1  0.4586350000000  0.5170280000000  0.6133460000000 1.0
C      1  0.5521220000000  0.5019440000000  0.4455240000000 1.0
C      1  0.5888650000000  0.5331900000000  0.5491270000000 1.0
C      1  0.5282670000000  0.6160370000000  0.4898540000000 1.0
C      1  0.6297390000000  0.4858740000000  0.5065400000000 1.0
C      1  0.5761680000000  0.4030970000000  0.4418010000000 1.0
C      1  0.4900900000000  0.4591990000000  0.4422590000000 1.0
C      1  0.4834100000000  0.4424760000000  0.5508390000000 1.0
C      1  0.4366850000000  0.4625850000000  0.5675480000000 1.0
C      1  0.4214540000000  0.5988660000000  0.4450770000000 1.0
C      1  0.5941480000000  0.5211560000000  0.5743380000000 1.0
C      1  0.4225060000000  0.4939170000000  0.5335060000000 1.0
C      1  0.5681850000000  0.3912560000000  0.4661860000000 1.0
C      1  0.4859570000000  0.6060480000000  0.4754200000000 1.0
C      1  0.4467700000000  0.4171780000000  0.4275200000000 1.0
C      1  0.5063120000000  0.4741030000000  0.3871210000000 1.0
C      1  0.4863340000000  0.4233990000000  0.5299350000000 1.0
C      1  0.5013820000000  0.5809900000000  0.5817890000000 1.0
C      1  0.3489950000000  0.5249500000000  0.5179340000000 1.0
C      1  0.4707590000000  0.5613490000000  0.4122530000000 1.0
C      1  0.4798680000000  0.4336350000000  0.4542300000000 1.0
C      1  0.5035650000000  0.4361890000000  0.6189870000000 1.0
C      1  0.5043340000000  0.4095790000000  0.6171280000000 1.0
C      1  0.4729650000000  0.5588410000000  0.5190400000000 1.0
C      1  0.6110820000000  0.4958500000000  0.5253310000000 1.0
C      1  0.5632630000000  0.5714230000000  0.4581320000000 1.0
C      1  0.4148550000000  0.5695690000000  0.5183420000000 1.0
C      1  0.4252060000000  0.4000840000000  0.5277740000000 1.0
C      1  0.5509510000000  0.6241680000000  0.5568460000000 1.0
C      1  0.5218780000000  0.5399580000000  0.5046220000000 1.0
C      1  0.5315040000000  0.4336010000000  0.4797330000000 1.0
C      1  0.5365780000000  0.4468150000000  0.4224400000000 1.0
C      1  0.4805890000000  0.3813040000000  0.5546660000000 1.0
END
