TITL C-627112-676-178 0.000131830256349618 125000 -816.531301843318 0 0 134 (C1) n - 1
REM
REM in /home/nfs/bkarasulu/CARBON/AIRSS/Generating-Clusters/LCBOP/Only-C1/SD-CG/FIRE-CG
REM
REM
REM
REM
REM
REM ./C.cell (11c1c37f851c82e70ff6c80c92926a4b)
REM AIRSS Version 0.9.1 bugfix July 2018 build 013d7b7c2542+ Fri, 06 Jul 2018 19:26:36 +0100
REM compiler GCC version 9.2.1 20190827 (Red Hat 9.2.1-1)
REM options -cpp -mtune=generic -march=x86-64 -g -O0 -fpre-include=/usr/include/finclude/math-vector-fortran.h
REM seed 1959977605 -1009702505 1389897762 -625150575 -57668977 1111687346 -373319892 -1265418760 -284049879 -669110884 583467096 -1466958528 -1078396460 1756116420 1924345629 -609654851 -2007202261 1504760761 1335434035 1721852974 -1564200845 -417068763 379059446 1198917701 556321384 274282848 624408482 724872911 753452380 -1153196225 132791236 -1046003826 -1362496425
REM
CELL 1.54180   50.00000   50.00000   50.00000   90.00000   90.00000   90.00000
LATT -1
SFAC C  
C      1  0.6574210000000  0.4837700000000  0.4502180000000 1.0
C      1  0.3733060000000  0.5986840000000  0.5024370000000 1.0
C      1  0.5546140000000  0.4030550000000  0.5138970000000 1.0
C      1  0.4287960000000  0.5208150000000  0.3914890000000 1.0
C      1  0.4560130000000  0.5753100000000  0.4697660000000 1.0
C      1  0.5170680000000  0.5594490000000  0.5591920000000 1.0
C      1  0.4763540000000  0.3899120000000  0.5300500000000 1.0
C      1  0.4721700000000  0.5137570000000  0.5918900000000 1.0
C      1  0.4317230000000  0.5332500000000  0.4749000000000 1.0
C      1  0.6096940000000  0.4923830000000  0.5088480000000 1.0
C      1  0.4115600000000  0.4898760000000  0.4809960000000 1.0
C      1  0.4754960000000  0.5001990000000  0.4699450000000 1.0
C      1  0.5610140000000  0.4126260000000  0.5383440000000 1.0
C      1  0.4840290000000  0.5293740000000  0.5282240000000 1.0
C      1  0.5048920000000  0.4240380000000  0.4661530000000 1.0
C      1  0.4346960000000  0.5606660000000  0.4820090000000 1.0
C      1  0.5999710000000  0.5336840000000  0.4870520000000 1.0
C      1  0.4996520000000  0.5902500000000  0.4957470000000 1.0
C      1  0.4988300000000  0.4860160000000  0.4757820000000 1.0
C      1  0.4412260000000  0.4447700000000  0.4300780000000 1.0
C      1  0.4639590000000  0.4510660000000  0.4913630000000 1.0
C      1  0.4949730000000  0.4766660000000  0.4248230000000 1.0
C      1  0.5096920000000  0.4643220000000  0.5927200000000 1.0
C      1  0.4389450000000  0.4364330000000  0.5658320000000 1.0
C      1  0.4791820000000  0.5760920000000  0.5378210000000 1.0
C      1  0.5087110000000  0.4812790000000  0.5696790000000 1.0
C      1  0.5378020000000  0.5195130000000  0.5484140000000 1.0
C      1  0.5174670000000  0.4435310000000  0.4492020000000 1.0
C      1  0.4764080000000  0.5310660000000  0.3912320000000 1.0
C      1  0.4132130000000  0.4328260000000  0.5250410000000 1.0
C      1  0.5109320000000  0.4375920000000  0.4041580000000 1.0
C      1  0.3391300000000  0.6351400000000  0.4861290000000 1.0
C      1  0.4005250000000  0.4692540000000  0.4966000000000 1.0
C      1  0.5321670000000  0.4427950000000  0.4236280000000 1.0
C      1  0.5924930000000  0.5164770000000  0.4223020000000 1.0
C      1  0.4146680000000  0.5738130000000  0.4962890000000 1.0
C      1  0.4968470000000  0.5220650000000  0.4087510000000 1.0
C      1  0.5296800000000  0.4831230000000  0.5175240000000 1.0
C      1  0.5410330000000  0.3991110000000  0.4908110000000 1.0
C      1  0.5472950000000  0.5825380000000  0.4924760000000 1.0
C      1  0.4611730000000  0.6161500000000  0.4094880000000 1.0
C      1  0.4686390000000  0.5388460000000  0.5743940000000 1.0
C      1  0.4873010000000  0.4531060000000  0.4094500000000 1.0
C      1  0.4315060000000  0.4558510000000  0.4538130000000 1.0
C      1  0.5218570000000  0.5818970000000  0.4798490000000 1.0
C      1  0.3872260000000  0.5647890000000  0.5344600000000 1.0
C      1  0.5144290000000  0.4350340000000  0.5316040000000 1.0
C      1  0.5932560000000  0.4922970000000  0.4367430000000 1.0
C      1  0.5259820000000  0.5026350000000  0.5655580000000 1.0
C      1  0.5530190000000  0.4771950000000  0.5288590000000 1.0
C      1  0.5686870000000  0.5262860000000  0.5884170000000 1.0
C      1  0.6801880000000  0.4936980000000  0.4423300000000 1.0
C      1  0.4379670000000  0.4446830000000  0.4802010000000 1.0
C      1  0.4878580000000  0.4762110000000  0.5520390000000 1.0
C      1  0.5397120000000  0.5465760000000  0.4505760000000 1.0
C      1  0.5754780000000  0.4716130000000  0.4282600000000 1.0
C      1  0.4463180000000  0.5472790000000  0.4282450000000 1.0
C      1  0.5759370000000  0.4778540000000  0.5449930000000 1.0
C      1  0.4188230000000  0.4819410000000  0.4542410000000 1.0
C      1  0.5712860000000  0.4977670000000  0.5890680000000 1.0
C      1  0.5103140000000  0.4952090000000  0.5005520000000 1.0
C      1  0.4135050000000  0.4344070000000  0.5535500000000 1.0
C      1  0.5050940000000  0.4700930000000  0.4521130000000 1.0
C      1  0.5183230000000  0.5653460000000  0.4567110000000 1.0
C      1  0.5710800000000  0.4741010000000  0.5729870000000 1.0
C      1  0.5498200000000  0.4656430000000  0.4176050000000 1.0
C      1  0.4576570000000  0.5181880000000  0.5308820000000 1.0
C      1  0.4922440000000  0.5330050000000  0.4343840000000 1.0
C      1  0.4725710000000  0.4093860000000  0.5494060000000 1.0
C      1  0.4740100000000  0.5911460000000  0.4844950000000 1.0
C      1  0.4846170000000  0.4654520000000  0.6068130000000 1.0
C      1  0.5455030000000  0.5412670000000  0.5958660000000 1.0
C      1  0.5578670000000  0.5518000000000  0.4296960000000 1.0
C      1  0.6326960000000  0.4738730000000  0.4585790000000 1.0
C      1  0.5508920000000  0.4706910000000  0.4781570000000 1.0
C      1  0.3914780000000  0.5793640000000  0.5109550000000 1.0
C      1  0.5870800000000  0.5531140000000  0.5478670000000 1.0
C      1  0.5232990000000  0.5566800000000  0.5871850000000 1.0
C      1  0.5499750000000  0.5759860000000  0.5213660000000 1.0
C      1  0.4665750000000  0.4436780000000  0.6073720000000 1.0
C      1  0.4311960000000  0.5290010000000  0.4461840000000 1.0
C      1  0.4500720000000  0.5373340000000  0.4006190000000 1.0
C      1  0.5061910000000  0.5213550000000  0.5125610000000 1.0
C      1  0.5164290000000  0.3992060000000  0.4759870000000 1.0
C      1  0.4747940000000  0.5599820000000  0.5956430000000 1.0
C      1  0.6101430000000  0.4913690000000  0.4599620000000 1.0
C      1  0.4607220000000  0.4719260000000  0.5121420000000 1.0
C      1  0.6242830000000  0.4226510000000  0.4731100000000 1.0
C      1  0.5509890000000  0.4965710000000  0.4701430000000 1.0
C      1  0.5790090000000  0.5392920000000  0.4190990000000 1.0
C      1  0.5094280000000  0.4966820000000  0.4099040000000 1.0
C      1  0.4641650000000  0.5701680000000  0.4408780000000 1.0
C      1  0.5755790000000  0.5614760000000  0.5239410000000 1.0
C      1  0.4207530000000  0.5036800000000  0.4359970000000 1.0
C      1  0.4611020000000  0.4440360000000  0.4122670000000 1.0
C      1  0.5008840000000  0.5639650000000  0.6033640000000 1.0
C      1  0.4757910000000  0.5181900000000  0.4509030000000 1.0
C      1  0.3560790000000  0.6170590000000  0.4942180000000 1.0
C      1  0.3680710000000  0.4339530000000  0.5824960000000 1.0
C      1  0.5137790000000  0.4428830000000  0.5054900000000 1.0
C      1  0.6066680000000  0.5063140000000  0.4844550000000 1.0
C      1  0.4609500000000  0.4363340000000  0.5459600000000 1.0
C      1  0.5308700000000  0.5294290000000  0.5242840000000 1.0
C      1  0.4532210000000  0.4261360000000  0.5898030000000 1.0
C      1  0.4939230000000  0.5601900000000  0.4425480000000 1.0
C      1  0.4162950000000  0.5034140000000  0.4081440000000 1.0
C      1  0.6297200000000  0.4470010000000  0.4655810000000 1.0
C      1  0.5433570000000  0.5216040000000  0.4637770000000 1.0
C      1  0.5380160000000  0.4503270000000  0.4908560000000 1.0
C      1  0.4458980000000  0.5285870000000  0.5555300000000 1.0
C      1  0.4905940000000  0.4380920000000  0.4881880000000 1.0
C      1  0.4484950000000  0.4992870000000  0.5115240000000 1.0
C      1  0.3899590000000  0.4341210000000  0.5683520000000 1.0
C      1  0.4975820000000  0.3799880000000  0.4846940000000 1.0
C      1  0.4622720000000  0.5947960000000  0.4243550000000 1.0
C      1  0.6000070000000  0.4834200000000  0.5320240000000 1.0
C      1  0.4158220000000  0.4453120000000  0.4998960000000 1.0
C      1  0.4738160000000  0.4917620000000  0.6070960000000 1.0
C      1  0.5574640000000  0.4490990000000  0.5789670000000 1.0
C      1  0.5869800000000  0.5563460000000  0.4971860000000 1.0
C      1  0.5018240000000  0.5876220000000  0.5239230000000 1.0
C      1  0.5721770000000  0.5746900000000  0.4804430000000 1.0
C      1  0.5862190000000  0.5402160000000  0.5711790000000 1.0
C      1  0.5339880000000  0.4502610000000  0.5951140000000 1.0
C      1  0.5360400000000  0.4880000000000  0.4051810000000 1.0
C      1  0.3975030000000  0.5477090000000  0.5520530000000 1.0
C      1  0.4694250000000  0.4617880000000  0.5373010000000 1.0
C      1  0.4690540000000  0.4046510000000  0.5778380000000 1.0
C      1  0.5616100000000  0.4270550000000  0.5611700000000 1.0
C      1  0.4190280000000  0.5340430000000  0.5595330000000 1.0
C      1  0.4880680000000  0.5498980000000  0.5511810000000 1.0
C      1  0.4295010000000  0.5094460000000  0.4916870000000 1.0
C      1  0.5263190000000  0.5773760000000  0.5372360000000 1.0
C      1  0.4829860000000  0.3781830000000  0.5070900000000 1.0
END
