TITL C-627106-156-1550 171443.242301066 125000 -1075.90471744838 0 0 176 (C1) n - 1
REM
REM in /home/nfs/bkarasulu/CARBON/AIRSS/Generating-Clusters/LCBOP/Only-C1/SD-CG/FIRE-CG
REM
REM
REM
REM
REM
REM ./C.cell (11c1c37f851c82e70ff6c80c92926a4b)
REM AIRSS Version 0.9.1 bugfix July 2018 build 013d7b7c2542+ Fri, 06 Jul 2018 19:26:36 +0100
REM compiler GCC version 9.2.1 20190827 (Red Hat 9.2.1-1)
REM options -cpp -mtune=generic -march=x86-64 -g -O0 -fpre-include=/usr/include/finclude/math-vector-fortran.h
REM seed 1007305633 1665815915 1942989058 249893167 1163826810 -1071277561 367742189 172633826 -984611545 -1541009662 2095058796 461310822 -836204873 1996461454 -128112361 674887356 1846741307 -195458779 -1272717194 -152375071 1243876112 688329977 -202695710 -883207910 2028309529 -1383197133 -1285768511 1971997103 -935245948 653602949 1601218428 -1439964311 -1908604393
REM
CELL 1.54180   50.00000   50.00000   50.00000   90.00000   90.00000   90.00000
LATT -1
SFAC C  
C      1  0.4248980000000  0.4926090000000  0.5959250000000 1.0
C      1  0.4811740000000  0.4304360000000  0.4792670000000 1.0
C      1  0.4831600000000  0.5141970000000  0.3941290000000 1.0
C      1  0.5660510000000  0.5739450000000  0.5015600000000 1.0
C      1  0.4938630000000  0.6153500000000  0.5187610000000 1.0
C      1  0.4343410000000  0.4771920000000  0.6173350000000 1.0
C      1  0.5972880000000  0.4898820000000  0.4325980000000 1.0
C      1  0.4972220000000  0.5915170000000  0.5822490000000 1.0
C      1  0.4891280000000  0.4350080000000  0.5055870000000 1.0
C      1  0.6404740000000  0.5342490000000  0.4946420000000 1.0
C      1  0.5242000000000  0.5259730000000  0.6051310000000 1.0
C      1  0.5206020000000  0.5109570000000  0.4843360000000 1.0
C      1  0.5472010000000  0.6141510000000  0.5126370000000 1.0
C      1  0.4914210000000  0.4049410000000  0.4681070000000 1.0
C      1  0.5071620000000  0.5526310000000  0.5024940000000 1.0
C      1  0.5517770000000  0.4477980000000  0.4414740000000 1.0
C      1  0.5260960000000  0.4667100000000  0.4858300000000 1.0
C      1  0.4662230000000  0.5396470000000  0.4896260000000 1.0
C      1  0.6028180000000  0.4626050000000  0.5560500000000 1.0
C      1  0.4383510000000  0.6161780000000  0.3973250000000 1.0
C      1  0.5067930000000  0.6007730000000  0.3803850000000 1.0
C      1  0.4061640000000  0.5284240000000  0.5007200000000 1.0
C      1  0.4201240000000  0.5833650000000  0.4322960000000 1.0
C      1  0.5348450000000  0.4267310000000  0.5588590000000 1.0
C      1  0.4272830000000  0.4507520000000  0.4032670000000 1.0
C      1  0.5644040000000  0.4302140000000  0.5610250000000 1.0
C      1  0.5529480000000  0.4866750000000  0.5359990000000 1.0
C      1  0.4041150000000  0.5543000000000  0.5640900000000 1.0
C      1  0.4899470000000  0.5524170000000  0.4792730000000 1.0
C      1  0.5473750000000  0.5162110000000  0.5381820000000 1.0
C      1  0.4451810000000  0.5241370000000  0.4739030000000 1.0
C      1  0.5159440000000  0.5765790000000  0.3736670000000 1.0
C      1  0.5302510000000  0.4692610000000  0.4338480000000 1.0
C      1  0.5120480000000  0.4716340000000  0.5148590000000 1.0
C      1  0.4665630000000  0.5340630000000  0.5183960000000 1.0
C      1  0.5524080000000  0.5439040000000  0.5351290000000 1.0
C      1  0.5153030000000  0.4076140000000  0.4211400000000 1.0
C      1  0.4454340000000  0.4390040000000  0.5681060000000 1.0
C      1  0.4822700000000  0.5913530000000  0.5278060000000 1.0
C      1  0.5199640000000  0.4563590000000  0.4080950000000 1.0
C      1  0.6033700000000  0.5355580000000  0.5544350000000 1.0
C      1  0.5406360000000  0.5955000000000  0.4680790000000 1.0
C      1  0.5155420000000  0.5255860000000  0.5070080000000 1.0
C      1  0.4227050000000  0.6010630000000  0.4126750000000 1.0
C      1  0.5836580000000  0.5548440000000  0.5643260000000 1.0
C      1  0.4802280000000  0.3928860000000  0.5154760000000 1.0
C      1  0.5879840000000  0.4536600000000  0.4049660000000 1.0
C      1  0.5779300000000  0.4428160000000  0.4288660000000 1.0
C      1  0.4207860000000  0.4448590000000  0.5254680000000 1.0
C      1  0.5236600000000  0.4519550000000  0.5665560000000 1.0
C      1  0.4944970000000  0.4633440000000  0.3973500000000 1.0
C      1  0.4942700000000  0.4115250000000  0.4398350000000 1.0
C      1  0.4513990000000  0.3983940000000  0.5090920000000 1.0
C      1  0.5784000000000  0.4489530000000  0.5067150000000 1.0
C      1  0.4304060000000  0.5781820000000  0.4799920000000 1.0
C      1  0.4278830000000  0.5399430000000  0.4548540000000 1.0
C      1  0.4586000000000  0.4202050000000  0.5497350000000 1.0
C      1  0.5666500000000  0.5422780000000  0.5847230000000 1.0
C      1  0.4732730000000  0.5352920000000  0.5657930000000 1.0
C      1  0.5169230000000  0.4281360000000  0.5074650000000 1.0
C      1  0.5946600000000  0.4333640000000  0.4518390000000 1.0
C      1  0.4236610000000  0.4557550000000  0.5548400000000 1.0
C      1  0.5259090000000  0.4279790000000  0.4061620000000 1.0
C      1  0.5288930000000  0.3871840000000  0.4977100000000 1.0
C      1  0.4762370000000  0.5340360000000  0.5960350000000 1.0
C      1  0.5493710000000  0.4300150000000  0.4648920000000 1.0
C      1  0.5029420000000  0.5353190000000  0.4029640000000 1.0
C      1  0.5014600000000  0.6145280000000  0.4913720000000 1.0
C      1  0.5593010000000  0.4943210000000  0.6037250000000 1.0
C      1  0.5724790000000  0.5265660000000  0.4754540000000 1.0
C      1  0.4461420000000  0.5414560000000  0.6026890000000 1.0
C      1  0.4141460000000  0.4987800000000  0.4353740000000 1.0
C      1  0.5792270000000  0.4544670000000  0.5698730000000 1.0
C      1  0.5429190000000  0.4820100000000  0.6233380000000 1.0
C      1  0.4489310000000  0.5715800000000  0.6015500000000 1.0
C      1  0.4587970000000  0.4993070000000  0.4631780000000 1.0
C      1  0.5682170000000  0.4995180000000  0.4701890000000 1.0
C      1  0.4196880000000  0.4096460000000  0.4215230000000 1.0
C      1  0.5711770000000  0.4204980000000  0.5143020000000 1.0
C      1  0.4625640000000  0.4735100000000  0.4728100000000 1.0
C      1  0.5004140000000  0.5665170000000  0.5291300000000 1.0
C      1  0.5240370000000  0.4643780000000  0.6162940000000 1.0
C      1  0.5652210000000  0.5938170000000  0.5230910000000 1.0
C      1  0.4548100000000  0.5926750000000  0.4879900000000 1.0
C      1  0.4077680000000  0.4497490000000  0.4503550000000 1.0
C      1  0.5712760000000  0.4958000000000  0.4421800000000 1.0
C      1  0.4824940000000  0.4542830000000  0.4595520000000 1.0
C      1  0.4774830000000  0.4640030000000  0.5453260000000 1.0
C      1  0.4973120000000  0.5610720000000  0.4522130000000 1.0
C      1  0.6044840000000  0.4559920000000  0.4954220000000 1.0
C      1  0.4926240000000  0.6038360000000  0.4263300000000 1.0
C      1  0.4253560000000  0.5224020000000  0.5951190000000 1.0
C      1  0.4091000000000  0.4370900000000  0.4763230000000 1.0
C      1  0.5712400000000  0.4749820000000  0.5874230000000 1.0
C      1  0.5529330000000  0.3995070000000  0.5039130000000 1.0
C      1  0.5223350000000  0.3798400000000  0.5617320000000 1.0
C      1  0.4554990000000  0.5877460000000  0.5175950000000 1.0
C      1  0.6190950000000  0.4735050000000  0.5127630000000 1.0
C      1  0.4436770000000  0.4940570000000  0.5117990000000 1.0
C      1  0.5499550000000  0.4855500000000  0.4877370000000 1.0
C      1  0.4604940000000  0.4735780000000  0.5012120000000 1.0
C      1  0.4293110000000  0.5130640000000  0.4958700000000 1.0
C      1  0.5153850000000  0.4487480000000  0.5946720000000 1.0
C      1  0.4526630000000  0.4578880000000  0.6132740000000 1.0
C      1  0.6147600000000  0.5324110000000  0.4985430000000 1.0
C      1  0.5375410000000  0.5310420000000  0.4397220000000 1.0
C      1  0.4309620000000  0.5741070000000  0.5255710000000 1.0
C      1  0.4404870000000  0.4202750000000  0.5251880000000 1.0
C      1  0.4553230000000  0.5105850000000  0.5305430000000 1.0
C      1  0.5119800000000  0.5434570000000  0.4311450000000 1.0
C      1  0.5265380000000  0.5660100000000  0.5457140000000 1.0
C      1  0.6144490000000  0.4774960000000  0.4519870000000 1.0
C      1  0.4890680000000  0.6111200000000  0.3994480000000 1.0
C      1  0.4418780000000  0.4077670000000  0.4048610000000 1.0
C      1  0.4830790000000  0.4614840000000  0.5167030000000 1.0
C      1  0.4640180000000  0.6212110000000  0.3920150000000 1.0
C      1  0.4282110000000  0.4773890000000  0.3954790000000 1.0
C      1  0.4746680000000  0.4457270000000  0.4078670000000 1.0
C      1  0.4987020000000  0.5128330000000  0.5973890000000 1.0
C      1  0.5450530000000  0.5019730000000  0.4321910000000 1.0
C      1  0.5548390000000  0.5719000000000  0.4744760000000 1.0
C      1  0.4072750000000  0.4552470000000  0.4999630000000 1.0
C      1  0.4565340000000  0.5131120000000  0.5578380000000 1.0
C      1  0.4804130000000  0.5472190000000  0.5406440000000 1.0
C      1  0.5710520000000  0.5495900000000  0.5145750000000 1.0
C      1  0.4860370000000  0.4064380000000  0.5430200000000 1.0
C      1  0.4896080000000  0.5890600000000  0.4497650000000 1.0
C      1  0.5753160000000  0.4171490000000  0.4657970000000 1.0
C      1  0.4006910000000  0.5036450000000  0.5588640000000 1.0
C      1  0.4904130000000  0.5572420000000  0.6111680000000 1.0
C      1  0.4046470000000  0.4787040000000  0.4547970000000 1.0
C      1  0.5137930000000  0.5514080000000  0.3822370000000 1.0
C      1  0.6133630000000  0.4829750000000  0.5391660000000 1.0
C      1  0.4367450000000  0.3834610000000  0.4915790000000 1.0
C      1  0.4124080000000  0.4376450000000  0.4253710000000 1.0
C      1  0.5766730000000  0.5811360000000  0.5489040000000 1.0
C      1  0.5334200000000  0.4378900000000  0.4864080000000 1.0
C      1  0.6085820000000  0.4538140000000  0.4669520000000 1.0
C      1  0.4066690000000  0.5282030000000  0.5731230000000 1.0
C      1  0.4175070000000  0.5722900000000  0.5497410000000 1.0
C      1  0.4151050000000  0.4804470000000  0.5694520000000 1.0
C      1  0.5101770000000  0.4978730000000  0.5538130000000 1.0
C      1  0.5300320000000  0.6123470000000  0.4885930000000 1.0
C      1  0.5000170000000  0.3895010000000  0.4924570000000 1.0
C      1  0.5142000000000  0.4054140000000  0.5540660000000 1.0
C      1  0.5984680000000  0.4786970000000  0.4065430000000 1.0
C      1  0.5194890000000  0.5823160000000  0.5687960000000 1.0
C      1  0.4807720000000  0.4375590000000  0.4344140000000 1.0
C      1  0.4178280000000  0.5619060000000  0.5022220000000 1.0
C      1  0.4510160000000  0.4344750000000  0.3976170000000 1.0
C      1  0.4336640000000  0.4986570000000  0.4130020000000 1.0
C      1  0.5099730000000  0.4716890000000  0.4592740000000 1.0
C      1  0.5870110000000  0.5335290000000  0.4982780000000 1.0
C      1  0.5631460000000  0.4739200000000  0.5121520000000 1.0
C      1  0.4815760000000  0.5109850000000  0.4507880000000 1.0
C      1  0.5166070000000  0.5502190000000  0.6179970000000 1.0
C      1  0.4905960000000  0.4884340000000  0.3857250000000 1.0
C      1  0.6116650000000  0.5105430000000  0.5473120000000 1.0
C      1  0.5549680000000  0.5452630000000  0.4611870000000 1.0
C      1  0.4804620000000  0.6014810000000  0.4746070000000 1.0
C      1  0.4956770000000  0.4929170000000  0.5775360000000 1.0
C      1  0.5513250000000  0.5211840000000  0.5972600000000 1.0
C      1  0.5181420000000  0.5164080000000  0.5338850000000 1.0
C      1  0.4684240000000  0.5284340000000  0.4324940000000 1.0
C      1  0.5021660000000  0.4254770000000  0.6017360000000 1.0
C      1  0.5781990000000  0.4152490000000  0.5414140000000 1.0
C      1  0.4266720000000  0.5678950000000  0.4543800000000 1.0
C      1  0.3967980000000  0.4814510000000  0.4851750000000 1.0
C      1  0.5255410000000  0.4734480000000  0.5443680000000 1.0
C      1  0.4783040000000  0.4708730000000  0.5730210000000 1.0
C      1  0.4772360000000  0.5806840000000  0.5999740000000 1.0
C      1  0.4077890000000  0.5252040000000  0.4422490000000 1.0
C      1  0.4614620000000  0.4531880000000  0.5871950000000 1.0
C      1  0.5052050000000  0.5015840000000  0.4627660000000 1.0
C      1  0.4580760000000  0.5155680000000  0.4093360000000 1.0
C      1  0.3862100000000  0.5075230000000  0.4955100000000 1.0
END
