TITL C-627108-131-791 -0.215396835402646 125000 -439.860319597728 0 0 74 (C1) n - 1
REM
REM in /home/nfs/bkarasulu/CARBON/AIRSS/Generating-Clusters/LCBOP/Only-C1/SD-CG/FIRE-CG
REM
REM
REM
REM
REM
REM ./C.cell (11c1c37f851c82e70ff6c80c92926a4b)
REM AIRSS Version 0.9.1 bugfix July 2018 build 013d7b7c2542+ Fri, 06 Jul 2018 19:26:36 +0100
REM compiler GCC version 9.2.1 20190827 (Red Hat 9.2.1-1)
REM options -cpp -mtune=generic -march=x86-64 -g -O0 -fpre-include=/usr/include/finclude/math-vector-fortran.h
REM seed 1815109187 2093401747 887965454 1106778432 927412101 171130494 1386314251 932175431 -1211175886 -1175749389 1457252635 -218655421 -1251048793 8601570 -1499089899 157698191 1973936760 1812174285 -1137015048 -446726131 -1787866329 1147848240 -972752559 -1444606814 -584008350 945667372 -324677584 806816110 1763854847 -1396721659 -1280438412 905323237 1660171362
REM
CELL 1.54180   50.00000   50.00000   50.00000   90.00000   90.00000   90.00000
LATT -1
SFAC C  
C      1  0.5060260000000  0.4986090000000  0.5874830000000 1.0
C      1  0.5084890000000  0.5788720000000  0.5037510000000 1.0
C      1  0.4777150000000  0.4695470000000  0.4922220000000 1.0
C      1  0.5244870000000  0.5525280000000  0.5001980000000 1.0
C      1  0.5447750000000  0.5599570000000  0.4764940000000 1.0
C      1  0.4718890000000  0.5309120000000  0.5127390000000 1.0
C      1  0.4665800000000  0.5144910000000  0.5655140000000 1.0
C      1  0.4501000000000  0.5589440000000  0.5542960000000 1.0
C      1  0.4149130000000  0.5340430000000  0.5296440000000 1.0
C      1  0.4723860000000  0.4236070000000  0.4982430000000 1.0
C      1  0.5786080000000  0.4962570000000  0.4974870000000 1.0
C      1  0.4364260000000  0.4616740000000  0.5332470000000 1.0
C      1  0.4634920000000  0.6474270000000  0.5604960000000 1.0
C      1  0.5546070000000  0.4618710000000  0.5626630000000 1.0
C      1  0.5376890000000  0.4771950000000  0.4350080000000 1.0
C      1  0.5259750000000  0.5029120000000  0.5011970000000 1.0
C      1  0.5374910000000  0.5031350000000  0.5498100000000 1.0
C      1  0.4864220000000  0.5090390000000  0.5237840000000 1.0
C      1  0.4269330000000  0.5559480000000  0.5404840000000 1.0
C      1  0.5648920000000  0.4544130000000  0.5100270000000 1.0
C      1  0.4607520000000  0.4508810000000  0.5430190000000 1.0
C      1  0.4258800000000  0.4841820000000  0.5188880000000 1.0
C      1  0.5198770000000  0.5417680000000  0.5299620000000 1.0
C      1  0.5246040000000  0.4757610000000  0.4933590000000 1.0
C      1  0.5291260000000  0.5071150000000  0.5765780000000 1.0
C      1  0.5121560000000  0.5315700000000  0.4584700000000 1.0
C      1  0.4636590000000  0.5466650000000  0.4927430000000 1.0
C      1  0.5386160000000  0.5429340000000  0.4519040000000 1.0
C      1  0.4398050000000  0.5072550000000  0.5587270000000 1.0
C      1  0.5060920000000  0.5979530000000  0.4844640000000 1.0
C      1  0.4980730000000  0.5553010000000  0.5447300000000 1.0
C      1  0.5309100000000  0.4509280000000  0.5702020000000 1.0
C      1  0.4857650000000  0.6040740000000  0.5408240000000 1.0
C      1  0.4935810000000  0.4088080000000  0.4845410000000 1.0
C      1  0.4235640000000  0.5076850000000  0.5352570000000 1.0
C      1  0.4280560000000  0.4843360000000  0.4903010000000 1.0
C      1  0.5555250000000  0.5246420000000  0.4378000000000 1.0
C      1  0.5018820000000  0.4708840000000  0.4779420000000 1.0
C      1  0.4802190000000  0.4643230000000  0.5624740000000 1.0
C      1  0.5279330000000  0.3786130000000  0.4691880000000 1.0
C      1  0.4824720000000  0.4915880000000  0.5734980000000 1.0
C      1  0.5375440000000  0.4522380000000  0.5041850000000 1.0
C      1  0.5171180000000  0.4892550000000  0.4184420000000 1.0
C      1  0.4768040000000  0.4845000000000  0.5152470000000 1.0
C      1  0.4479810000000  0.4997810000000  0.4473850000000 1.0
C      1  0.4683490000000  0.5491370000000  0.4663970000000 1.0
C      1  0.5177590000000  0.5113410000000  0.5290010000000 1.0
C      1  0.5024540000000  0.4312130000000  0.5363630000000 1.0
C      1  0.4752110000000  0.4306710000000  0.5264180000000 1.0
C      1  0.4762590000000  0.4418530000000  0.4536750000000 1.0
C      1  0.5720380000000  0.4940320000000  0.4711010000000 1.0
C      1  0.5277000000000  0.4509300000000  0.4445120000000 1.0
C      1  0.4741040000000  0.5430380000000  0.5581670000000 1.0
C      1  0.5047820000000  0.4476730000000  0.5600580000000 1.0
C      1  0.5723900000000  0.4800450000000  0.5202030000000 1.0
C      1  0.5163560000000  0.5256910000000  0.4863180000000 1.0
C      1  0.5233320000000  0.4323930000000  0.5178580000000 1.0
C      1  0.5563960000000  0.4968710000000  0.4473130000000 1.0
C      1  0.4387860000000  0.4721860000000  0.4457040000000 1.0
C      1  0.5177600000000  0.4042210000000  0.4691640000000 1.0
C      1  0.4608040000000  0.4459380000000  0.4808030000000 1.0
C      1  0.5849930000000  0.5397390000000  0.3947070000000 1.0
C      1  0.4963090000000  0.5806990000000  0.5301890000000 1.0
C      1  0.5322640000000  0.4241480000000  0.4537670000000 1.0
C      1  0.5010580000000  0.4560520000000  0.4541350000000 1.0
C      1  0.4357320000000  0.4607320000000  0.4729090000000 1.0
C      1  0.4729130000000  0.5101910000000  0.4371400000000 1.0
C      1  0.5707170000000  0.5326640000000  0.4158720000000 1.0
C      1  0.4746910000000  0.6260150000000  0.5507120000000 1.0
C      1  0.4848770000000  0.5326820000000  0.4504860000000 1.0
C      1  0.5587240000000  0.4845200000000  0.5453650000000 1.0
C      1  0.4351560000000  0.5073320000000  0.4730610000000 1.0
C      1  0.4911550000000  0.4969280000000  0.4198220000000 1.0
C      1  0.5990430000000  0.5466430000000  0.3738610000000 1.0
END
