TITL C-627108-131-107 -9375.46490001417 125000 -818.082354883031 0 0 135 (C1) n - 1
REM
REM in /home/nfs/bkarasulu/CARBON/AIRSS/Generating-Clusters/LCBOP/Only-C1/SD-CG/FIRE-CG
REM
REM
REM
REM
REM
REM ./C.cell (11c1c37f851c82e70ff6c80c92926a4b)
REM AIRSS Version 0.9.1 bugfix July 2018 build 013d7b7c2542+ Fri, 06 Jul 2018 19:26:36 +0100
REM compiler GCC version 9.2.1 20190827 (Red Hat 9.2.1-1)
REM options -cpp -mtune=generic -march=x86-64 -g -O0 -fpre-include=/usr/include/finclude/math-vector-fortran.h
REM seed 1350587830 1150227149 -499580475 1799541464 -2024298905 997342366 814255993 -1151495417 276405408 2519318 446583846 375642035 -855613358 1068597394 -1776410981 1182107228 84852148 -1134223162 -201115341 -156384795 -500486665 -621959390 89038075 -1352955837 861402407 1094398937 -1089310532 -1337751373 1995989787 1005664064 1416524651 -1116540433 -2131498363
REM
CELL 1.54180   50.00000   50.00000   50.00000   90.00000   90.00000   90.00000
LATT -1
SFAC C  
C      1  0.4745090000000  0.4760920000000  0.5571190000000 1.0
C      1  0.4569010000000  0.5188180000000  0.5492980000000 1.0
C      1  0.5216540000000  0.3962640000000  0.4769520000000 1.0
C      1  0.4494170000000  0.4519490000000  0.3984690000000 1.0
C      1  0.5338400000000  0.4262330000000  0.4186070000000 1.0
C      1  0.5811450000000  0.5609940000000  0.4670570000000 1.0
C      1  0.4236160000000  0.4322090000000  0.4692730000000 1.0
C      1  0.5119740000000  0.4276780000000  0.3747200000000 1.0
C      1  0.5574560000000  0.4861350000000  0.5196180000000 1.0
C      1  0.5147530000000  0.5572840000000  0.4549550000000 1.0
C      1  0.5200860000000  0.6017200000000  0.5562070000000 1.0
C      1  0.4368820000000  0.4786660000000  0.5997700000000 1.0
C      1  0.4440300000000  0.4753080000000  0.4852040000000 1.0
C      1  0.5560760000000  0.4295530000000  0.4921620000000 1.0
C      1  0.5018680000000  0.4336100000000  0.5309690000000 1.0
C      1  0.4410690000000  0.5218480000000  0.4981040000000 1.0
C      1  0.4396720000000  0.5171490000000  0.4440270000000 1.0
C      1  0.5828970000000  0.4456890000000  0.4934590000000 1.0
C      1  0.4899400000000  0.4476070000000  0.4600760000000 1.0
C      1  0.4104500000000  0.5104960000000  0.4081240000000 1.0
C      1  0.5746780000000  0.5266390000000  0.6142950000000 1.0
C      1  0.4156150000000  0.4797590000000  0.4767860000000 1.0
C      1  0.4473050000000  0.5274100000000  0.4701610000000 1.0
C      1  0.5125620000000  0.4697090000000  0.6245030000000 1.0
C      1  0.5274130000000  0.4263320000000  0.5773040000000 1.0
C      1  0.5525780000000  0.5287480000000  0.5272540000000 1.0
C      1  0.5098970000000  0.4204690000000  0.3497630000000 1.0
C      1  0.4511610000000  0.4303720000000  0.5821940000000 1.0
C      1  0.4505300000000  0.4668450000000  0.5445140000000 1.0
C      1  0.4776780000000  0.4211530000000  0.4570420000000 1.0
C      1  0.4797060000000  0.5369840000000  0.5869870000000 1.0
C      1  0.4262680000000  0.4475560000000  0.4112480000000 1.0
C      1  0.5160980000000  0.5348370000000  0.5562510000000 1.0
C      1  0.5887020000000  0.4542440000000  0.5215770000000 1.0
C      1  0.5153920000000  0.5172180000000  0.5007850000000 1.0
C      1  0.4533210000000  0.4006920000000  0.4911970000000 1.0
C      1  0.5983290000000  0.5091190000000  0.5326240000000 1.0
C      1  0.4999420000000  0.4699790000000  0.6016680000000 1.0
C      1  0.4589570000000  0.5238120000000  0.4015350000000 1.0
C      1  0.4971400000000  0.4002600000000  0.4625730000000 1.0
C      1  0.5460050000000  0.4195120000000  0.4416510000000 1.0
C      1  0.5104440000000  0.6005960000000  0.4806340000000 1.0
C      1  0.5430420000000  0.5079410000000  0.5092450000000 1.0
C      1  0.4005710000000  0.5506940000000  0.4559880000000 1.0
C      1  0.5097730000000  0.4476060000000  0.5055880000000 1.0
C      1  0.5794230000000  0.4683020000000  0.4755900000000 1.0
C      1  0.4975990000000  0.5194400000000  0.5714090000000 1.0
C      1  0.4539230000000  0.4565060000000  0.5934560000000 1.0
C      1  0.5914080000000  0.5264760000000  0.5565580000000 1.0
C      1  0.5441320000000  0.4927470000000  0.5623920000000 1.0
C      1  0.5161220000000  0.5065910000000  0.4171980000000 1.0
C      1  0.5350560000000  0.6007830000000  0.5310160000000 1.0
C      1  0.5775830000000  0.5787420000000  0.4874890000000 1.0
C      1  0.4208360000000  0.5688100000000  0.4574790000000 1.0
C      1  0.5026240000000  0.4640010000000  0.4385710000000 1.0
C      1  0.4861350000000  0.5896400000000  0.4389250000000 1.0
C      1  0.4012610000000  0.5061140000000  0.4810880000000 1.0
C      1  0.4680510000000  0.4966460000000  0.3939440000000 1.0
C      1  0.4105230000000  0.5496670000000  0.5175380000000 1.0
C      1  0.5574660000000  0.5826560000000  0.5359790000000 1.0
C      1  0.5551260000000  0.5679060000000  0.5625500000000 1.0
C      1  0.5869530000000  0.4836290000000  0.5245040000000 1.0
C      1  0.5116060000000  0.5858990000000  0.4546060000000 1.0
C      1  0.4489970000000  0.4907730000000  0.4413430000000 1.0
C      1  0.5426020000000  0.4939050000000  0.4553280000000 1.0
C      1  0.4003930000000  0.4869350000000  0.4176390000000 1.0
C      1  0.5266930000000  0.6060330000000  0.5038290000000 1.0
C      1  0.4341470000000  0.5241270000000  0.4166180000000 1.0
C      1  0.5741860000000  0.5434250000000  0.5170430000000 1.0
C      1  0.5788860000000  0.5324690000000  0.4644100000000 1.0
C      1  0.4125190000000  0.4571280000000  0.4571370000000 1.0
C      1  0.5822900000000  0.5492960000000  0.5995820000000 1.0
C      1  0.4813480000000  0.5980070000000  0.4866760000000 1.0
C      1  0.4137330000000  0.4390240000000  0.5199680000000 1.0
C      1  0.4923400000000  0.5418820000000  0.4646990000000 1.0
C      1  0.5949940000000  0.5711550000000  0.6111880000000 1.0
C      1  0.4112580000000  0.4285370000000  0.4952790000000 1.0
C      1  0.4957140000000  0.4561130000000  0.4115310000000 1.0
C      1  0.4595400000000  0.5757600000000  0.5327760000000 1.0
C      1  0.4375370000000  0.5573150000000  0.5275570000000 1.0
C      1  0.4114870000000  0.5236310000000  0.5024050000000 1.0
C      1  0.4485980000000  0.5728640000000  0.4620350000000 1.0
C      1  0.4859430000000  0.4937310000000  0.4696440000000 1.0
C      1  0.5401390000000  0.5208120000000  0.5518490000000 1.0
C      1  0.5717860000000  0.5711360000000  0.5141910000000 1.0
C      1  0.5396610000000  0.3959570000000  0.5234060000000 1.0
C      1  0.5976700000000  0.4896850000000  0.4745330000000 1.0
C      1  0.5764220000000  0.5485470000000  0.5713050000000 1.0
C      1  0.5207610000000  0.4873580000000  0.4376920000000 1.0
C      1  0.5541480000000  0.5214110000000  0.4542410000000 1.0
C      1  0.4498790000000  0.4176300000000  0.4678740000000 1.0
C      1  0.5245330000000  0.3855130000000  0.5031770000000 1.0
C      1  0.5483390000000  0.4707300000000  0.5430670000000 1.0
C      1  0.4616600000000  0.4589120000000  0.5002700000000 1.0
C      1  0.4771010000000  0.4181810000000  0.5353370000000 1.0
C      1  0.4634520000000  0.4186860000000  0.5607590000000 1.0
C      1  0.4779560000000  0.5810760000000  0.5095420000000 1.0
C      1  0.5960320000000  0.5263960000000  0.5088780000000 1.0
C      1  0.4833050000000  0.5030850000000  0.5493890000000 1.0
C      1  0.5228440000000  0.5792010000000  0.5745730000000 1.0
C      1  0.5011300000000  0.5634950000000  0.5147340000000 1.0
C      1  0.4724990000000  0.4683700000000  0.3990980000000 1.0
C      1  0.5190840000000  0.5474520000000  0.5013440000000 1.0
C      1  0.5366820000000  0.5423890000000  0.4466080000000 1.0
C      1  0.5628150000000  0.5031480000000  0.6096720000000 1.0
C      1  0.5513610000000  0.4900960000000  0.5894010000000 1.0
C      1  0.4645320000000  0.5490710000000  0.4665120000000 1.0
C      1  0.5505200000000  0.4732580000000  0.4732650000000 1.0
C      1  0.4096530000000  0.4622460000000  0.4288780000000 1.0
C      1  0.5446740000000  0.4125470000000  0.4691660000000 1.0
C      1  0.6070340000000  0.5919020000000  0.6213730000000 1.0
C      1  0.4790340000000  0.4672550000000  0.5837280000000 1.0
C      1  0.4889440000000  0.5656050000000  0.5819200000000 1.0
C      1  0.4801320000000  0.5703160000000  0.4176260000000 1.0
C      1  0.3918670000000  0.5252380000000  0.4613610000000 1.0
C      1  0.4789930000000  0.5691790000000  0.5551190000000 1.0
C      1  0.5054270000000  0.5293030000000  0.4077020000000 1.0
C      1  0.4873480000000  0.4527770000000  0.4890700000000 1.0
C      1  0.4529700000000  0.5250920000000  0.5786710000000 1.0
C      1  0.5352090000000  0.4537470000000  0.4910890000000 1.0
C      1  0.4668250000000  0.5943460000000  0.4611990000000 1.0
C      1  0.4280640000000  0.4545420000000  0.5364890000000 1.0
C      1  0.4505300000000  0.5305720000000  0.5245120000000 1.0
C      1  0.4804480000000  0.5430650000000  0.4070780000000 1.0
C      1  0.5536580000000  0.4206510000000  0.5217880000000 1.0
C      1  0.4615730000000  0.4826690000000  0.4638660000000 1.0
C      1  0.4996020000000  0.5163200000000  0.4759340000000 1.0
C      1  0.5174310000000  0.4343270000000  0.5545080000000 1.0
C      1  0.5137720000000  0.4364340000000  0.4010930000000 1.0
C      1  0.5635020000000  0.4441400000000  0.5374540000000 1.0
C      1  0.5014990000000  0.5556430000000  0.5414650000000 1.0
C      1  0.5952600000000  0.5168680000000  0.4817960000000 1.0
C      1  0.4656210000000  0.4026470000000  0.5149070000000 1.0
C      1  0.4387700000000  0.5054020000000  0.5940020000000 1.0
C      1  0.4974810000000  0.5051180000000  0.5229720000000 1.0
END
