TITL C-627106-156-2060 13307.0618154791 125000 -726.021545950305 0 0 120 (C1) n - 1
REM
REM in /home/nfs/bkarasulu/CARBON/AIRSS/Generating-Clusters/LCBOP/Only-C1/SD-CG/FIRE-CG
REM
REM
REM
REM
REM
REM ./C.cell (11c1c37f851c82e70ff6c80c92926a4b)
REM AIRSS Version 0.9.1 bugfix July 2018 build 013d7b7c2542+ Fri, 06 Jul 2018 19:26:36 +0100
REM compiler GCC version 9.2.1 20190827 (Red Hat 9.2.1-1)
REM options -cpp -mtune=generic -march=x86-64 -g -O0 -fpre-include=/usr/include/finclude/math-vector-fortran.h
REM seed 822233286 701875248 1143515886 428585488 -946101301 1505508531 -1732445008 1874777007 -531488574 1307010874 1020541752 1260209123 1270007263 1409198934 2034988458 -1531811395 1740055106 2049970005 1215103514 -1374538410 -298051688 -1910183992 -640970386 711124362 666937880 961995290 724340430 1100362274 534330466 708007895 -769050813 -461246731 994638457
REM
CELL 1.54180   50.00000   50.00000   50.00000   90.00000   90.00000   90.00000
LATT -1
SFAC C  
C      1  0.4707790000000  0.5316550000000  0.4929920000000 1.0
C      1  0.4609350000000  0.3922130000000  0.5215940000000 1.0
C      1  0.4510860000000  0.4927780000000  0.4730620000000 1.0
C      1  0.4436350000000  0.5343220000000  0.5024070000000 1.0
C      1  0.5085520000000  0.4589760000000  0.4642850000000 1.0
C      1  0.4729820000000  0.4212240000000  0.5625360000000 1.0
C      1  0.4733840000000  0.4934260000000  0.5373090000000 1.0
C      1  0.5216580000000  0.4628760000000  0.5871410000000 1.0
C      1  0.5808110000000  0.5645670000000  0.5509080000000 1.0
C      1  0.5665480000000  0.4517030000000  0.5025360000000 1.0
C      1  0.5119690000000  0.5078240000000  0.4512820000000 1.0
C      1  0.5318170000000  0.4154080000000  0.5720620000000 1.0
C      1  0.4887170000000  0.5133220000000  0.5458040000000 1.0
C      1  0.5366510000000  0.4431520000000  0.5720160000000 1.0
C      1  0.4461270000000  0.4762920000000  0.5885200000000 1.0
C      1  0.4357850000000  0.5809660000000  0.4591470000000 1.0
C      1  0.5302570000000  0.3923180000000  0.5586480000000 1.0
C      1  0.4560160000000  0.5770680000000  0.5553590000000 1.0
C      1  0.5317660000000  0.4943250000000  0.4052180000000 1.0
C      1  0.4765580000000  0.6019930000000  0.5058430000000 1.0
C      1  0.4109390000000  0.3146450000000  0.4835990000000 1.0
C      1  0.5167740000000  0.4730860000000  0.5181090000000 1.0
C      1  0.4378790000000  0.5863280000000  0.5346950000000 1.0
C      1  0.4500650000000  0.5178630000000  0.4196790000000 1.0
C      1  0.4769740000000  0.5263880000000  0.4231490000000 1.0
C      1  0.5321820000000  0.5673390000000  0.5310310000000 1.0
C      1  0.4166650000000  0.4050190000000  0.5266860000000 1.0
C      1  0.4829750000000  0.3774900000000  0.5134530000000 1.0
C      1  0.4731400000000  0.4842880000000  0.5932160000000 1.0
C      1  0.5663950000000  0.5304550000000  0.4465140000000 1.0
C      1  0.5796090000000  0.4203930000000  0.4396380000000 1.0
C      1  0.4900910000000  0.4529040000000  0.4116190000000 1.0
C      1  0.5248230000000  0.3784140000000  0.5363820000000 1.0
C      1  0.4754020000000  0.5126980000000  0.5967470000000 1.0
C      1  0.4928190000000  0.4627670000000  0.5890170000000 1.0
C      1  0.5066990000000  0.4460680000000  0.5180160000000 1.0
C      1  0.5571820000000  0.4777820000000  0.4598670000000 1.0
C      1  0.5175900000000  0.5002190000000  0.4778340000000 1.0
C      1  0.5286950000000  0.5264450000000  0.5750800000000 1.0
C      1  0.4313070000000  0.5913430000000  0.4861090000000 1.0
C      1  0.5402720000000  0.5597810000000  0.4837320000000 1.0
C      1  0.4235580000000  0.4772060000000  0.4244120000000 1.0
C      1  0.5483310000000  0.4331610000000  0.4937540000000 1.0
C      1  0.4125680000000  0.5702780000000  0.4980530000000 1.0
C      1  0.5545760000000  0.5685900000000  0.5477270000000 1.0
C      1  0.4813850000000  0.5893280000000  0.5528370000000 1.0
C      1  0.5599030000000  0.5460610000000  0.4690840000000 1.0
C      1  0.4874350000000  0.6024710000000  0.4798030000000 1.0
C      1  0.4127340000000  0.5748530000000  0.5263560000000 1.0
C      1  0.4353210000000  0.5341640000000  0.5534880000000 1.0
C      1  0.5571870000000  0.4517110000000  0.5543580000000 1.0
C      1  0.4865110000000  0.5177280000000  0.4481730000000 1.0
C      1  0.5515120000000  0.4173440000000  0.4434090000000 1.0
C      1  0.5354780000000  0.6042890000000  0.5024190000000 1.0
C      1  0.5187660000000  0.4482830000000  0.4105510000000 1.0
C      1  0.5820630000000  0.4967030000000  0.4985060000000 1.0
C      1  0.5211880000000  0.5930100000000  0.5243290000000 1.0
C      1  0.4062620000000  0.4759970000000  0.5244490000000 1.0
C      1  0.5574040000000  0.5030930000000  0.4454610000000 1.0
C      1  0.5369180000000  0.4847780000000  0.5959250000000 1.0
C      1  0.4665380000000  0.5373750000000  0.5889600000000 1.0
C      1  0.5443680000000  0.5519790000000  0.4055230000000 1.0
C      1  0.4122220000000  0.4767720000000  0.4985110000000 1.0
C      1  0.4314720000000  0.4259750000000  0.5363330000000 1.0
C      1  0.5311320000000  0.4691240000000  0.3954880000000 1.0
C      1  0.5198250000000  0.4004590000000  0.4940490000000 1.0
C      1  0.5322590000000  0.5872940000000  0.4793870000000 1.0
C      1  0.4846600000000  0.4481290000000  0.4687970000000 1.0
C      1  0.5474650000000  0.5069210000000  0.5824020000000 1.0
C      1  0.4959800000000  0.5419780000000  0.5027210000000 1.0
C      1  0.4813220000000  0.4377510000000  0.5817800000000 1.0
C      1  0.5347890000000  0.4596650000000  0.4538620000000 1.0
C      1  0.4249770000000  0.3597430000000  0.5066630000000 1.0
C      1  0.5407230000000  0.5184980000000  0.5141940000000 1.0
C      1  0.5981790000000  0.4370040000000  0.4500810000000 1.0
C      1  0.4936010000000  0.5411920000000  0.4061750000000 1.0
C      1  0.5995380000000  0.4578690000000  0.4672940000000 1.0
C      1  0.5672680000000  0.6480240000000  0.5036020000000 1.0
C      1  0.5274020000000  0.5460060000000  0.5089410000000 1.0
C      1  0.4297640000000  0.5522250000000  0.4569440000000 1.0
C      1  0.5096590000000  0.5951490000000  0.4639130000000 1.0
C      1  0.5238280000000  0.4266150000000  0.5071010000000 1.0
C      1  0.5180980000000  0.5503680000000  0.4003370000000 1.0
C      1  0.4257590000000  0.4803630000000  0.4743290000000 1.0
C      1  0.5506540000000  0.6274030000000  0.5031520000000 1.0
C      1  0.5944510000000  0.5417240000000  0.5469040000000 1.0
C      1  0.4666630000000  0.4694630000000  0.5282460000000 1.0
C      1  0.5811740000000  0.5170820000000  0.5435570000000 1.0
C      1  0.5773830000000  0.4717590000000  0.4824080000000 1.0
C      1  0.5693120000000  0.4541030000000  0.5305850000000 1.0
C      1  0.4486730000000  0.5978880000000  0.5090260000000 1.0
C      1  0.4699150000000  0.5136320000000  0.4707460000000 1.0
C      1  0.5850200000000  0.6677060000000  0.5038560000000 1.0
C      1  0.4178300000000  0.3369520000000  0.4951980000000 1.0
C      1  0.4146980000000  0.4731770000000  0.4494660000000 1.0
C      1  0.4621180000000  0.4208220000000  0.5348920000000 1.0
C      1  0.5686710000000  0.5120490000000  0.5184170000000 1.0
C      1  0.4474250000000  0.4890260000000  0.4148600000000 1.0
C      1  0.5246210000000  0.4966280000000  0.5046420000000 1.0
C      1  0.5103900000000  0.5995920000000  0.4365420000000 1.0
C      1  0.5645390000000  0.5444300000000  0.4217030000000 1.0
C      1  0.5355110000000  0.4393190000000  0.4329730000000 1.0
C      1  0.4333120000000  0.3837450000000  0.5175170000000 1.0
C      1  0.4242060000000  0.4746180000000  0.5734410000000 1.0
C      1  0.5317740000000  0.5038640000000  0.4315870000000 1.0
C      1  0.5709690000000  0.5054790000000  0.5671090000000 1.0
C      1  0.6028650000000  0.6867110000000  0.5040120000000 1.0
C      1  0.4937470000000  0.5977790000000  0.5287300000000 1.0
C      1  0.4755340000000  0.4425520000000  0.5182420000000 1.0
C      1  0.4101250000000  0.4753650000000  0.5508190000000 1.0
C      1  0.5073920000000  0.5267040000000  0.5591070000000 1.0
C      1  0.5437950000000  0.4068770000000  0.4685400000000 1.0
C      1  0.4353600000000  0.5266920000000  0.5279170000000 1.0
C      1  0.5106630000000  0.3808820000000  0.5119450000000 1.0
C      1  0.4236890000000  0.5461680000000  0.4853840000000 1.0
C      1  0.4695060000000  0.4395650000000  0.4891080000000 1.0
C      1  0.5099480000000  0.6097800000000  0.4125480000000 1.0
C      1  0.4695410000000  0.4708770000000  0.4103000000000 1.0
C      1  0.4319530000000  0.5346170000000  0.4347540000000 1.0
C      1  0.4521370000000  0.5513240000000  0.5684470000000 1.0
END
