TITL C-627111-6168-1860 4.64754679589957e-08 125000 -184.240555892481 0 0 31 (C1) n - 1
REM
REM in /home/nfs/bkarasulu/CARBON/AIRSS/Generating-Clusters/LCBOP/Only-C1/SD-CG/FIRE-CG
REM
REM
REM
REM
REM
REM ./C.cell (11c1c37f851c82e70ff6c80c92926a4b)
REM AIRSS Version 0.9.1 bugfix July 2018 build 013d7b7c2542+ Fri, 06 Jul 2018 19:26:36 +0100
REM compiler GCC version 9.2.1 20190827 (Red Hat 9.2.1-1)
REM options -cpp -mtune=generic -march=x86-64 -g -O0 -fpre-include=/usr/include/finclude/math-vector-fortran.h
REM seed 1903684136 572900430 -106821465 650636352 -960236395 766733908 -1665778651 82302402 1131905659 604778288 -561068198 -1381714042 -1623806551 -412930776 -802328819 423933521 -1382416001 -110608137 51977539 704041337 1043798751 1762895269 -2139998443 447812498 1002846505 337364373 1587021235 -720019799 1953530770 289273124 -602882525 2069086548 1093200476
REM
CELL 1.54180   50.00000   50.00000   50.00000   90.00000   90.00000   90.00000
LATT -1
SFAC C  
C      1  0.5175960000000  0.4583110000000  0.4799800000000 1.0
C      1  0.4749430000000  0.5429290000000  0.4107160000000 1.0
C      1  0.5377100000000  0.5282200000000  0.4935120000000 1.0
C      1  0.5330460000000  0.4469370000000  0.5404950000000 1.0
C      1  0.5323520000000  0.5547370000000  0.5006670000000 1.0
C      1  0.4902480000000  0.5690310000000  0.4810130000000 1.0
C      1  0.4714220000000  0.4519680000000  0.6012140000000 1.0
C      1  0.4991020000000  0.4254550000000  0.5157330000000 1.0
C      1  0.5101690000000  0.4303630000000  0.5412340000000 1.0
C      1  0.4826200000000  0.5573180000000  0.5525220000000 1.0
C      1  0.5380760000000  0.5017990000000  0.4914400000000 1.0
C      1  0.4729250000000  0.5450820000000  0.5739710000000 1.0
C      1  0.4829540000000  0.4333010000000  0.5862350000000 1.0
C      1  0.5161850000000  0.4628120000000  0.4525100000000 1.0
C      1  0.4801490000000  0.5675080000000  0.4565500000000 1.0
C      1  0.4889480000000  0.4971690000000  0.3863690000000 1.0
C      1  0.4967330000000  0.4251710000000  0.5650230000000 1.0
C      1  0.5102790000000  0.4695700000000  0.4275760000000 1.0
C      1  0.4625700000000  0.5031160000000  0.6034920000000 1.0
C      1  0.4657930000000  0.5266750000000  0.5917010000000 1.0
C      1  0.5052490000000  0.5628490000000  0.5037590000000 1.0
C      1  0.4749480000000  0.5585840000000  0.4321240000000 1.0
C      1  0.4935700000000  0.5632880000000  0.5291260000000 1.0
C      1  0.4643350000000  0.4768740000000  0.6071200000000 1.0
C      1  0.5029090000000  0.4374330000000  0.4919910000000 1.0
C      1  0.4797540000000  0.5221720000000  0.3949410000000 1.0
C      1  0.4861940000000  0.4893850000000  0.3603220000000 1.0
C      1  0.5010410000000  0.4803440000000  0.4051890000000 1.0
C      1  0.5418290000000  0.4641550000000  0.5218570000000 1.0
C      1  0.5336700000000  0.4748320000000  0.4970640000000 1.0
C      1  0.5526830000000  0.5726120000000  0.5045530000000 1.0
END
