TITL C-627108-131-712 -7.89206527288766e-07 125000 -343.708002724583 0 0 57 (C1) n - 1
REM
REM in /home/nfs/bkarasulu/CARBON/AIRSS/Generating-Clusters/LCBOP/Only-C1/SD-CG/FIRE-CG
REM
REM
REM
REM
REM
REM ./C.cell (11c1c37f851c82e70ff6c80c92926a4b)
REM AIRSS Version 0.9.1 bugfix July 2018 build 013d7b7c2542+ Fri, 06 Jul 2018 19:26:36 +0100
REM compiler GCC version 9.2.1 20190827 (Red Hat 9.2.1-1)
REM options -cpp -mtune=generic -march=x86-64 -g -O0 -fpre-include=/usr/include/finclude/math-vector-fortran.h
REM seed 502781486 -1317242324 1592201714 -75222382 1514662881 -1086045664 1058713923 -1905949253 836864728 421201844 1388531154 -543834945 -479472086 264606331 -1999254626 286151152 -1021836651 792652872 -801612695 1771311921 -2109811179 1659301242 -1045844436 762668966 54858418 -1973860351 -1244155472 1030710315 1395101593 -1565655491 1409110848 -704538178 -773157899
REM
CELL 1.54180   50.00000   50.00000   50.00000   90.00000   90.00000   90.00000
LATT -1
SFAC C  
C      1  0.4794740000000  0.5463740000000  0.5689280000000 1.0
C      1  0.5096420000000  0.5508470000000  0.5297200000000 1.0
C      1  0.5405980000000  0.4581980000000  0.5148950000000 1.0
C      1  0.5012030000000  0.5076940000000  0.4806080000000 1.0
C      1  0.5476130000000  0.4818990000000  0.4437080000000 1.0
C      1  0.5393590000000  0.5380570000000  0.4689230000000 1.0
C      1  0.4565330000000  0.5380590000000  0.5128050000000 1.0
C      1  0.5004610000000  0.5557650000000  0.6177440000000 1.0
C      1  0.5402380000000  0.5119140000000  0.5075420000000 1.0
C      1  0.5424880000000  0.5624180000000  0.4847410000000 1.0
C      1  0.5197260000000  0.4391310000000  0.5102490000000 1.0
C      1  0.5282990000000  0.5259910000000  0.4245930000000 1.0
C      1  0.5915050000000  0.4996420000000  0.5119590000000 1.0
C      1  0.5151920000000  0.5732830000000  0.4836730000000 1.0
C      1  0.5252180000000  0.4926320000000  0.5515570000000 1.0
C      1  0.4934950000000  0.4439090000000  0.5206230000000 1.0
C      1  0.4608210000000  0.5103130000000  0.5104260000000 1.0
C      1  0.4868950000000  0.4580530000000  0.5443420000000 1.0
C      1  0.5277010000000  0.5164160000000  0.4833140000000 1.0
C      1  0.5225150000000  0.4449390000000  0.4627980000000 1.0
C      1  0.4754920000000  0.4600880000000  0.4377900000000 1.0
C      1  0.4718510000000  0.5541080000000  0.4952350000000 1.0
C      1  0.5441700000000  0.4639800000000  0.4653010000000 1.0
C      1  0.4979600000000  0.5625110000000  0.5045310000000 1.0
C      1  0.5251070000000  0.5456290000000  0.4443480000000 1.0
C      1  0.4665890000000  0.5127170000000  0.4331830000000 1.0
C      1  0.4745650000000  0.4476670000000  0.4999760000000 1.0
C      1  0.4766470000000  0.4979080000000  0.4900240000000 1.0
C      1  0.4319400000000  0.4766170000000  0.5289070000000 1.0
C      1  0.4995280000000  0.5048110000000  0.5508270000000 1.0
C      1  0.4307520000000  0.4454390000000  0.4622500000000 1.0
C      1  0.4731050000000  0.4870280000000  0.4295090000000 1.0
C      1  0.4190240000000  0.4512080000000  0.4856650000000 1.0
C      1  0.5819390000000  0.5211580000000  0.5256180000000 1.0
C      1  0.5208030000000  0.4263200000000  0.4845050000000 1.0
C      1  0.5197510000000  0.3729290000000  0.4779140000000 1.0
C      1  0.5095620000000  0.5685810000000  0.4544190000000 1.0
C      1  0.4356590000000  0.5648130000000  0.5804750000000 1.0
C      1  0.4647980000000  0.5516870000000  0.4679240000000 1.0
C      1  0.4783120000000  0.4853310000000  0.5470090000000 1.0
C      1  0.4192640000000  0.4621060000000  0.5101700000000 1.0
C      1  0.5548600000000  0.5289810000000  0.5247390000000 1.0
C      1  0.5565980000000  0.4660980000000  0.4917030000000 1.0
C      1  0.4527540000000  0.5538040000000  0.5622770000000 1.0
C      1  0.4513890000000  0.4470920000000  0.4451780000000 1.0
C      1  0.4900010000000  0.5514130000000  0.5942760000000 1.0
C      1  0.5809620000000  0.4795210000000  0.4972860000000 1.0
C      1  0.4711480000000  0.4706390000000  0.4865300000000 1.0
C      1  0.4626930000000  0.5355260000000  0.4466260000000 1.0
C      1  0.5391800000000  0.5013250000000  0.4271320000000 1.0
C      1  0.5205620000000  0.3987750000000  0.4811430000000 1.0
C      1  0.5394290000000  0.4737630000000  0.5385220000000 1.0
C      1  0.4957230000000  0.5336570000000  0.5490690000000 1.0
C      1  0.5006890000000  0.4493380000000  0.4452640000000 1.0
C      1  0.5383470000000  0.5502310000000  0.5335610000000 1.0
C      1  0.4449710000000  0.5490110000000  0.5357390000000 1.0
C      1  0.4549020000000  0.4926570000000  0.5322290000000 1.0
END
