TITL C-627108-131-1401 -78.7048066160789 125000 -569.308672633004 0 0 94 (C1) n - 1
REM
REM in /home/nfs/bkarasulu/CARBON/AIRSS/Generating-Clusters/LCBOP/Only-C1/SD-CG/FIRE-CG
REM
REM
REM
REM
REM
REM ./C.cell (11c1c37f851c82e70ff6c80c92926a4b)
REM AIRSS Version 0.9.1 bugfix July 2018 build 013d7b7c2542+ Fri, 06 Jul 2018 19:26:36 +0100
REM compiler GCC version 9.2.1 20190827 (Red Hat 9.2.1-1)
REM options -cpp -mtune=generic -march=x86-64 -g -O0 -fpre-include=/usr/include/finclude/math-vector-fortran.h
REM seed -1545750169 1760517759 572859557 -1496552288 -434863805 -1626239522 1631451219 949895202 -2036747764 484040240 1746410582 -339492394 1057479281 -148900231 -645920273 -808543841 -1512039705 -885681528 -46029227 -1596147619 -879478838 1392585552 -1442630688 519583802 1466423020 646550466 1638912712 443574978 -1815970881 392501592 3374789 -1799180448 217857272
REM
CELL 1.54180   50.00000   50.00000   50.00000   90.00000   90.00000   90.00000
LATT -1
SFAC C  
C      1  0.4594420000000  0.4943990000000  0.4890710000000 1.0
C      1  0.4607400000000  0.4916180000000  0.4194560000000 1.0
C      1  0.4952090000000  0.5793870000000  0.4798260000000 1.0
C      1  0.5485450000000  0.5597210000000  0.5839090000000 1.0
C      1  0.4833550000000  0.4631200000000  0.5809270000000 1.0
C      1  0.5265830000000  0.4777650000000  0.5474940000000 1.0
C      1  0.4043240000000  0.4568890000000  0.4976340000000 1.0
C      1  0.4837090000000  0.4604490000000  0.5057310000000 1.0
C      1  0.4256860000000  0.5551260000000  0.5135540000000 1.0
C      1  0.4597620000000  0.4638310000000  0.5970800000000 1.0
C      1  0.5053670000000  0.4790390000000  0.5084900000000 1.0
C      1  0.4771620000000  0.5620060000000  0.4341970000000 1.0
C      1  0.4672380000000  0.5783570000000  0.4908810000000 1.0
C      1  0.4809930000000  0.5409360000000  0.4147830000000 1.0
C      1  0.5275040000000  0.4648290000000  0.5217800000000 1.0
C      1  0.4971540000000  0.5107470000000  0.5740850000000 1.0
C      1  0.4696900000000  0.4773160000000  0.4659800000000 1.0
C      1  0.5613310000000  0.5546300000000  0.4577590000000 1.0
C      1  0.5053920000000  0.5392190000000  0.5829850000000 1.0
C      1  0.5568010000000  0.4951270000000  0.4189620000000 1.0
C      1  0.5102970000000  0.5600400000000  0.5211120000000 1.0
C      1  0.5184580000000  0.4628090000000  0.4567700000000 1.0
C      1  0.5053710000000  0.4825690000000  0.5874280000000 1.0
C      1  0.5756100000000  0.5055990000000  0.5244360000000 1.0
C      1  0.5241270000000  0.4593170000000  0.4289110000000 1.0
C      1  0.4964550000000  0.5616760000000  0.5651020000000 1.0
C      1  0.5017610000000  0.4597860000000  0.4116520000000 1.0
C      1  0.4421400000000  0.5401290000000  0.4731750000000 1.0
C      1  0.4447830000000  0.4968340000000  0.5662420000000 1.0
C      1  0.5504230000000  0.5394740000000  0.4371090000000 1.0
C      1  0.5496970000000  0.4680640000000  0.4212860000000 1.0
C      1  0.5297560000000  0.4437620000000  0.4750970000000 1.0
C      1  0.4554470000000  0.5259410000000  0.5308020000000 1.0
C      1  0.5185960000000  0.4001910000000  0.5905000000000 1.0
C      1  0.4641210000000  0.5186940000000  0.4120240000000 1.0
C      1  0.4491020000000  0.4856460000000  0.4450020000000 1.0
C      1  0.5224480000000  0.4159100000000  0.5126490000000 1.0
C      1  0.5110170000000  0.5038570000000  0.5465870000000 1.0
C      1  0.5241650000000  0.5496850000000  0.4313450000000 1.0
C      1  0.5358270000000  0.4024610000000  0.4448110000000 1.0
C      1  0.5834980000000  0.5473150000000  0.4978220000000 1.0
C      1  0.5104470000000  0.5106490000000  0.4653650000000 1.0
C      1  0.4823690000000  0.4039760000000  0.4847570000000 1.0
C      1  0.5021660000000  0.5335190000000  0.5087410000000 1.0
C      1  0.4156120000000  0.4822770000000  0.5023680000000 1.0
C      1  0.4665320000000  0.5157490000000  0.5727490000000 1.0
C      1  0.5602920000000  0.5120540000000  0.4419600000000 1.0
C      1  0.5185110000000  0.5324780000000  0.4819500000000 1.0
C      1  0.4781300000000  0.4721890000000  0.4083210000000 1.0
C      1  0.4549070000000  0.5723930000000  0.5203220000000 1.0
C      1  0.5150990000000  0.4015760000000  0.6162970000000 1.0
C      1  0.5258930000000  0.4156090000000  0.4669610000000 1.0
C      1  0.5462240000000  0.5078700000000  0.3957250000000 1.0
C      1  0.5229650000000  0.4050590000000  0.5380850000000 1.0
C      1  0.5864160000000  0.5559060000000  0.4704160000000 1.0
C      1  0.4191400000000  0.5343460000000  0.4911520000000 1.0
C      1  0.5067490000000  0.5061350000000  0.5189940000000 1.0
C      1  0.5449400000000  0.3906640000000  0.4234370000000 1.0
C      1  0.4598380000000  0.5387300000000  0.5557410000000 1.0
C      1  0.4354990000000  0.4206770000000  0.4806860000000 1.0
C      1  0.4133420000000  0.5048500000000  0.4834340000000 1.0
C      1  0.4702400000000  0.5642370000000  0.5518380000000 1.0
C      1  0.4722960000000  0.5322010000000  0.5084800000000 1.0
C      1  0.5298200000000  0.5445490000000  0.5964390000000 1.0
C      1  0.4131480000000  0.4332950000000  0.4883800000000 1.0
C      1  0.5725160000000  0.4988040000000  0.5508390000000 1.0
C      1  0.5214600000000  0.4005920000000  0.5641520000000 1.0
C      1  0.5179090000000  0.5667260000000  0.5472120000000 1.0
C      1  0.5430490000000  0.5739240000000  0.4959670000000 1.0
C      1  0.4616610000000  0.5224640000000  0.4843800000000 1.0
C      1  0.5602380000000  0.4890660000000  0.5738220000000 1.0
C      1  0.5239840000000  0.5226880000000  0.3917500000000 1.0
C      1  0.4633190000000  0.4242990000000  0.4795950000000 1.0
C      1  0.4390380000000  0.4781650000000  0.5864910000000 1.0
C      1  0.5699310000000  0.5072790000000  0.4705830000000 1.0
C      1  0.5335410000000  0.4775790000000  0.5757240000000 1.0
C      1  0.5155930000000  0.5797640000000  0.5008640000000 1.0
C      1  0.4757950000000  0.4570150000000  0.5532090000000 1.0
C      1  0.4998340000000  0.4846610000000  0.4612590000000 1.0
C      1  0.4489170000000  0.5674660000000  0.4713110000000 1.0
C      1  0.5447810000000  0.5687940000000  0.5573400000000 1.0
C      1  0.5091640000000  0.5383390000000  0.4096720000000 1.0
C      1  0.4999200000000  0.5679090000000  0.4511340000000 1.0
C      1  0.5102630000000  0.4043010000000  0.4888280000000 1.0
C      1  0.4646150000000  0.4620410000000  0.5270590000000 1.0
C      1  0.5657030000000  0.5720200000000  0.5391370000000 1.0
C      1  0.4420450000000  0.5015160000000  0.5375870000000 1.0
C      1  0.4728200000000  0.4509780000000  0.4806670000000 1.0
C      1  0.5400070000000  0.5524680000000  0.4772700000000 1.0
C      1  0.5666360000000  0.5668890000000  0.5117860000000 1.0
C      1  0.5327210000000  0.4423840000000  0.5052100000000 1.0
C      1  0.5771470000000  0.5181850000000  0.4983670000000 1.0
C      1  0.4241550000000  0.4962490000000  0.4565400000000 1.0
C      1  0.4435760000000  0.4821730000000  0.5152030000000 1.0
END
