TITL C-627109-622-1731 -1.57472217714266e-07 125000 -624.760113702576 0 0 101 (C1) n - 1
REM
REM in /home/nfs/bkarasulu/CARBON/AIRSS/Generating-Clusters/LCBOP/Only-C1/SD-CG/FIRE-CG
REM
REM
REM
REM
REM
REM ./C.cell (11c1c37f851c82e70ff6c80c92926a4b)
REM AIRSS Version 0.9.1 bugfix July 2018 build 013d7b7c2542+ Fri, 06 Jul 2018 19:26:36 +0100
REM compiler GCC version 9.2.1 20190827 (Red Hat 9.2.1-1)
REM options -cpp -mtune=generic -march=x86-64 -g -O0 -fpre-include=/usr/include/finclude/math-vector-fortran.h
REM seed 169123927 478497333 2060683643 -1010014685 -2137065694 -742903093 -2131340558 406158298 2037276625 1064477458 1917251221 1009958916 238006846 1442017577 1738855661 28307131 1249433438 890858653 -921324330 287068897 -1561909950 2144754794 2046320223 -885139812 664812120 2024312537 -1862784549 -1027508825 1811161419 -677873678 -1292425914 1712595331 426276400
REM
CELL 1.54180   50.00000   50.00000   50.00000   90.00000   90.00000   90.00000
LATT -1
SFAC C  
C      1  0.5384500000000  0.5653940000000  0.5523390000000 1.0
C      1  0.4845870000000  0.4248960000000  0.5331190000000 1.0
C      1  0.5178800000000  0.5110810000000  0.5339800000000 1.0
C      1  0.5757740000000  0.5127940000000  0.4532500000000 1.0
C      1  0.5043600000000  0.4346120000000  0.5549840000000 1.0
C      1  0.4381060000000  0.4311820000000  0.5535950000000 1.0
C      1  0.5035480000000  0.5834210000000  0.5146680000000 1.0
C      1  0.4588100000000  0.5252970000000  0.4655590000000 1.0
C      1  0.5318860000000  0.5235770000000  0.4197090000000 1.0
C      1  0.5299610000000  0.5928120000000  0.4752580000000 1.0
C      1  0.4643510000000  0.5537340000000  0.4645530000000 1.0
C      1  0.5075040000000  0.5795950000000  0.4864250000000 1.0
C      1  0.5481310000000  0.4179500000000  0.4464760000000 1.0
C      1  0.5287440000000  0.5475550000000  0.4340990000000 1.0
C      1  0.5590910000000  0.4714460000000  0.5061390000000 1.0
C      1  0.5148410000000  0.5276250000000  0.5112430000000 1.0
C      1  0.5230270000000  0.4880850000000  0.4804740000000 1.0
C      1  0.4598340000000  0.6022220000000  0.5045030000000 1.0
C      1  0.4620190000000  0.5177420000000  0.3999640000000 1.0
C      1  0.4780430000000  0.5928970000000  0.5243690000000 1.0
C      1  0.4681110000000  0.5331660000000  0.5183340000000 1.0
C      1  0.5663380000000  0.4005770000000  0.5310400000000 1.0
C      1  0.5711450000000  0.5404390000000  0.4601710000000 1.0
C      1  0.4231540000000  0.4549630000000  0.5580150000000 1.0
C      1  0.4857760000000  0.4709820000000  0.4590260000000 1.0
C      1  0.5418930000000  0.4125980000000  0.5303960000000 1.0
C      1  0.5849200000000  0.5097420000000  0.5258550000000 1.0
C      1  0.5306020000000  0.4763760000000  0.5053480000000 1.0
C      1  0.4553420000000  0.4250820000000  0.5320120000000 1.0
C      1  0.5257370000000  0.4756840000000  0.4112020000000 1.0
C      1  0.4266770000000  0.5105530000000  0.4308920000000 1.0
C      1  0.5742960000000  0.4831250000000  0.5270080000000 1.0
C      1  0.5657060000000  0.4666370000000  0.4538970000000 1.0
C      1  0.4770560000000  0.5779020000000  0.5763760000000 1.0
C      1  0.4688710000000  0.4673910000000  0.4809090000000 1.0
C      1  0.5731150000000  0.4738740000000  0.4810290000000 1.0
C      1  0.5628570000000  0.4401910000000  0.4459470000000 1.0
C      1  0.5386610000000  0.5396240000000  0.5643830000000 1.0
C      1  0.5823660000000  0.5246140000000  0.5495020000000 1.0
C      1  0.3982850000000  0.5061550000000  0.4325040000000 1.0
C      1  0.5000170000000  0.4944920000000  0.4660320000000 1.0
C      1  0.4832690000000  0.5150150000000  0.4759940000000 1.0
C      1  0.4933300000000  0.5625660000000  0.4679250000000 1.0
C      1  0.4891180000000  0.5275510000000  0.5003940000000 1.0
C      1  0.5091870000000  0.4565520000000  0.4200280000000 1.0
C      1  0.5330880000000  0.4307720000000  0.5503620000000 1.0
C      1  0.4225850000000  0.4600360000000  0.4766640000000 1.0
C      1  0.4422940000000  0.4272440000000  0.5063220000000 1.0
C      1  0.4963670000000  0.4496840000000  0.4440730000000 1.0
C      1  0.5447800000000  0.4714630000000  0.5802370000000 1.0
C      1  0.5122710000000  0.4840430000000  0.5273330000000 1.0
C      1  0.5229760000000  0.4103700000000  0.4516990000000 1.0
C      1  0.4375360000000  0.4785230000000  0.5511300000000 1.0
C      1  0.5031060000000  0.5591490000000  0.4394330000000 1.0
C      1  0.5934690000000  0.5916880000000  0.5112530000000 1.0
C      1  0.5626890000000  0.4915220000000  0.4385870000000 1.0
C      1  0.5232580000000  0.4078820000000  0.5098180000000 1.0
C      1  0.3925290000000  0.4932030000000  0.4562670000000 1.0
C      1  0.4912610000000  0.5395160000000  0.6102810000000 1.0
C      1  0.4440140000000  0.4503000000000  0.4329420000000 1.0
C      1  0.4571690000000  0.5711430000000  0.4420930000000 1.0
C      1  0.4995150000000  0.4245790000000  0.4577720000000 1.0
C      1  0.4749810000000  0.4667810000000  0.5761570000000 1.0
C      1  0.4964990000000  0.4164660000000  0.5073180000000 1.0
C      1  0.4721280000000  0.5424910000000  0.4035590000000 1.0
C      1  0.4174680000000  0.4874480000000  0.4706550000000 1.0
C      1  0.3972760000000  0.4551730000000  0.5679780000000 1.0
C      1  0.4486310000000  0.5957870000000  0.4534090000000 1.0
C      1  0.5246450000000  0.5786510000000  0.5332460000000 1.0
C      1  0.4783140000000  0.5623410000000  0.4227900000000 1.0
C      1  0.4849500000000  0.5521940000000  0.5857850000000 1.0
C      1  0.3728330000000  0.4553050000000  0.5770170000000 1.0
C      1  0.5149120000000  0.5250000000000  0.5580560000000 1.0
C      1  0.4507420000000  0.6046530000000  0.4791240000000 1.0
C      1  0.5823270000000  0.5450340000000  0.4870320000000 1.0
C      1  0.5516990000000  0.5575340000000  0.4485450000000 1.0
C      1  0.5007350000000  0.5148070000000  0.6162890000000 1.0
C      1  0.5490120000000  0.5837660000000  0.4586000000000 1.0
C      1  0.5503820000000  0.4489740000000  0.5638680000000 1.0
C      1  0.5099210000000  0.4903490000000  0.6096250000000 1.0
C      1  0.4836360000000  0.4780850000000  0.5302350000000 1.0
C      1  0.4400550000000  0.4421190000000  0.4599580000000 1.0
C      1  0.4700640000000  0.4723310000000  0.5066990000000 1.0
C      1  0.4206860000000  0.4462170000000  0.5018890000000 1.0
C      1  0.4552080000000  0.4244070000000  0.4798250000000 1.0
C      1  0.4836220000000  0.4192490000000  0.4811280000000 1.0
C      1  0.4681660000000  0.5328010000000  0.5450620000000 1.0
C      1  0.5884020000000  0.5195150000000  0.4994400000000 1.0
C      1  0.4887390000000  0.5342750000000  0.5640780000000 1.0
C      1  0.5187540000000  0.4698510000000  0.5919030000000 1.0
C      1  0.4658040000000  0.4790840000000  0.5528960000000 1.0
C      1  0.5858660000000  0.4999610000000  0.4782540000000 1.0
C      1  0.4448010000000  0.4990490000000  0.4122270000000 1.0
C      1  0.4365260000000  0.5087600000000  0.4591070000000 1.0
C      1  0.5576920000000  0.4966800000000  0.5800390000000 1.0
C      1  0.4473210000000  0.4707750000000  0.4153740000000 1.0
C      1  0.4995010000000  0.4535910000000  0.5773330000000 1.0
C      1  0.5413190000000  0.4970210000000  0.4207280000000 1.0
C      1  0.4733410000000  0.5904290000000  0.5524780000000 1.0
C      1  0.5879150000000  0.5695860000000  0.4986110000000 1.0
C      1  0.5614430000000  0.5225750000000  0.5684930000000 1.0
END
