TITL C-627112-676-359 6.69859783053432e-07 125000 -320.177582541756 0 0 54 (C1) n - 1
REM
REM in /home/nfs/bkarasulu/CARBON/AIRSS/Generating-Clusters/LCBOP/Only-C1/SD-CG/FIRE-CG
REM
REM
REM
REM
REM
REM ./C.cell (11c1c37f851c82e70ff6c80c92926a4b)
REM AIRSS Version 0.9.1 bugfix July 2018 build 013d7b7c2542+ Fri, 06 Jul 2018 19:26:36 +0100
REM compiler GCC version 9.2.1 20190827 (Red Hat 9.2.1-1)
REM options -cpp -mtune=generic -march=x86-64 -g -O0 -fpre-include=/usr/include/finclude/math-vector-fortran.h
REM seed 100445349 2022724399 1828568864 1739795531 -313294755 1893317434 375401772 -1328993849 616197209 1343872030 -1047647989 -105387495 -923182093 902474524 2046767828 1589982432 -792617758 -696269328 -2096340438 -1661057629 1148092290 -1008374587 2066852443 -1268423518 252750306 -1170569664 50065758 -772445189 -1489390367 -1771139326 1953445912 -972084575 -426956723
REM
CELL 1.54180   50.00000   50.00000   50.00000   90.00000   90.00000   90.00000
LATT -1
SFAC C  
C      1  0.4877540000000  0.3729200000000  0.5886620000000 1.0
C      1  0.5397540000000  0.5569700000000  0.5368530000000 1.0
C      1  0.4288360000000  0.4665310000000  0.5028230000000 1.0
C      1  0.5110190000000  0.4669970000000  0.4473310000000 1.0
C      1  0.4407730000000  0.5514140000000  0.3719570000000 1.0
C      1  0.5271210000000  0.5495040000000  0.4407740000000 1.0
C      1  0.4538940000000  0.4635610000000  0.5457850000000 1.0
C      1  0.5760830000000  0.5161720000000  0.4862850000000 1.0
C      1  0.4999230000000  0.4460440000000  0.5581680000000 1.0
C      1  0.5559200000000  0.5454120000000  0.4400590000000 1.0
C      1  0.4134960000000  0.4412310000000  0.5735420000000 1.0
C      1  0.5380280000000  0.5046690000000  0.4291190000000 1.0
C      1  0.4233170000000  0.5257150000000  0.5361860000000 1.0
C      1  0.5242970000000  0.4570180000000  0.5457430000000 1.0
C      1  0.5858380000000  0.4556030000000  0.4714660000000 1.0
C      1  0.4331020000000  0.4520850000000  0.5602430000000 1.0
C      1  0.5625110000000  0.5170470000000  0.4397280000000 1.0
C      1  0.5295110000000  0.4503760000000  0.5186520000000 1.0
C      1  0.4742070000000  0.5343750000000  0.5338150000000 1.0
C      1  0.4938640000000  0.4929500000000  0.5512040000000 1.0
C      1  0.5559020000000  0.5223800000000  0.5047020000000 1.0
C      1  0.4506180000000  0.4730190000000  0.5188140000000 1.0
C      1  0.5151200000000  0.5557360000000  0.4656370000000 1.0
C      1  0.5294780000000  0.5178380000000  0.4958250000000 1.0
C      1  0.4888330000000  0.5191380000000  0.4277210000000 1.0
C      1  0.4924250000000  0.3966350000000  0.5788960000000 1.0
C      1  0.5880110000000  0.4789510000000  0.4586580000000 1.0
C      1  0.4790420000000  0.5017410000000  0.4478710000000 1.0
C      1  0.5139610000000  0.5841480000000  0.5061320000000 1.0
C      1  0.5135730000000  0.5800670000000  0.4794970000000 1.0
C      1  0.4798890000000  0.4671510000000  0.5569020000000 1.0
C      1  0.3996300000000  0.5150670000000  0.5339750000000 1.0
C      1  0.4969200000000  0.4207710000000  0.5689420000000 1.0
C      1  0.5217750000000  0.4855350000000  0.5513860000000 1.0
C      1  0.4088360000000  0.4604020000000  0.4872830000000 1.0
C      1  0.4906380000000  0.4803250000000  0.4620780000000 1.0
C      1  0.5733720000000  0.4421610000000  0.4908280000000 1.0
C      1  0.4562400000000  0.5407620000000  0.3900390000000 1.0
C      1  0.4900360000000  0.4765710000000  0.4902100000000 1.0
C      1  0.4461810000000  0.5404080000000  0.5411360000000 1.0
C      1  0.4726460000000  0.5760400000000  0.5544570000000 1.0
C      1  0.5119790000000  0.5328350000000  0.4821630000000 1.0
C      1  0.4719800000000  0.5299690000000  0.4084140000000 1.0
C      1  0.5537300000000  0.4407240000000  0.5087670000000 1.0
C      1  0.5166660000000  0.5249450000000  0.4280890000000 1.0
C      1  0.5781090000000  0.5051480000000  0.4602070000000 1.0
C      1  0.5308520000000  0.4777670000000  0.4325760000000 1.0
C      1  0.4822130000000  0.5076190000000  0.5296170000000 1.0
C      1  0.4724990000000  0.4891850000000  0.5092050000000 1.0
C      1  0.5149090000000  0.5679510000000  0.5293530000000 1.0
C      1  0.4906110000000  0.5585180000000  0.5399220000000 1.0
C      1  0.4470520000000  0.5658450000000  0.5546500000000 1.0
C      1  0.5576130000000  0.5393800000000  0.5270320000000 1.0
C      1  0.5094100000000  0.4586770000000  0.5006210000000 1.0
END
