TITL C-627113-6568-472 0.0017375915169643 125000 -311.664952273083 0 0 52 (C1) n - 1
REM
REM in /home/nfs/bkarasulu/CARBON/AIRSS/Generating-Clusters/LCBOP/Only-C1/SD-CG/FIRE-CG
REM
REM
REM
REM
REM
REM ./C.cell (11c1c37f851c82e70ff6c80c92926a4b)
REM AIRSS Version 0.9.1 bugfix July 2018 build 013d7b7c2542+ Fri, 06 Jul 2018 19:26:36 +0100
REM compiler GCC version 9.2.1 20190827 (Red Hat 9.2.1-1)
REM options -cpp -mtune=generic -march=x86-64 -g -O0 -fpre-include=/usr/include/finclude/math-vector-fortran.h
REM seed -491580531 267723784 255956751 -165207971 -37850735 -1514912649 -516428724 631995459 639635676 -1216760949 -695078991 -47959270 1134085741 -2073817523 -397827231 2002768345 -1035958583 751838735 -533212262 1421767380 -1108720315 -1306249248 -1194620956 -979751737 -201784630 1105742140 -1766687786 539547563 2024870714 1682095903 -1981097088 -1983057355 -496834772
REM
CELL 1.54180   50.00000   50.00000   50.00000   90.00000   90.00000   90.00000
LATT -1
SFAC C  
C      1  0.4746770000000  0.4651410000000  0.5702730000000 1.0
C      1  0.4731040000000  0.5192350000000  0.4716030000000 1.0
C      1  0.4702760000000  0.5283900000000  0.4987230000000 1.0
C      1  0.5163540000000  0.5995840000000  0.4950630000000 1.0
C      1  0.4268980000000  0.4745250000000  0.5645570000000 1.0
C      1  0.3917660000000  0.4325380000000  0.6168500000000 1.0
C      1  0.5571850000000  0.5449430000000  0.4554390000000 1.0
C      1  0.4998590000000  0.5611840000000  0.5212610000000 1.0
C      1  0.4472590000000  0.4622110000000  0.5793280000000 1.0
C      1  0.4223640000000  0.4916500000000  0.5446230000000 1.0
C      1  0.4363890000000  0.5060740000000  0.5270890000000 1.0
C      1  0.4644050000000  0.5784430000000  0.4334840000000 1.0
C      1  0.5893590000000  0.3673260000000  0.4192690000000 1.0
C      1  0.5109330000000  0.5339900000000  0.4424590000000 1.0
C      1  0.4947450000000  0.4598910000000  0.5896430000000 1.0
C      1  0.5447940000000  0.5788530000000  0.5275670000000 1.0
C      1  0.4849370000000  0.5381230000000  0.4534180000000 1.0
C      1  0.4633260000000  0.4951290000000  0.4633030000000 1.0
C      1  0.5114120000000  0.4608980000000  0.4380120000000 1.0
C      1  0.5536270000000  0.4017600000000  0.4366410000000 1.0
C      1  0.4159350000000  0.4401880000000  0.6108070000000 1.0
C      1  0.4936070000000  0.4387830000000  0.5025970000000 1.0
C      1  0.5221940000000  0.4861810000000  0.4456200000000 1.0
C      1  0.4415930000000  0.4485490000000  0.6040290000000 1.0
C      1  0.5795390000000  0.5547810000000  0.5000730000000 1.0
C      1  0.4839670000000  0.4979500000000  0.5341560000000 1.0
C      1  0.5302900000000  0.5005790000000  0.5200870000000 1.0
C      1  0.5088950000000  0.5117840000000  0.5342970000000 1.0
C      1  0.5388780000000  0.4927950000000  0.4961120000000 1.0
C      1  0.4814190000000  0.4712530000000  0.5434640000000 1.0
C      1  0.5188480000000  0.5820780000000  0.5169560000000 1.0
C      1  0.5178150000000  0.5094570000000  0.4296580000000 1.0
C      1  0.5205390000000  0.5987080000000  0.4686190000000 1.0
C      1  0.5316410000000  0.5531760000000  0.4470190000000 1.0
C      1  0.5258310000000  0.5805900000000  0.4496440000000 1.0
C      1  0.4628910000000  0.5109540000000  0.5197170000000 1.0
C      1  0.5038390000000  0.4346840000000  0.4784820000000 1.0
C      1  0.4707700000000  0.5729970000000  0.4819780000000 1.0
C      1  0.5716410000000  0.3844000000000  0.4278830000000 1.0
C      1  0.4731780000000  0.5643080000000  0.4550050000000 1.0
C      1  0.5680750000000  0.5677560000000  0.5204310000000 1.0
C      1  0.4860140000000  0.4506260000000  0.5250800000000 1.0
C      1  0.5169630000000  0.4379920000000  0.4540210000000 1.0
C      1  0.5357930000000  0.4885070000000  0.4700590000000 1.0
C      1  0.4638010000000  0.4438080000000  0.6210430000000 1.0
C      1  0.5750150000000  0.5459840000000  0.4752700000000 1.0
C      1  0.4893820000000  0.4494120000000  0.6140570000000 1.0
C      1  0.5076100000000  0.5396770000000  0.5379460000000 1.0
C      1  0.4780880000000  0.5558910000000  0.5034220000000 1.0
C      1  0.4952880000000  0.4582590000000  0.4160230000000 1.0
C      1  0.5213450000000  0.5088490000000  0.4025060000000 1.0
C      1  0.5356480000000  0.4191580000000  0.4453350000000 1.0
END
