TITL C-627109-622-943 3.03806610812605e-06 125000 -423.491818245134 0 0 70 (C1) n - 1
REM
REM in /home/nfs/bkarasulu/CARBON/AIRSS/Generating-Clusters/LCBOP/Only-C1/SD-CG/FIRE-CG
REM
REM
REM
REM
REM
REM ./C.cell (11c1c37f851c82e70ff6c80c92926a4b)
REM AIRSS Version 0.9.1 bugfix July 2018 build 013d7b7c2542+ Fri, 06 Jul 2018 19:26:36 +0100
REM compiler GCC version 9.2.1 20190827 (Red Hat 9.2.1-1)
REM options -cpp -mtune=generic -march=x86-64 -g -O0 -fpre-include=/usr/include/finclude/math-vector-fortran.h
REM seed -2081512554 -238933560 974239733 1304556825 368706067 1763159825 453881715 1494517937 -1116113375 1506000779 -341443183 1398924501 1480868586 -205997138 2010251691 705540792 -1583698424 822414786 74229385 -261288081 325296120 252201805 406673024 1818997327 -106903976 -1077058742 -1482401663 2054286528 1988768455 -2086450314 -1045086803 -389143073 -495277155
REM
CELL 1.54180   50.00000   50.00000   50.00000   90.00000   90.00000   90.00000
LATT -1
SFAC C  
C      1  0.5343520000000  0.5884910000000  0.5499360000000 1.0
C      1  0.4702640000000  0.4895190000000  0.4219640000000 1.0
C      1  0.4546210000000  0.4884060000000  0.4752450000000 1.0
C      1  0.4921180000000  0.5413830000000  0.4914450000000 1.0
C      1  0.5058490000000  0.4359680000000  0.4566740000000 1.0
C      1  0.4402090000000  0.4169670000000  0.4614890000000 1.0
C      1  0.5893170000000  0.5045990000000  0.5304240000000 1.0
C      1  0.4558800000000  0.4633490000000  0.4609750000000 1.0
C      1  0.5749850000000  0.5709990000000  0.5006880000000 1.0
C      1  0.5814330000000  0.4929250000000  0.4617390000000 1.0
C      1  0.5935580000000  0.5196260000000  0.5539430000000 1.0
C      1  0.4479700000000  0.4391430000000  0.4759880000000 1.0
C      1  0.5303370000000  0.5868680000000  0.4740960000000 1.0
C      1  0.5292750000000  0.5280700000000  0.4640500000000 1.0
C      1  0.4257510000000  0.5012310000000  0.5347580000000 1.0
C      1  0.4278690000000  0.4561350000000  0.5172050000000 1.0
C      1  0.5192870000000  0.4697080000000  0.4283800000000 1.0
C      1  0.4459890000000  0.4374970000000  0.5053840000000 1.0
C      1  0.5867450000000  0.5412300000000  0.5681120000000 1.0
C      1  0.4640830000000  0.4265840000000  0.5249270000000 1.0
C      1  0.5895520000000  0.5463590000000  0.5010080000000 1.0
C      1  0.5210360000000  0.4987920000000  0.5450390000000 1.0
C      1  0.5442510000000  0.5288260000000  0.5147450000000 1.0
C      1  0.4010960000000  0.4962580000000  0.5449370000000 1.0
C      1  0.4452450000000  0.5410960000000  0.4661060000000 1.0
C      1  0.4986820000000  0.4177200000000  0.4773640000000 1.0
C      1  0.3779900000000  0.4030580000000  0.5165780000000 1.0
C      1  0.4713990000000  0.5585060000000  0.5595520000000 1.0
C      1  0.5006000000000  0.4310020000000  0.5014310000000 1.0
C      1  0.5573290000000  0.4606690000000  0.5393810000000 1.0
C      1  0.4015150000000  0.4508510000000  0.5267670000000 1.0
C      1  0.3679230000000  0.3797330000000  0.5107330000000 1.0
C      1  0.5958850000000  0.5024890000000  0.4819480000000 1.0
C      1  0.5094970000000  0.5842090000000  0.5412830000000 1.0
C      1  0.4453240000000  0.5140780000000  0.4673820000000 1.0
C      1  0.5392070000000  0.5172180000000  0.5381660000000 1.0
C      1  0.5389210000000  0.4676520000000  0.4512890000000 1.0
C      1  0.3885670000000  0.4266780000000  0.5222470000000 1.0
C      1  0.4879330000000  0.5670880000000  0.5372180000000 1.0
C      1  0.5549560000000  0.5791640000000  0.4820730000000 1.0
C      1  0.5757870000000  0.4793740000000  0.5327960000000 1.0
C      1  0.4847810000000  0.4293470000000  0.5424660000000 1.0
C      1  0.5101160000000  0.4366730000000  0.5491220000000 1.0
C      1  0.4709740000000  0.4646510000000  0.4362550000000 1.0
C      1  0.5430320000000  0.5292950000000  0.4882290000000 1.0
C      1  0.4566140000000  0.5656780000000  0.4654540000000 1.0
C      1  0.4804990000000  0.5202080000000  0.5353340000000 1.0
C      1  0.4966310000000  0.4517840000000  0.4342750000000 1.0
C      1  0.5377040000000  0.5112680000000  0.4426890000000 1.0
C      1  0.5019000000000  0.5354320000000  0.4656280000000 1.0
C      1  0.4876400000000  0.5438740000000  0.5188950000000 1.0
C      1  0.5737720000000  0.5646350000000  0.5678040000000 1.0
C      1  0.5560950000000  0.4902430000000  0.4511520000000 1.0
C      1  0.5221700000000  0.4572040000000  0.4723210000000 1.0
C      1  0.5351680000000  0.4466980000000  0.5463250000000 1.0
C      1  0.5937350000000  0.5182200000000  0.5051340000000 1.0
C      1  0.5750610000000  0.5854420000000  0.5249360000000 1.0
C      1  0.4778040000000  0.5825360000000  0.4662380000000 1.0
C      1  0.4623800000000  0.4853030000000  0.5022760000000 1.0
C      1  0.5038710000000  0.5890960000000  0.4692560000000 1.0
C      1  0.4401110000000  0.4821410000000  0.5198190000000 1.0
C      1  0.4677770000000  0.5311140000000  0.5587710000000 1.0
C      1  0.4962930000000  0.4967990000000  0.5323430000000 1.0
C      1  0.4876160000000  0.5313700000000  0.4415520000000 1.0
C      1  0.5069600000000  0.4594220000000  0.4979120000000 1.0
C      1  0.3892950000000  0.4721130000000  0.5411230000000 1.0
C      1  0.4907060000000  0.5091750000000  0.4245040000000 1.0
C      1  0.4897450000000  0.4799140000000  0.5102570000000 1.0
C      1  0.5173240000000  0.4987140000000  0.4249990000000 1.0
C      1  0.5616370000000  0.5821310000000  0.5494680000000 1.0
END
