TITL C-627106-156-1368 -1112.13468040193 125000 -962.241470671775 0 0 156 (C1) n - 1
REM
REM in /home/nfs/bkarasulu/CARBON/AIRSS/Generating-Clusters/LCBOP/Only-C1/SD-CG/FIRE-CG
REM
REM
REM
REM
REM
REM ./C.cell (11c1c37f851c82e70ff6c80c92926a4b)
REM AIRSS Version 0.9.1 bugfix July 2018 build 013d7b7c2542+ Fri, 06 Jul 2018 19:26:36 +0100
REM compiler GCC version 9.2.1 20190827 (Red Hat 9.2.1-1)
REM options -cpp -mtune=generic -march=x86-64 -g -O0 -fpre-include=/usr/include/finclude/math-vector-fortran.h
REM seed 1158550440 1910660802 2085049231 641174427 -865508370 -293779507 -1383591685 1692790864 -1030781236 202032375 -867328444 -922193440 -372123325 -1876271071 1892293836 1015873822 2020598218 -615263337 -1162401917 -352374815 1507257952 -167143127 1652836061 -1602764694 1853055613 1070760678 505766347 -1990647756 -1750307351 1006564027 1546529017 -1766621208 209881582
REM
CELL 1.54180   50.00000   50.00000   50.00000   90.00000   90.00000   90.00000
LATT -1
SFAC C  
C      1  0.5664510000000  0.6262430000000  0.4987470000000 1.0
C      1  0.4781610000000  0.4767860000000  0.3906550000000 1.0
C      1  0.5976750000000  0.4971020000000  0.4440430000000 1.0
C      1  0.4241670000000  0.4600060000000  0.4191000000000 1.0
C      1  0.4995420000000  0.4678570000000  0.4557200000000 1.0
C      1  0.6022350000000  0.5533510000000  0.5670280000000 1.0
C      1  0.4519280000000  0.4591590000000  0.4777960000000 1.0
C      1  0.4970400000000  0.4980340000000  0.5054430000000 1.0
C      1  0.4300920000000  0.5807910000000  0.4527420000000 1.0
C      1  0.5636280000000  0.4412000000000  0.3947380000000 1.0
C      1  0.4785450000000  0.5519810000000  0.4076460000000 1.0
C      1  0.4764550000000  0.5910670000000  0.4699160000000 1.0
C      1  0.3790200000000  0.4769750000000  0.4343600000000 1.0
C      1  0.5353270000000  0.5354250000000  0.5916270000000 1.0
C      1  0.4810240000000  0.5786970000000  0.5746560000000 1.0
C      1  0.4611750000000  0.3840130000000  0.4654270000000 1.0
C      1  0.5446940000000  0.4306710000000  0.4102450000000 1.0
C      1  0.5920320000000  0.5378110000000  0.4767510000000 1.0
C      1  0.4164800000000  0.5349390000000  0.5486150000000 1.0
C      1  0.4464460000000  0.4555910000000  0.5996760000000 1.0
C      1  0.4224390000000  0.4308450000000  0.5023380000000 1.0
C      1  0.5806580000000  0.4669290000000  0.5733080000000 1.0
C      1  0.4877990000000  0.4736910000000  0.5717690000000 1.0
C      1  0.5282120000000  0.4152100000000  0.4549110000000 1.0
C      1  0.5168240000000  0.4255390000000  0.6020090000000 1.0
C      1  0.4556890000000  0.6017910000000  0.5237210000000 1.0
C      1  0.4874290000000  0.5132560000000  0.5314030000000 1.0
C      1  0.5637510000000  0.5349910000000  0.5915860000000 1.0
C      1  0.4944140000000  0.5629210000000  0.5959410000000 1.0
C      1  0.5442330000000  0.5193130000000  0.5305650000000 1.0
C      1  0.4051680000000  0.5152770000000  0.4843240000000 1.0
C      1  0.4814520000000  0.4907240000000  0.4438210000000 1.0
C      1  0.4303110000000  0.5570040000000  0.4357840000000 1.0
C      1  0.3787920000000  0.5009310000000  0.4466880000000 1.0
C      1  0.4894330000000  0.5139770000000  0.4569920000000 1.0
C      1  0.4236080000000  0.4997730000000  0.5861790000000 1.0
C      1  0.4332250000000  0.5512180000000  0.5312300000000 1.0
C      1  0.5511610000000  0.4805940000000  0.4547660000000 1.0
C      1  0.4863910000000  0.4630950000000  0.5071090000000 1.0
C      1  0.4856030000000  0.5868390000000  0.4413140000000 1.0
C      1  0.4663880000000  0.4785930000000  0.5546220000000 1.0
C      1  0.5484100000000  0.5126500000000  0.5031530000000 1.0
C      1  0.6360490000000  0.4877760000000  0.5532820000000 1.0
C      1  0.4924790000000  0.4598380000000  0.4062400000000 1.0
C      1  0.4283240000000  0.5261260000000  0.5753390000000 1.0
C      1  0.5159860000000  0.4896730000000  0.6036710000000 1.0
C      1  0.5103350000000  0.5094960000000  0.5586920000000 1.0
C      1  0.4606790000000  0.3601720000000  0.4510010000000 1.0
C      1  0.4387780000000  0.5920010000000  0.5020110000000 1.0
C      1  0.5048910000000  0.4306110000000  0.5770210000000 1.0
C      1  0.3961370000000  0.4594380000000  0.4230420000000 1.0
C      1  0.4590930000000  0.5625850000000  0.5669800000000 1.0
C      1  0.5254090000000  0.4963560000000  0.4927460000000 1.0
C      1  0.4335320000000  0.4850300000000  0.5144870000000 1.0
C      1  0.4415930000000  0.4831240000000  0.4664980000000 1.0
C      1  0.4940020000000  0.5558890000000  0.5041610000000 1.0
C      1  0.5267690000000  0.4443620000000  0.6187190000000 1.0
C      1  0.4570930000000  0.4303280000000  0.5892200000000 1.0
C      1  0.5371850000000  0.5470620000000  0.5394330000000 1.0
C      1  0.5827210000000  0.4588770000000  0.3889210000000 1.0
C      1  0.5197660000000  0.5122480000000  0.5863940000000 1.0
C      1  0.4320090000000  0.5634050000000  0.5056200000000 1.0
C      1  0.3974180000000  0.5199300000000  0.4571110000000 1.0
C      1  0.5262690000000  0.4805050000000  0.4680660000000 1.0
C      1  0.6056840000000  0.5188770000000  0.4604760000000 1.0
C      1  0.4620450000000  0.4978830000000  0.5361870000000 1.0
C      1  0.4220160000000  0.5119460000000  0.4168070000000 1.0
C      1  0.4763760000000  0.4065650000000  0.4559460000000 1.0
C      1  0.5221120000000  0.5666710000000  0.5557600000000 1.0
C      1  0.5281070000000  0.5721400000000  0.4201320000000 1.0
C      1  0.5205580000000  0.4307310000000  0.5125060000000 1.0
C      1  0.5887290000000  0.5665380000000  0.4691760000000 1.0
C      1  0.4417860000000  0.4379850000000  0.4255490000000 1.0
C      1  0.5455210000000  0.5876340000000  0.4371050000000 1.0
C      1  0.4517360000000  0.4553230000000  0.5470110000000 1.0
C      1  0.5872770000000  0.4500160000000  0.4546190000000 1.0
C      1  0.5230490000000  0.6201370000000  0.4712280000000 1.0
C      1  0.4136850000000  0.4783840000000  0.5362530000000 1.0
C      1  0.5965120000000  0.5864980000000  0.4876840000000 1.0
C      1  0.5421690000000  0.6316130000000  0.4887930000000 1.0
C      1  0.5760990000000  0.4259650000000  0.4578300000000 1.0
C      1  0.5663280000000  0.5268810000000  0.4853350000000 1.0
C      1  0.5397730000000  0.5471970000000  0.4139870000000 1.0
C      1  0.5239900000000  0.5254090000000  0.4218830000000 1.0
C      1  0.6053010000000  0.4947630000000  0.4170120000000 1.0
C      1  0.4515210000000  0.5562790000000  0.4163890000000 1.0
C      1  0.5093250000000  0.4561190000000  0.5633400000000 1.0
C      1  0.4613210000000  0.4234730000000  0.4378720000000 1.0
C      1  0.4661400000000  0.4711540000000  0.6136970000000 1.0
C      1  0.4469890000000  0.3867680000000  0.4898790000000 1.0
C      1  0.5539640000000  0.4127530000000  0.4696880000000 1.0
C      1  0.4539020000000  0.5225140000000  0.4879050000000 1.0
C      1  0.4840640000000  0.5260070000000  0.3946980000000 1.0
C      1  0.6155960000000  0.5034260000000  0.5623150000000 1.0
C      1  0.5930820000000  0.4926790000000  0.5761300000000 1.0
C      1  0.5841200000000  0.4503410000000  0.5498340000000 1.0
C      1  0.5780870000000  0.5106940000000  0.5923760000000 1.0
C      1  0.5183710000000  0.5540300000000  0.4913320000000 1.0
C      1  0.5826880000000  0.4645000000000  0.5249310000000 1.0
C      1  0.4353980000000  0.4554870000000  0.5006530000000 1.0
C      1  0.5029390000000  0.4105240000000  0.4683040000000 1.0
C      1  0.4700810000000  0.5025390000000  0.3857830000000 1.0
C      1  0.5316660000000  0.4967730000000  0.5448590000000 1.0
C      1  0.4265140000000  0.4057640000000  0.4936760000000 1.0
C      1  0.5339600000000  0.6108720000000  0.4473630000000 1.0
C      1  0.4751320000000  0.5646650000000  0.4851890000000 1.0
C      1  0.4268640000000  0.4710870000000  0.5838990000000 1.0
C      1  0.5869750000000  0.6091040000000  0.4984220000000 1.0
C      1  0.5506400000000  0.5359170000000  0.4637920000000 1.0
C      1  0.5362680000000  0.4689600000000  0.6080060000000 1.0
C      1  0.4980440000000  0.5715570000000  0.4202820000000 1.0
C      1  0.5261130000000  0.4314210000000  0.4312100000000 1.0
C      1  0.5796170000000  0.5563030000000  0.5815890000000 1.0
C      1  0.4703720000000  0.4415580000000  0.5297010000000 1.0
C      1  0.6160730000000  0.5315910000000  0.5592700000000 1.0
C      1  0.4889940000000  0.4799860000000  0.5999430000000 1.0
C      1  0.4824800000000  0.5425060000000  0.5270410000000 1.0
C      1  0.4803550000000  0.4580300000000  0.4802300000000 1.0
C      1  0.4454450000000  0.5968530000000  0.4725210000000 1.0
C      1  0.5354850000000  0.4528300000000  0.5213350000000 1.0
C      1  0.4502000000000  0.5428460000000  0.5862650000000 1.0
C      1  0.5700150000000  0.5764260000000  0.4486060000000 1.0
C      1  0.5602130000000  0.4609770000000  0.5101880000000 1.0
C      1  0.3903600000000  0.5208010000000  0.5079100000000 1.0
C      1  0.5591470000000  0.4645830000000  0.5916350000000 1.0
C      1  0.4784580000000  0.4205850000000  0.5719200000000 1.0
C      1  0.4730770000000  0.5441010000000  0.6049530000000 1.0
C      1  0.5790580000000  0.4768510000000  0.4525120000000 1.0
C      1  0.5275400000000  0.4677820000000  0.5441720000000 1.0
C      1  0.5208040000000  0.5586950000000  0.5848000000000 1.0
C      1  0.4804080000000  0.5130400000000  0.4839030000000 1.0
C      1  0.4612920000000  0.3375930000000  0.4380040000000 1.0
C      1  0.4503740000000  0.5501400000000  0.4875810000000 1.0
C      1  0.5984900000000  0.4791090000000  0.3963570000000 1.0
C      1  0.4744990000000  0.4163970000000  0.5437130000000 1.0
C      1  0.5788980000000  0.4224790000000  0.5436400000000 1.0
C      1  0.5101090000000  0.5291790000000  0.4470640000000 1.0
C      1  0.4838710000000  0.6010020000000  0.5312590000000 1.0
C      1  0.4320390000000  0.5025090000000  0.4886480000000 1.0
C      1  0.4985940000000  0.6102010000000  0.4825690000000 1.0
C      1  0.5595830000000  0.4044570000000  0.4968930000000 1.0
C      1  0.4351110000000  0.4868740000000  0.4207310000000 1.0
C      1  0.4987730000000  0.6123780000000  0.5106430000000 1.0
C      1  0.4536220000000  0.4883510000000  0.4416600000000 1.0
C      1  0.5700410000000  0.4081990000000  0.5218920000000 1.0
C      1  0.5058000000000  0.4154500000000  0.4960610000000 1.0
C      1  0.3938030000000  0.5254250000000  0.5344290000000 1.0
C      1  0.4981050000000  0.5858280000000  0.5519400000000 1.0
C      1  0.4249840000000  0.4617000000000  0.5566260000000 1.0
C      1  0.4595270000000  0.3776160000000  0.5132630000000 1.0
C      1  0.5246450000000  0.5435920000000  0.4661930000000 1.0
C      1  0.5055850000000  0.4515270000000  0.4304640000000 1.0
C      1  0.4149550000000  0.5319280000000  0.4370200000000 1.0
C      1  0.4595870000000  0.5529700000000  0.5409780000000 1.0
C      1  0.4710350000000  0.3909310000000  0.5332700000000 1.0
C      1  0.5099400000000  0.5155630000000  0.4003830000000 1.0
END
