TITL C-627110-360-807 0.0277526731651984 125000 -395.904900505253 0 0 66 (C1) n - 1
REM
REM in /home/nfs/bkarasulu/CARBON/AIRSS/Generating-Clusters/LCBOP/Only-C1/SD-CG/FIRE-CG
REM
REM
REM
REM
REM
REM ./C.cell (11c1c37f851c82e70ff6c80c92926a4b)
REM AIRSS Version 0.9.1 bugfix July 2018 build 013d7b7c2542+ Fri, 06 Jul 2018 19:26:36 +0100
REM compiler GCC version 9.2.1 20190827 (Red Hat 9.2.1-1)
REM options -cpp -mtune=generic -march=x86-64 -g -O0 -fpre-include=/usr/include/finclude/math-vector-fortran.h
REM seed 967985307 -141186597 -1382481784 1194591852 -429020675 1345244672 1950919539 -364777368 -1475788659 1425602114 298432027 -64922114 -983098629 -146869412 1733252433 591080692 -137567479 918068908 110324230 -1021041539 111765847 -2043259682 1932843209 1414389604 -1609494657 -324428878 1747970395 -759511739 861984979 -54640704 -2018038975 -485374136 684970443
REM
CELL 1.54180   50.00000   50.00000   50.00000   90.00000   90.00000   90.00000
LATT -1
SFAC C  
C      1  0.5099040000000  0.4195170000000  0.4734790000000 1.0
C      1  0.4816820000000  0.5888850000000  0.5288080000000 1.0
C      1  0.5627250000000  0.4706650000000  0.5081400000000 1.0
C      1  0.5085480000000  0.4587590000000  0.5711750000000 1.0
C      1  0.4695510000000  0.4341200000000  0.5001380000000 1.0
C      1  0.5025660000000  0.5338180000000  0.5360950000000 1.0
C      1  0.5432360000000  0.4877400000000  0.5870160000000 1.0
C      1  0.5787140000000  0.4699870000000  0.5310710000000 1.0
C      1  0.5533470000000  0.6018040000000  0.4630910000000 1.0
C      1  0.5794000000000  0.4713530000000  0.5577610000000 1.0
C      1  0.5434720000000  0.5066150000000  0.4427460000000 1.0
C      1  0.4909330000000  0.5213590000000  0.4355160000000 1.0
C      1  0.4662320000000  0.4538700000000  0.5439670000000 1.0
C      1  0.4202600000000  0.5143630000000  0.4846910000000 1.0
C      1  0.4674810000000  0.5145990000000  0.4748150000000 1.0
C      1  0.4207950000000  0.5318640000000  0.4404080000000 1.0
C      1  0.4500570000000  0.4947510000000  0.5643490000000 1.0
C      1  0.4611900000000  0.4315420000000  0.5270250000000 1.0
C      1  0.5333180000000  0.4698270000000  0.5103620000000 1.0
C      1  0.4228860000000  0.5377160000000  0.4681020000000 1.0
C      1  0.5253440000000  0.4371020000000  0.5786630000000 1.0
C      1  0.5271440000000  0.4839130000000  0.4850160000000 1.0
C      1  0.4831700000000  0.5714060000000  0.4836190000000 1.0
C      1  0.4946070000000  0.4597870000000  0.5468600000000 1.0
C      1  0.5286790000000  0.4379590000000  0.4637280000000 1.0
C      1  0.4317530000000  0.4818080000000  0.5201690000000 1.0
C      1  0.5040180000000  0.5806730000000  0.5422990000000 1.0
C      1  0.4684370000000  0.5047140000000  0.5811020000000 1.0
C      1  0.4302380000000  0.4884350000000  0.4920160000000 1.0
C      1  0.4593540000000  0.4781650000000  0.4483730000000 1.0
C      1  0.4176570000000  0.5842460000000  0.5110480000000 1.0
C      1  0.6011120000000  0.4171360000000  0.4358480000000 1.0
C      1  0.4868110000000  0.4168320000000  0.4866470000000 1.0
C      1  0.4644530000000  0.5077750000000  0.4450650000000 1.0
C      1  0.4939470000000  0.5015580000000  0.5887310000000 1.0
C      1  0.4693370000000  0.4613080000000  0.4916590000000 1.0
C      1  0.5421780000000  0.5845010000000  0.4790560000000 1.0
C      1  0.5216730000000  0.4656340000000  0.4635170000000 1.0
C      1  0.5196780000000  0.5566740000000  0.5405580000000 1.0
C      1  0.4827140000000  0.5086700000000  0.4976880000000 1.0
C      1  0.4471810000000  0.4759040000000  0.5435920000000 1.0
C      1  0.5636800000000  0.4950320000000  0.4583930000000 1.0
C      1  0.5360090000000  0.5108240000000  0.4914990000000 1.0
C      1  0.4415650000000  0.5185100000000  0.4293000000000 1.0
C      1  0.5151890000000  0.4840280000000  0.5838230000000 1.0
C      1  0.5716820000000  0.4812910000000  0.4815360000000 1.0
C      1  0.4953480000000  0.5311380000000  0.5087230000000 1.0
C      1  0.5035450000000  0.5543520000000  0.4921840000000 1.0
C      1  0.5296020000000  0.5660410000000  0.4952460000000 1.0
C      1  0.5532060000000  0.4293260000000  0.4536840000000 1.0
C      1  0.5069230000000  0.4699130000000  0.5229510000000 1.0
C      1  0.4489430000000  0.4726130000000  0.4750550000000 1.0
C      1  0.5623070000000  0.4676090000000  0.5796460000000 1.0
C      1  0.5146500000000  0.5038170000000  0.4362560000000 1.0
C      1  0.5074180000000  0.4759970000000  0.4414020000000 1.0
C      1  0.5475930000000  0.5273450000000  0.5100470000000 1.0
C      1  0.4672670000000  0.5831450000000  0.5050450000000 1.0
C      1  0.4816790000000  0.4652060000000  0.4364290000000 1.0
C      1  0.5401570000000  0.5536590000000  0.5192750000000 1.0
C      1  0.5518290000000  0.4412910000000  0.5836100000000 1.0
C      1  0.4677470000000  0.5620990000000  0.4609780000000 1.0
C      1  0.4838730000000  0.5494920000000  0.4404410000000 1.0
C      1  0.4400040000000  0.5763770000000  0.4977050000000 1.0
C      1  0.4864530000000  0.4809020000000  0.5046900000000 1.0
C      1  0.5771840000000  0.4227570000000  0.4445310000000 1.0
C      1  0.4403680000000  0.5598820000000  0.4735410000000 1.0
END
