TITL C-627113-6568-1588 0.41229348328708 125000 -114.017447131516 0 0 20 (C2v) n - 1
REM
REM in /home/nfs/bkarasulu/CARBON/AIRSS/Generating-Clusters/LCBOP/Only-C1/SD-CG/FIRE-CG
REM
REM
REM
REM
REM
REM ./C.cell (11c1c37f851c82e70ff6c80c92926a4b)
REM AIRSS Version 0.9.1 bugfix July 2018 build 013d7b7c2542+ Fri, 06 Jul 2018 19:26:36 +0100
REM compiler GCC version 9.2.1 20190827 (Red Hat 9.2.1-1)
REM options -cpp -mtune=generic -march=x86-64 -g -O0 -fpre-include=/usr/include/finclude/math-vector-fortran.h
REM seed 1280780479 1634687478 2066887011 532774192 -1284898068 -1841433940 396256919 -865051938 -652337145 1967553079 1827980716 -415782795 -227798195 -241815338 158503971 -299116957 -1509103987 1576045450 222747579 555961294 -1247860083 -1697777468 819594204 -456057173 1452863671 2032733238 30497155 575708505 1833688823 1975739074 1857056329 2098535131 868820007
REM
CELL 1.54180   50.00000   50.00000   50.00000   90.00000   90.00000   90.00000
LATT -1
SFAC C  
C      1  0.4344040000000  0.5336400000000  0.5031030000000 1.0
C      1  0.3519880000000  0.5996230000000  0.5032320000000 1.0
C      1  0.4899660000000  0.4300120000000  0.5124160000000 1.0
C      1  0.3723390000000  0.5833300000000  0.5032000000000 1.0
C      1  0.4137180000000  0.5502020000000  0.5031350000000 1.0
C      1  0.4789130000000  0.3529160000000  0.5260930000000 1.0
C      1  0.4936680000000  0.4558370000000  0.5078350000000 1.0
C      1  0.5476610000000  0.5021140000000  0.4935250000000 1.0
C      1  0.5720510000000  0.5113880000000  0.4889090000000 1.0
C      1  0.6452300000000  0.5392140000000  0.4750610000000 1.0
C      1  0.6692250000000  0.5483380000000  0.4705200000000 1.0
C      1  0.3930310000000  0.5667640000000  0.5031670000000 1.0
C      1  0.6208330000000  0.5299370000000  0.4796780000000 1.0
C      1  0.5232810000000  0.4928440000000  0.4981390000000 1.0
C      1  0.4757680000000  0.5005240000000  0.5030380000000 1.0
C      1  0.4975730000000  0.4830680000000  0.5030040000000 1.0
C      1  0.4550910000000  0.5170790000000  0.5030700000000 1.0
C      1  0.4825570000000  0.3783330000000  0.5215840000000 1.0
C      1  0.4862620000000  0.4041760000000  0.5169990000000 1.0
C      1  0.5964420000000  0.5206620000000  0.4842940000000 1.0
END
