TITL C-627112-676-1535 -4.8329282211293e-07 125000 -193.065341015054 0 0 33 (C1) n - 1
REM
REM in /home/nfs/bkarasulu/CARBON/AIRSS/Generating-Clusters/LCBOP/Only-C1/SD-CG/FIRE-CG
REM
REM
REM
REM
REM
REM ./C.cell (11c1c37f851c82e70ff6c80c92926a4b)
REM AIRSS Version 0.9.1 bugfix July 2018 build 013d7b7c2542+ Fri, 06 Jul 2018 19:26:36 +0100
REM compiler GCC version 9.2.1 20190827 (Red Hat 9.2.1-1)
REM options -cpp -mtune=generic -march=x86-64 -g -O0 -fpre-include=/usr/include/finclude/math-vector-fortran.h
REM seed -1526715509 -977549432 -33884768 1037810308 -1117792002 -884183807 1658789579 -343468077 1580545816 -840576577 -298974859 -132279832 1892704008 -978225268 -1552852432 -1449057377 1821325727 1664808347 -1364789380 -394222149 -1412534538 399945396 -131691747 874919565 -1099549613 629060589 930924807 785872590 -15235991 1768523722 896936981 -1267779550 -2120728379
REM
CELL 1.54180   50.00000   50.00000   50.00000   90.00000   90.00000   90.00000
LATT -1
SFAC C  
C      1  0.5114390000000  0.5478440000000  0.5775540000000 1.0
C      1  0.5090470000000  0.5247520000000  0.4333880000000 1.0
C      1  0.4517040000000  0.4907710000000  0.4721680000000 1.0
C      1  0.4957220000000  0.4681730000000  0.4666960000000 1.0
C      1  0.5098240000000  0.5442520000000  0.4780220000000 1.0
C      1  0.5119460000000  0.4985270000000  0.4284300000000 1.0
C      1  0.6227330000000  0.5118540000000  0.4692590000000 1.0
C      1  0.4766540000000  0.5614560000000  0.5280560000000 1.0
C      1  0.5748260000000  0.5032520000000  0.4891000000000 1.0
C      1  0.4956200000000  0.4476990000000  0.5084030000000 1.0
C      1  0.4307320000000  0.4146170000000  0.5541540000000 1.0
C      1  0.4549340000000  0.5472800000000  0.5173140000000 1.0
C      1  0.5989780000000  0.5075550000000  0.4790980000000 1.0
C      1  0.5356990000000  0.4751240000000  0.4949900000000 1.0
C      1  0.4958760000000  0.5377110000000  0.4545770000000 1.0
C      1  0.4447060000000  0.5315420000000  0.4983860000000 1.0
C      1  0.5158520000000  0.5385230000000  0.5045480000000 1.0
C      1  0.4680850000000  0.5336200000000  0.4569090000000 1.0
C      1  0.5162750000000  0.5406710000000  0.5518800000000 1.0
C      1  0.4681520000000  0.4686090000000  0.4763780000000 1.0
C      1  0.4476440000000  0.4407700000000  0.5161850000000 1.0
C      1  0.5491470000000  0.4993720000000  0.4992870000000 1.0
C      1  0.4990000000000  0.4322420000000  0.5316030000000 1.0
C      1  0.5368110000000  0.5228620000000  0.5423800000000 1.0
C      1  0.4512060000000  0.4251070000000  0.5396610000000 1.0
C      1  0.5052290000000  0.4764430000000  0.4419420000000 1.0
C      1  0.4517000000000  0.5187790000000  0.4744160000000 1.0
C      1  0.4786640000000  0.4217100000000  0.5461890000000 1.0
C      1  0.4675730000000  0.4523390000000  0.5001330000000 1.0
C      1  0.5363120000000  0.5197800000000  0.5136830000000 1.0
C      1  0.4733180000000  0.5867160000000  0.5379540000000 1.0
C      1  0.5125330000000  0.4608710000000  0.4893320000000 1.0
C      1  0.5020600000000  0.5491770000000  0.5279250000000 1.0
END
