TITL C-627107-135-464 0.00459821099292726 125000 -1209.62416667584 0 0 196 (C1) n - 1
REM
REM in /home/nfs/bkarasulu/CARBON/AIRSS/Generating-Clusters/LCBOP/Only-C1/SD-CG/FIRE-CG
REM
REM
REM
REM
REM
REM ./C.cell (11c1c37f851c82e70ff6c80c92926a4b)
REM AIRSS Version 0.9.1 bugfix July 2018 build 013d7b7c2542+ Fri, 06 Jul 2018 19:26:36 +0100
REM compiler GCC version 9.2.1 20190827 (Red Hat 9.2.1-1)
REM options -cpp -mtune=generic -march=x86-64 -g -O0 -fpre-include=/usr/include/finclude/math-vector-fortran.h
REM seed -124648202 -1026117961 -1747564444 1106949740 -1758128258 -943035235 -25198473 -1268131143 1422380244 1190130532 1244367452 788299976 251217842 -979058710 1563316504 -460392484 -928529688 -229137055 496915383 -112067677 -2110639732 854554087 -1941303730 1764125795 1206994316 -1616831079 -1594714187 469339987 -684259724 31190862 1045234421 -22213698 -464358943
REM
CELL 1.54180   50.00000   50.00000   50.00000   90.00000   90.00000   90.00000
LATT -1
SFAC C  
C      1  0.5502050000000  0.3877790000000  0.4475620000000 1.0
C      1  0.4065840000000  0.4163510000000  0.4706710000000 1.0
C      1  0.5637360000000  0.5688480000000  0.5461290000000 1.0
C      1  0.4912860000000  0.6459770000000  0.5104820000000 1.0
C      1  0.4683660000000  0.3723850000000  0.5405210000000 1.0
C      1  0.5078880000000  0.4822530000000  0.4972330000000 1.0
C      1  0.4006600000000  0.4897580000000  0.4582790000000 1.0
C      1  0.5537990000000  0.5321090000000  0.4799370000000 1.0
C      1  0.6008610000000  0.4367740000000  0.4855430000000 1.0
C      1  0.6102970000000  0.6001960000000  0.5263830000000 1.0
C      1  0.5453030000000  0.4269910000000  0.3792410000000 1.0
C      1  0.5768060000000  0.5149540000000  0.4193110000000 1.0
C      1  0.4203070000000  0.4076840000000  0.5751490000000 1.0
C      1  0.5103180000000  0.4265000000000  0.4511050000000 1.0
C      1  0.5374540000000  0.6261410000000  0.5718670000000 1.0
C      1  0.4335850000000  0.5756740000000  0.3318800000000 1.0
C      1  0.4673890000000  0.3243280000000  0.5399960000000 1.0
C      1  0.5146410000000  0.6294130000000  0.5133100000000 1.0
C      1  0.3406790000000  0.6243540000000  0.5527970000000 1.0
C      1  0.4531920000000  0.4152130000000  0.4961100000000 1.0
C      1  0.5043740000000  0.6062570000000  0.5287730000000 1.0
C      1  0.4574350000000  0.4876230000000  0.5543810000000 1.0
C      1  0.4783280000000  0.4460160000000  0.5296260000000 1.0
C      1  0.4913770000000  0.4311450000000  0.6160500000000 1.0
C      1  0.5327740000000  0.4900080000000  0.4864470000000 1.0
C      1  0.5063900000000  0.4393740000000  0.5365480000000 1.0
C      1  0.3982160000000  0.4424050000000  0.4794580000000 1.0
C      1  0.4027300000000  0.5028240000000  0.5324280000000 1.0
C      1  0.7044820000000  0.6483690000000  0.5423730000000 1.0
C      1  0.5481370000000  0.4260730000000  0.4803510000000 1.0
C      1  0.3993150000000  0.4450560000000  0.5288530000000 1.0
C      1  0.5438410000000  0.4414070000000  0.5692220000000 1.0
C      1  0.5125510000000  0.4544250000000  0.4488070000000 1.0
C      1  0.3950580000000  0.5541230000000  0.5039670000000 1.0
C      1  0.6004340000000  0.5048650000000  0.5562790000000 1.0
C      1  0.4771610000000  0.5258780000000  0.3955940000000 1.0
C      1  0.4407700000000  0.5080230000000  0.4955220000000 1.0
C      1  0.4880500000000  0.4665450000000  0.4567870000000 1.0
C      1  0.5254300000000  0.4238730000000  0.5220940000000 1.0
C      1  0.4436620000000  0.4201130000000  0.4198730000000 1.0
C      1  0.5410220000000  0.5194580000000  0.5265000000000 1.0
C      1  0.3656860000000  0.3741750000000  0.4159580000000 1.0
C      1  0.5627690000000  0.4589800000000  0.4467900000000 1.0
C      1  0.4885860000000  0.5823500000000  0.4838570000000 1.0
C      1  0.5440240000000  0.6104620000000  0.4784710000000 1.0
C      1  0.3917420000000  0.4010850000000  0.4528290000000 1.0
C      1  0.4452140000000  0.4144610000000  0.5657130000000 1.0
C      1  0.4329420000000  0.5757990000000  0.3591470000000 1.0
C      1  0.4718950000000  0.4868230000000  0.3436900000000 1.0
C      1  0.5277210000000  0.6162340000000  0.4561330000000 1.0
C      1  0.5576330000000  0.4007230000000  0.4722260000000 1.0
C      1  0.4515980000000  0.5615380000000  0.3744230000000 1.0
C      1  0.5762390000000  0.4883340000000  0.5584850000000 1.0
C      1  0.4749970000000  0.6077130000000  0.5325500000000 1.0
C      1  0.4172520000000  0.5630880000000  0.5217120000000 1.0
C      1  0.4135870000000  0.5901460000000  0.3734330000000 1.0
C      1  0.5292770000000  0.3964590000000  0.5298590000000 1.0
C      1  0.5978110000000  0.5330860000000  0.5568890000000 1.0
C      1  0.4244600000000  0.5147110000000  0.5178690000000 1.0
C      1  0.5138790000000  0.5273270000000  0.5190680000000 1.0
C      1  0.5063890000000  0.4829480000000  0.5248550000000 1.0
C      1  0.4545670000000  0.4305440000000  0.4423370000000 1.0
C      1  0.6814580000000  0.6367740000000  0.5384840000000 1.0
C      1  0.6088410000000  0.5719460000000  0.5288060000000 1.0
C      1  0.4659550000000  0.5732140000000  0.4730850000000 1.0
C      1  0.4042030000000  0.5949020000000  0.3978570000000 1.0
C      1  0.4938950000000  0.5512160000000  0.5540150000000 1.0
C      1  0.6029930000000  0.4854690000000  0.4516010000000 1.0
C      1  0.4791210000000  0.3477790000000  0.5322020000000 1.0
C      1  0.5810090000000  0.4369160000000  0.4409530000000 1.0
C      1  0.5377440000000  0.3625260000000  0.4526670000000 1.0
C      1  0.4966240000000  0.4042340000000  0.4564680000000 1.0
C      1  0.4462300000000  0.4330070000000  0.3961640000000 1.0
C      1  0.5335760000000  0.5135000000000  0.4665570000000 1.0
C      1  0.4646110000000  0.4547210000000  0.3936720000000 1.0
C      1  0.4112500000000  0.4492830000000  0.5040040000000 1.0
C      1  0.4557740000000  0.4803860000000  0.4061890000000 1.0
C      1  0.5234130000000  0.5276360000000  0.6006330000000 1.0
C      1  0.3972470000000  0.4596890000000  0.5512290000000 1.0
C      1  0.5672490000000  0.4277620000000  0.5682160000000 1.0
C      1  0.5114710000000  0.6076930000000  0.4367110000000 1.0
C      1  0.4641920000000  0.4397680000000  0.6190900000000 1.0
C      1  0.4975150000000  0.6134250000000  0.6068070000000 1.0
C      1  0.4057990000000  0.5891140000000  0.4237190000000 1.0
C      1  0.5181770000000  0.6175810000000  0.5882080000000 1.0
C      1  0.5213520000000  0.4828970000000  0.5498240000000 1.0
C      1  0.4147760000000  0.5754260000000  0.4445480000000 1.0
C      1  0.5066570000000  0.5437850000000  0.6143950000000 1.0
C      1  0.5834560000000  0.4605950000000  0.4901980000000 1.0
C      1  0.4688190000000  0.6338800000000  0.5214730000000 1.0
C      1  0.3903730000000  0.6080110000000  0.5579010000000 1.0
C      1  0.4596560000000  0.4407190000000  0.5074520000000 1.0
C      1  0.4564200000000  0.4992880000000  0.3618210000000 1.0
C      1  0.4312320000000  0.4070320000000  0.4821690000000 1.0
C      1  0.5106950000000  0.3955390000000  0.5798830000000 1.0
C      1  0.5357390000000  0.5704490000000  0.5437600000000 1.0
C      1  0.4680760000000  0.5133780000000  0.5468050000000 1.0
C      1  0.5590570000000  0.5590460000000  0.4733270000000 1.0
C      1  0.5308020000000  0.5289930000000  0.5734170000000 1.0
C      1  0.4509660000000  0.4518940000000  0.5972220000000 1.0
C      1  0.4355560000000  0.4757960000000  0.5954650000000 1.0
C      1  0.5793060000000  0.4751100000000  0.4657430000000 1.0
C      1  0.5211880000000  0.3591880000000  0.4992730000000 1.0
C      1  0.4949340000000  0.3785640000000  0.4638770000000 1.0
C      1  0.6062360000000  0.4376290000000  0.4566130000000 1.0
C      1  0.4315700000000  0.5974490000000  0.5828110000000 1.0
C      1  0.5614640000000  0.6252620000000  0.5237730000000 1.0
C      1  0.4309230000000  0.5392970000000  0.5298010000000 1.0
C      1  0.4291810000000  0.4850650000000  0.4553470000000 1.0
C      1  0.6027000000000  0.4190830000000  0.5077980000000 1.0
C      1  0.4600450000000  0.5036120000000  0.3897370000000 1.0
C      1  0.4387100000000  0.4825650000000  0.4834830000000 1.0
C      1  0.5185560000000  0.5824120000000  0.5236380000000 1.0
C      1  0.6058550000000  0.4598610000000  0.5383290000000 1.0
C      1  0.4510780000000  0.4357390000000  0.6427830000000 1.0
C      1  0.3876810000000  0.4648450000000  0.4648370000000 1.0
C      1  0.4552770000000  0.4405940000000  0.5712790000000 1.0
C      1  0.5887800000000  0.4160570000000  0.5538730000000 1.0
C      1  0.3934640000000  0.5164180000000  0.4671690000000 1.0
C      1  0.5659080000000  0.4849860000000  0.5836890000000 1.0
C      1  0.4808660000000  0.5723380000000  0.4114990000000 1.0
C      1  0.4958200000000  0.5915950000000  0.4222890000000 1.0
C      1  0.3741690000000  0.5403880000000  0.5178170000000 1.0
C      1  0.6128600000000  0.5301090000000  0.5031950000000 1.0
C      1  0.5527570000000  0.6301480000000  0.5503340000000 1.0
C      1  0.4217930000000  0.5560200000000  0.4632520000000 1.0
C      1  0.5874000000000  0.6152800000000  0.5201080000000 1.0
C      1  0.5161830000000  0.3614340000000  0.4712130000000 1.0
C      1  0.3653630000000  0.6163990000000  0.5554490000000 1.0
C      1  0.5398760000000  0.3778140000000  0.5106260000000 1.0
C      1  0.4934710000000  0.6324070000000  0.6269860000000 1.0
C      1  0.4826070000000  0.5134900000000  0.4718110000000 1.0
C      1  0.4879070000000  0.4857180000000  0.4772640000000 1.0
C      1  0.5640420000000  0.3858270000000  0.4962960000000 1.0
C      1  0.5447430000000  0.4378620000000  0.5061420000000 1.0
C      1  0.4473570000000  0.4773730000000  0.4341820000000 1.0
C      1  0.5049140000000  0.5218450000000  0.3939700000000 1.0
C      1  0.5449650000000  0.4009080000000  0.4226580000000 1.0
C      1  0.5488270000000  0.5120400000000  0.4187040000000 1.0
C      1  0.5981290000000  0.5059030000000  0.4330330000000 1.0
C      1  0.5650010000000  0.4581530000000  0.5125220000000 1.0
C      1  0.3778340000000  0.5160740000000  0.5293810000000 1.0
C      1  0.4651750000000  0.4592650000000  0.5514080000000 1.0
C      1  0.4677930000000  0.5619350000000  0.5514280000000 1.0
C      1  0.5071860000000  0.5281530000000  0.4722120000000 1.0
C      1  0.5857590000000  0.3907470000000  0.5402310000000 1.0
C      1  0.5101640000000  0.5429610000000  0.4963080000000 1.0
C      1  0.4514160000000  0.5379280000000  0.5483810000000 1.0
C      1  0.5326020000000  0.4442050000000  0.3622660000000 1.0
C      1  0.4596900000000  0.3949060000000  0.5517240000000 1.0
C      1  0.5768170000000  0.4685150000000  0.5368160000000 1.0
C      1  0.5901880000000  0.5587720000000  0.5464190000000 1.0
C      1  0.6216420000000  0.5544400000000  0.5107180000000 1.0
C      1  0.4287440000000  0.5858800000000  0.5359740000000 1.0
C      1  0.4011350000000  0.5425570000000  0.4775290000000 1.0
C      1  0.5411090000000  0.6250200000000  0.5033200000000 1.0
C      1  0.4931800000000  0.5255120000000  0.5387580000000 1.0
C      1  0.4576650000000  0.5254680000000  0.4798720000000 1.0
C      1  0.4929620000000  0.4702700000000  0.3449040000000 1.0
C      1  0.5218370000000  0.3896840000000  0.5562410000000 1.0
C      1  0.5870850000000  0.3937760000000  0.5112740000000 1.0
C      1  0.5576700000000  0.5855860000000  0.4769480000000 1.0
C      1  0.5060770000000  0.4544310000000  0.3638660000000 1.0
C      1  0.3784770000000  0.3874490000000  0.4343920000000 1.0
C      1  0.5109880000000  0.4444070000000  0.6299450000000 1.0
C      1  0.5019670000000  0.3473770000000  0.5158780000000 1.0
C      1  0.4686450000000  0.5531160000000  0.3949590000000 1.0
C      1  0.4580550000000  0.5859100000000  0.5390490000000 1.0
C      1  0.5369850000000  0.4986650000000  0.4407990000000 1.0
C      1  0.5052540000000  0.4262260000000  0.4029310000000 1.0
C      1  0.4987180000000  0.4098910000000  0.5990060000000 1.0
C      1  0.5323600000000  0.4164140000000  0.4024040000000 1.0
C      1  0.6580500000000  0.6249850000000  0.5345290000000 1.0
C      1  0.5210490000000  0.5538040000000  0.5614690000000 1.0
C      1  0.4322950000000  0.4880540000000  0.5697750000000 1.0
C      1  0.5894040000000  0.5176600000000  0.5072390000000 1.0
C      1  0.4381170000000  0.4594750000000  0.5002000000000 1.0
C      1  0.4893480000000  0.6499470000000  0.6458150000000 1.0
C      1  0.6193670000000  0.4843800000000  0.5468100000000 1.0
C      1  0.5084100000000  0.5702990000000  0.4997410000000 1.0
C      1  0.4160720000000  0.5974910000000  0.5589630000000 1.0
C      1  0.5219530000000  0.4549640000000  0.5568210000000 1.0
C      1  0.6058270000000  0.4316070000000  0.5348930000000 1.0
C      1  0.5365720000000  0.4694200000000  0.4424760000000 1.0
C      1  0.6346850000000  0.6131560000000  0.5305650000000 1.0
C      1  0.4640520000000  0.4567810000000  0.4461620000000 1.0
C      1  0.5357950000000  0.5080330000000  0.5535810000000 1.0
C      1  0.4804110000000  0.5904340000000  0.6061670000000 1.0
C      1  0.4487500000000  0.5511900000000  0.4710180000000 1.0
C      1  0.5617840000000  0.5225900000000  0.5063480000000 1.0
C      1  0.4909230000000  0.5655140000000  0.6143760000000 1.0
C      1  0.6202650000000  0.4622790000000  0.4493120000000 1.0
C      1  0.4536280000000  0.5935200000000  0.5975580000000 1.0
C      1  0.4085060000000  0.4853370000000  0.5541240000000 1.0
C      1  0.5309240000000  0.5205270000000  0.3991890000000 1.0
C      1  0.4915840000000  0.4464340000000  0.3875930000000 1.0
END
