TITL C-627113-6568-1108 3.72447956149544 125000 -344.47903954721 0 0 57 (C1) n - 1
REM
REM in /home/nfs/bkarasulu/CARBON/AIRSS/Generating-Clusters/LCBOP/Only-C1/SD-CG/FIRE-CG
REM
REM
REM
REM
REM
REM ./C.cell (11c1c37f851c82e70ff6c80c92926a4b)
REM AIRSS Version 0.9.1 bugfix July 2018 build 013d7b7c2542+ Fri, 06 Jul 2018 19:26:36 +0100
REM compiler GCC version 9.2.1 20190827 (Red Hat 9.2.1-1)
REM options -cpp -mtune=generic -march=x86-64 -g -O0 -fpre-include=/usr/include/finclude/math-vector-fortran.h
REM seed -1132550985 1187285646 493346566 -1432391835 805675818 -1788332752 -979778194 704995271 -1639708637 1201156032 493514478 84888298 -902115859 -1713887249 -461057493 1381882798 -1573480620 -1662766456 1605345015 1132083475 -1115877458 2030189458 952553265 1327839466 40511702 735138675 546777004 572562816 319010234 468325944 -373074240 -434590033 348714689
REM
CELL 1.54180   50.00000   50.00000   50.00000   90.00000   90.00000   90.00000
LATT -1
SFAC C  
C      1  0.4384190000000  0.5041680000000  0.5006370000000 1.0
C      1  0.5674840000000  0.4359840000000  0.5110390000000 1.0
C      1  0.4843480000000  0.5248950000000  0.4640370000000 1.0
C      1  0.6092480000000  0.5007760000000  0.5004520000000 1.0
C      1  0.4134010000000  0.5530850000000  0.5226510000000 1.0
C      1  0.5482520000000  0.4177540000000  0.5074070000000 1.0
C      1  0.7403480000000  0.5057680000000  0.5249970000000 1.0
C      1  0.4611280000000  0.5661330000000  0.4772600000000 1.0
C      1  0.5229020000000  0.4957740000000  0.4618860000000 1.0
C      1  0.4413610000000  0.5038820000000  0.4725350000000 1.0
C      1  0.4646700000000  0.5052770000000  0.4563480000000 1.0
C      1  0.5963340000000  0.5225300000000  0.4882760000000 1.0
C      1  0.5366510000000  0.4811930000000  0.4792700000000 1.0
C      1  0.3724780000000  0.5271510000000  0.5287660000000 1.0
C      1  0.4763440000000  0.5435500000000  0.4842190000000 1.0
C      1  0.5307660000000  0.5422540000000  0.4580350000000 1.0
C      1  0.4973970000000  0.4361080000000  0.4209460000000 1.0
C      1  0.5119340000000  0.5214190000000  0.4587200000000 1.0
C      1  0.4745750000000  0.5340080000000  0.5113140000000 1.0
C      1  0.4711360000000  0.4825970000000  0.4409670000000 1.0
C      1  0.4961220000000  0.4591750000000  0.4064070000000 1.0
C      1  0.3772450000000  0.4688320000000  0.5265380000000 1.0
C      1  0.4973740000000  0.4195330000000  0.4915830000000 1.0
C      1  0.4810150000000  0.4361700000000  0.5072430000000 1.0
C      1  0.4851760000000  0.4337110000000  0.4465820000000 1.0
C      1  0.4892110000000  0.4127540000000  0.4650950000000 1.0
C      1  0.4800850000000  0.5976950000000  0.6199470000000 1.0
C      1  0.4647290000000  0.5742830000000  0.5754600000000 1.0
C      1  0.6366590000000  0.5018230000000  0.5055880000000 1.0
C      1  0.3997220000000  0.5282710000000  0.5214390000000 1.0
C      1  0.5944520000000  0.4779810000000  0.5074280000000 1.0
C      1  0.5559870000000  0.5469590000000  0.4655480000000 1.0
C      1  0.4849570000000  0.3866700000000  0.4580610000000 1.0
C      1  0.4363880000000  0.5749730000000  0.4825110000000 1.0
C      1  0.7147410000000  0.5047940000000  0.5202040000000 1.0
C      1  0.4631800000000  0.5078170000000  0.5145560000000 1.0
C      1  0.5463740000000  0.4782140000000  0.5053240000000 1.0
C      1  0.4731030000000  0.4594350000000  0.5175670000000 1.0
C      1  0.5049660000000  0.4910410000000  0.5334690000000 1.0
C      1  0.4133640000000  0.5039170000000  0.5137050000000 1.0
C      1  0.5788390000000  0.5387650000000  0.4765310000000 1.0
C      1  0.4166850000000  0.5688470000000  0.4995800000000 1.0
C      1  0.4789680000000  0.4862010000000  0.5238530000000 1.0
C      1  0.3549210000000  0.4823010000000  0.5336800000000 1.0
C      1  0.3531800000000  0.5092680000000  0.5344000000000 1.0
C      1  0.4749570000000  0.5509290000000  0.5336320000000 1.0
C      1  0.4008800000000  0.4790750000000  0.5187740000000 1.0
C      1  0.5705040000000  0.4638050000000  0.5092010000000 1.0
C      1  0.4701930000000  0.4569110000000  0.4534770000000 1.0
C      1  0.5230100000000  0.4125620000000  0.5006090000000 1.0
C      1  0.4294980000000  0.5594830000000  0.5448160000000 1.0
C      1  0.4566100000000  0.5619010000000  0.5519380000000 1.0
C      1  0.5304400000000  0.4872560000000  0.5264730000000 1.0
C      1  0.6887050000000  0.5038040000000  0.5153310000000 1.0
C      1  0.4834440000000  0.4816380000000  0.4153420000000 1.0
C      1  0.4724690000000  0.5860840000000  0.5978840000000 1.0
C      1  0.6626760000000  0.5028130000000  0.5104580000000 1.0
END
