TITL C-627107-135-215 3.14094402003157e-07 125000 -1033.12085937878 0 0 168 (C1) n - 1
REM
REM in /home/nfs/bkarasulu/CARBON/AIRSS/Generating-Clusters/LCBOP/Only-C1/SD-CG/FIRE-CG
REM
REM
REM
REM
REM
REM ./C.cell (11c1c37f851c82e70ff6c80c92926a4b)
REM AIRSS Version 0.9.1 bugfix July 2018 build 013d7b7c2542+ Fri, 06 Jul 2018 19:26:36 +0100
REM compiler GCC version 9.2.1 20190827 (Red Hat 9.2.1-1)
REM options -cpp -mtune=generic -march=x86-64 -g -O0 -fpre-include=/usr/include/finclude/math-vector-fortran.h
REM seed 1608132185 1644341573 1121144662 1603987697 -721174122 966942919 390858224 -1022998880 712594934 -156303224 1962619889 94463567 1217572673 1853263643 -110252859 -1848871054 -1208735122 610282623 1487560468 978454729 -1758640122 -2139106505 1684096500 -491322268 -298265691 1189465139 1800775232 -810464560 1378686657 1931893743 1526797376 -1990245960 -2097878525
REM
CELL 1.54180   50.00000   50.00000   50.00000   90.00000   90.00000   90.00000
LATT -1
SFAC C  
C      1  0.5211390000000  0.4324690000000  0.5182980000000 1.0
C      1  0.4027290000000  0.4620000000000  0.4977590000000 1.0
C      1  0.4848290000000  0.5603120000000  0.6129020000000 1.0
C      1  0.4442590000000  0.6099460000000  0.5371410000000 1.0
C      1  0.5649480000000  0.5199660000000  0.5851900000000 1.0
C      1  0.5079710000000  0.4411800000000  0.5427200000000 1.0
C      1  0.5565240000000  0.5890640000000  0.4957460000000 1.0
C      1  0.4783120000000  0.4067240000000  0.4375610000000 1.0
C      1  0.4798760000000  0.4490610000000  0.4122010000000 1.0
C      1  0.5602400000000  0.4944210000000  0.5964030000000 1.0
C      1  0.4607790000000  0.4589480000000  0.4772970000000 1.0
C      1  0.4712790000000  0.5352050000000  0.6107400000000 1.0
C      1  0.5930300000000  0.4127960000000  0.4190380000000 1.0
C      1  0.4110830000000  0.5618110000000  0.4770840000000 1.0
C      1  0.4375140000000  0.5410670000000  0.4196800000000 1.0
C      1  0.5975490000000  0.5606740000000  0.4779000000000 1.0
C      1  0.5461250000000  0.5074150000000  0.5305980000000 1.0
C      1  0.4645940000000  0.4297330000000  0.4277900000000 1.0
C      1  0.4667070000000  0.3973390000000  0.5130360000000 1.0
C      1  0.5130460000000  0.5643720000000  0.6117950000000 1.0
C      1  0.6001110000000  0.5671510000000  0.4503390000000 1.0
C      1  0.4266130000000  0.5183560000000  0.4346670000000 1.0
C      1  0.4715540000000  0.4641390000000  0.3896210000000 1.0
C      1  0.5729730000000  0.5458340000000  0.5459230000000 1.0
C      1  0.4934110000000  0.5664530000000  0.5263030000000 1.0
C      1  0.4931830000000  0.5102520000000  0.4477940000000 1.0
C      1  0.5571070000000  0.5968970000000  0.5441770000000 1.0
C      1  0.4615800000000  0.5412570000000  0.4041930000000 1.0
C      1  0.4129050000000  0.5899190000000  0.4753180000000 1.0
C      1  0.4518250000000  0.5140250000000  0.5081690000000 1.0
C      1  0.4534540000000  0.5798390000000  0.4499630000000 1.0
C      1  0.4866430000000  0.4487270000000  0.4843460000000 1.0
C      1  0.5288150000000  0.5833680000000  0.4882470000000 1.0
C      1  0.3905680000000  0.4132400000000  0.5508920000000 1.0
C      1  0.5201870000000  0.5366470000000  0.5653170000000 1.0
C      1  0.6101960000000  0.4580620000000  0.4337610000000 1.0
C      1  0.5509620000000  0.5681270000000  0.5823980000000 1.0
C      1  0.5637550000000  0.5484380000000  0.4229010000000 1.0
C      1  0.5359280000000  0.5466200000000  0.4227000000000 1.0
C      1  0.5429850000000  0.5396770000000  0.5867130000000 1.0
C      1  0.5623280000000  0.4768720000000  0.3817840000000 1.0
C      1  0.4477300000000  0.5266040000000  0.5944100000000 1.0
C      1  0.5621010000000  0.4620990000000  0.5362140000000 1.0
C      1  0.4201370000000  0.5451400000000  0.5318210000000 1.0
C      1  0.4079670000000  0.4881960000000  0.4887160000000 1.0
C      1  0.4275230000000  0.4251050000000  0.4619710000000 1.0
C      1  0.5901450000000  0.4377960000000  0.4960340000000 1.0
C      1  0.6117580000000  0.5059170000000  0.5276720000000 1.0
C      1  0.4400260000000  0.4000500000000  0.5019300000000 1.0
C      1  0.3950350000000  0.5464440000000  0.4601000000000 1.0
C      1  0.4515520000000  0.4889560000000  0.5624380000000 1.0
C      1  0.5368510000000  0.4381660000000  0.6003370000000 1.0
C      1  0.5160060000000  0.4681680000000  0.5458070000000 1.0
C      1  0.6114440000000  0.4642460000000  0.4610030000000 1.0
C      1  0.4829650000000  0.5578020000000  0.4076350000000 1.0
C      1  0.5411620000000  0.4784570000000  0.3969050000000 1.0
C      1  0.4002120000000  0.5922370000000  0.5423590000000 1.0
C      1  0.4892540000000  0.4023530000000  0.4953580000000 1.0
C      1  0.4559680000000  0.5952290000000  0.5161750000000 1.0
C      1  0.4141010000000  0.5256850000000  0.5522040000000 1.0
C      1  0.5103350000000  0.5056560000000  0.4246270000000 1.0
C      1  0.5313350000000  0.4610970000000  0.6137280000000 1.0
C      1  0.5064100000000  0.5549070000000  0.5486260000000 1.0
C      1  0.4436610000000  0.4452770000000  0.5442000000000 1.0
C      1  0.5591290000000  0.5323330000000  0.5246930000000 1.0
C      1  0.5350770000000  0.3679600000000  0.4198030000000 1.0
C      1  0.5906920000000  0.5485540000000  0.4307940000000 1.0
C      1  0.5261430000000  0.5124410000000  0.4909920000000 1.0
C      1  0.3827890000000  0.4679680000000  0.5710630000000 1.0
C      1  0.4963530000000  0.5728010000000  0.4280640000000 1.0
C      1  0.4742800000000  0.4927250000000  0.5442610000000 1.0
C      1  0.5585630000000  0.5434660000000  0.4991700000000 1.0
C      1  0.5742070000000  0.4734290000000  0.5826890000000 1.0
C      1  0.4010140000000  0.4286150000000  0.5303100000000 1.0
C      1  0.4990740000000  0.5035610000000  0.4954230000000 1.0
C      1  0.4943700000000  0.5071020000000  0.3706050000000 1.0
C      1  0.4915250000000  0.4728050000000  0.5868310000000 1.0
C      1  0.4985900000000  0.4852050000000  0.5606040000000 1.0
C      1  0.4375910000000  0.4650210000000  0.5606380000000 1.0
C      1  0.5202710000000  0.5626520000000  0.4406390000000 1.0
C      1  0.6380810000000  0.4466880000000  0.4973190000000 1.0
C      1  0.4173440000000  0.4179870000000  0.5087820000000 1.0
C      1  0.3918470000000  0.4772260000000  0.5466130000000 1.0
C      1  0.4344490000000  0.5686830000000  0.4287980000000 1.0
C      1  0.6039150000000  0.4371060000000  0.4184550000000 1.0
C      1  0.4394320000000  0.5983160000000  0.4699540000000 1.0
C      1  0.4798920000000  0.5913710000000  0.4414490000000 1.0
C      1  0.5748140000000  0.3970060000000  0.4610890000000 1.0
C      1  0.4894270000000  0.4218460000000  0.5522120000000 1.0
C      1  0.5674360000000  0.4219090000000  0.5026090000000 1.0
C      1  0.5111340000000  0.3717800000000  0.4308840000000 1.0
C      1  0.5273040000000  0.5383660000000  0.6126030000000 1.0
C      1  0.4253630000000  0.5328120000000  0.5778640000000 1.0
C      1  0.3959430000000  0.4574240000000  0.5258360000000 1.0
C      1  0.4772150000000  0.5333730000000  0.4552590000000 1.0
C      1  0.5526110000000  0.4179790000000  0.5540180000000 1.0
C      1  0.5768640000000  0.6291650000000  0.5136930000000 1.0
C      1  0.4012700000000  0.4565080000000  0.4027830000000 1.0
C      1  0.5184580000000  0.4803880000000  0.4131880000000 1.0
C      1  0.6188650000000  0.5221710000000  0.5076350000000 1.0
C      1  0.4950920000000  0.4913270000000  0.4690850000000 1.0
C      1  0.5146550000000  0.4501370000000  0.4471990000000 1.0
C      1  0.5293650000000  0.5831300000000  0.5959380000000 1.0
C      1  0.4555830000000  0.4451240000000  0.5211360000000 1.0
C      1  0.5095200000000  0.5822510000000  0.5089080000000 1.0
C      1  0.3705340000000  0.5178070000000  0.5327150000000 1.0
C      1  0.4191830000000  0.6107790000000  0.5467540000000 1.0
C      1  0.6149820000000  0.5424770000000  0.4906520000000 1.0
C      1  0.6112730000000  0.5909220000000  0.4426360000000 1.0
C      1  0.4367730000000  0.5506760000000  0.4844870000000 1.0
C      1  0.5825580000000  0.5238060000000  0.5629240000000 1.0
C      1  0.5659500000000  0.4769440000000  0.4772850000000 1.0
C      1  0.5732570000000  0.5662250000000  0.4911720000000 1.0
C      1  0.5603560000000  0.3764460000000  0.4201580000000 1.0
C      1  0.5457930000000  0.4231590000000  0.5797340000000 1.0
C      1  0.6081470000000  0.5304540000000  0.4199060000000 1.0
C      1  0.6160820000000  0.4339140000000  0.5069700000000 1.0
C      1  0.5519050000000  0.4322670000000  0.5263070000000 1.0
C      1  0.5450780000000  0.4919340000000  0.4841850000000 1.0
C      1  0.5120170000000  0.5245780000000  0.3816510000000 1.0
C      1  0.4369750000000  0.4336820000000  0.4362740000000 1.0
C      1  0.4887300000000  0.6144030000000  0.4553410000000 1.0
C      1  0.3819140000000  0.3979490000000  0.5701390000000 1.0
C      1  0.4354380000000  0.4970290000000  0.4914130000000 1.0
C      1  0.4736030000000  0.4028530000000  0.5404210000000 1.0
C      1  0.6360260000000  0.4625460000000  0.4752790000000 1.0
C      1  0.4384400000000  0.4003220000000  0.4728200000000 1.0
C      1  0.4426340000000  0.4958960000000  0.4438100000000 1.0
C      1  0.5059500000000  0.4566660000000  0.4216240000000 1.0
C      1  0.5258900000000  0.6079500000000  0.5829380000000 1.0
C      1  0.4650620000000  0.5673120000000  0.5204520000000 1.0
C      1  0.4758610000000  0.4888670000000  0.6037670000000 1.0
C      1  0.5393330000000  0.6132480000000  0.5598010000000 1.0
C      1  0.5584180000000  0.4019280000000  0.4836150000000 1.0
C      1  0.3941010000000  0.4997120000000  0.4669460000000 1.0
C      1  0.5207260000000  0.5271270000000  0.4086430000000 1.0
C      1  0.5775520000000  0.3943190000000  0.4331940000000 1.0
C      1  0.4017760000000  0.5210690000000  0.4498650000000 1.0
C      1  0.5259070000000  0.5613830000000  0.4688640000000 1.0
C      1  0.5816310000000  0.4745070000000  0.5548530000000 1.0
C      1  0.5397350000000  0.4801000000000  0.5353690000000 1.0
C      1  0.4772940000000  0.5034780000000  0.5169230000000 1.0
C      1  0.5033570000000  0.4643240000000  0.4681740000000 1.0
C      1  0.5050730000000  0.3888200000000  0.4760780000000 1.0
C      1  0.4442100000000  0.5435850000000  0.5131010000000 1.0
C      1  0.4885290000000  0.5109640000000  0.6172350000000 1.0
C      1  0.5362380000000  0.4892420000000  0.6121430000000 1.0
C      1  0.5638250000000  0.5715410000000  0.5567660000000 1.0
C      1  0.5942370000000  0.5004570000000  0.5490040000000 1.0
C      1  0.5636450000000  0.6055630000000  0.5177730000000 1.0
C      1  0.4536260000000  0.4988440000000  0.5889310000000 1.0
C      1  0.5350790000000  0.5380320000000  0.4838440000000 1.0
C      1  0.4570250000000  0.6078660000000  0.4905330000000 1.0
C      1  0.4787630000000  0.4854650000000  0.3746890000000 1.0
C      1  0.4483520000000  0.4833040000000  0.4691060000000 1.0
C      1  0.5329870000000  0.3892720000000  0.4825110000000 1.0
C      1  0.4133580000000  0.4373900000000  0.4851130000000 1.0
C      1  0.4965430000000  0.3880130000000  0.4485700000000 1.0
C      1  0.4588100000000  0.5530130000000  0.4654330000000 1.0
C      1  0.5175450000000  0.5119200000000  0.6183780000000 1.0
C      1  0.4186990000000  0.4449770000000  0.4183540000000 1.0
C      1  0.5001630000000  0.4286950000000  0.4987750000000 1.0
C      1  0.4793160000000  0.6215950000000  0.4798040000000 1.0
C      1  0.3496350000000  0.5269800000000  0.5201330000000 1.0
C      1  0.3936210000000  0.5061560000000  0.5442920000000 1.0
C      1  0.4030370000000  0.5676070000000  0.5322500000000 1.0
C      1  0.5105660000000  0.5110980000000  0.5652040000000 1.0
C      1  0.5880370000000  0.4598390000000  0.4773550000000 1.0
END
