TITL C-627108-131-1489 -4.90730957675723e-07 125000 -1022.6160180554 0 0 165 (C1) n - 1
REM
REM in /home/nfs/bkarasulu/CARBON/AIRSS/Generating-Clusters/LCBOP/Only-C1/SD-CG/FIRE-CG
REM
REM
REM
REM
REM
REM ./C.cell (11c1c37f851c82e70ff6c80c92926a4b)
REM AIRSS Version 0.9.1 bugfix July 2018 build 013d7b7c2542+ Fri, 06 Jul 2018 19:26:36 +0100
REM compiler GCC version 9.2.1 20190827 (Red Hat 9.2.1-1)
REM options -cpp -mtune=generic -march=x86-64 -g -O0 -fpre-include=/usr/include/finclude/math-vector-fortran.h
REM seed 1844032032 1352373177 -1466307854 -147599514 749554482 1495713871 -1434331678 -1360117472 759957773 -1204912698 789545459 -253016528 -1193430837 -2137706841 -2090681499 2100842291 -2042779632 1057195778 576098243 1666649617 -886457980 -741171477 -491362028 -110512673 -683842770 1405988236 -2026233833 1176326539 1377611542 754485118 -1129065282 31137750 1857547921
REM
CELL 1.54180   50.00000   50.00000   50.00000   90.00000   90.00000   90.00000
LATT -1
SFAC C  
C      1  0.5315480000000  0.5977960000000  0.4598130000000 1.0
C      1  0.5510330000000  0.4087230000000  0.4691300000000 1.0
C      1  0.4368960000000  0.5658030000000  0.4122270000000 1.0
C      1  0.6102620000000  0.5198830000000  0.5514580000000 1.0
C      1  0.5390470000000  0.5289180000000  0.5064490000000 1.0
C      1  0.4995540000000  0.5574950000000  0.4976550000000 1.0
C      1  0.5551410000000  0.4742840000000  0.4181990000000 1.0
C      1  0.5441440000000  0.4765310000000  0.5772310000000 1.0
C      1  0.4247200000000  0.5521630000000  0.6103350000000 1.0
C      1  0.5167070000000  0.6076070000000  0.5385620000000 1.0
C      1  0.5270910000000  0.4009570000000  0.5250720000000 1.0
C      1  0.4315050000000  0.5645740000000  0.5025980000000 1.0
C      1  0.4598270000000  0.5498330000000  0.4047010000000 1.0
C      1  0.4683530000000  0.4959300000000  0.4069280000000 1.0
C      1  0.3901640000000  0.5785550000000  0.5434690000000 1.0
C      1  0.4317820000000  0.4097220000000  0.4512090000000 1.0
C      1  0.4293480000000  0.4413680000000  0.4085010000000 1.0
C      1  0.5847350000000  0.4598640000000  0.5603580000000 1.0
C      1  0.5290870000000  0.5309590000000  0.5537470000000 1.0
C      1  0.4936500000000  0.4868180000000  0.3962740000000 1.0
C      1  0.4321260000000  0.5928550000000  0.5699760000000 1.0
C      1  0.4933400000000  0.3832290000000  0.4889250000000 1.0
C      1  0.4503710000000  0.4823940000000  0.4510460000000 1.0
C      1  0.4107620000000  0.5398310000000  0.5907480000000 1.0
C      1  0.4929030000000  0.4811210000000  0.4765290000000 1.0
C      1  0.5773680000000  0.4944750000000  0.6087660000000 1.0
C      1  0.4433750000000  0.5825860000000  0.5216340000000 1.0
C      1  0.4669460000000  0.5912780000000  0.5377500000000 1.0
C      1  0.5770930000000  0.5797340000000  0.4822670000000 1.0
C      1  0.3877070000000  0.5635560000000  0.5212400000000 1.0
C      1  0.5140440000000  0.3826170000000  0.5082650000000 1.0
C      1  0.5277930000000  0.4157060000000  0.5957590000000 1.0
C      1  0.5631930000000  0.5824500000000  0.5429160000000 1.0
C      1  0.5943010000000  0.5592910000000  0.4847500000000 1.0
C      1  0.5643030000000  0.5398470000000  0.4475350000000 1.0
C      1  0.4047960000000  0.5535390000000  0.5011070000000 1.0
C      1  0.4588460000000  0.5820510000000  0.5653490000000 1.0
C      1  0.3902720000000  0.4524540000000  0.4427500000000 1.0
C      1  0.6155200000000  0.4783740000000  0.5171100000000 1.0
C      1  0.4708460000000  0.4711270000000  0.5699180000000 1.0
C      1  0.5111810000000  0.4820130000000  0.4555610000000 1.0
C      1  0.4807590000000  0.4061810000000  0.4453180000000 1.0
C      1  0.6015890000000  0.5334380000000  0.4841470000000 1.0
C      1  0.4963900000000  0.5002920000000  0.5207020000000 1.0
C      1  0.4331840000000  0.5046740000000  0.4515770000000 1.0
C      1  0.4722930000000  0.4592920000000  0.5976770000000 1.0
C      1  0.5261790000000  0.4503850000000  0.3879020000000 1.0
C      1  0.5082320000000  0.6131310000000  0.4693090000000 1.0
C      1  0.5079510000000  0.4476880000000  0.5355020000000 1.0
C      1  0.5547990000000  0.4786140000000  0.6037950000000 1.0
C      1  0.6145950000000  0.4929720000000  0.5417600000000 1.0
C      1  0.4329860000000  0.5961970000000  0.4516010000000 1.0
C      1  0.5732290000000  0.4203810000000  0.4818020000000 1.0
C      1  0.5972600000000  0.4302990000000  0.5257740000000 1.0
C      1  0.5048220000000  0.5625020000000  0.5252500000000 1.0
C      1  0.5563030000000  0.4754940000000  0.4773850000000 1.0
C      1  0.5447480000000  0.4985680000000  0.4053490000000 1.0
C      1  0.4944510000000  0.4527950000000  0.6145290000000 1.0
C      1  0.5540670000000  0.5251030000000  0.3984990000000 1.0
C      1  0.5218880000000  0.5093460000000  0.4521490000000 1.0
C      1  0.5722420000000  0.4344570000000  0.3942700000000 1.0
C      1  0.4576270000000  0.4755770000000  0.4244710000000 1.0
C      1  0.5104740000000  0.4726630000000  0.6282290000000 1.0
C      1  0.4395820000000  0.3831030000000  0.4990380000000 1.0
C      1  0.4476500000000  0.6076170000000  0.4712350000000 1.0
C      1  0.4214820000000  0.4656330000000  0.5627920000000 1.0
C      1  0.4916430000000  0.6069420000000  0.5248720000000 1.0
C      1  0.5168680000000  0.4798380000000  0.5721960000000 1.0
C      1  0.4818800000000  0.4399860000000  0.4067560000000 1.0
C      1  0.4742170000000  0.5323150000000  0.4555370000000 1.0
C      1  0.3996990000000  0.5163640000000  0.4209660000000 1.0
C      1  0.5501040000000  0.5179450000000  0.4574940000000 1.0
C      1  0.4487590000000  0.4340050000000  0.5187200000000 1.0
C      1  0.4625300000000  0.5302180000000  0.5746810000000 1.0
C      1  0.4557260000000  0.4500800000000  0.4123750000000 1.0
C      1  0.3990390000000  0.4801120000000  0.5612250000000 1.0
C      1  0.3963370000000  0.5066920000000  0.5588730000000 1.0
C      1  0.4846860000000  0.5209570000000  0.5358710000000 1.0
C      1  0.5852190000000  0.4332180000000  0.5520370000000 1.0
C      1  0.4068720000000  0.5901800000000  0.5609920000000 1.0
C      1  0.5142390000000  0.5322780000000  0.4922440000000 1.0
C      1  0.5662030000000  0.5618850000000  0.4325580000000 1.0
C      1  0.3987780000000  0.5327340000000  0.4817830000000 1.0
C      1  0.5268140000000  0.5353480000000  0.6081010000000 1.0
C      1  0.4940680000000  0.4238590000000  0.4264440000000 1.0
C      1  0.5672180000000  0.5015510000000  0.4731470000000 1.0
C      1  0.5550820000000  0.5927680000000  0.4742730000000 1.0
C      1  0.4993480000000  0.4584450000000  0.3928330000000 1.0
C      1  0.6113370000000  0.4570470000000  0.4743420000000 1.0
C      1  0.5965250000000  0.5112510000000  0.6008060000000 1.0
C      1  0.4504300000000  0.5581470000000  0.4831880000000 1.0
C      1  0.4759160000000  0.5701210000000  0.4881490000000 1.0
C      1  0.4051520000000  0.4460380000000  0.4193150000000 1.0
C      1  0.5041670000000  0.4993100000000  0.6357960000000 1.0
C      1  0.4971670000000  0.5885530000000  0.4263380000000 1.0
C      1  0.4201110000000  0.5154860000000  0.4738460000000 1.0
C      1  0.5080350000000  0.4284870000000  0.6085580000000 1.0
C      1  0.4515320000000  0.5517780000000  0.4554350000000 1.0
C      1  0.5251120000000  0.4100810000000  0.4592310000000 1.0
C      1  0.4475200000000  0.4669620000000  0.5522970000000 1.0
C      1  0.4578210000000  0.4178870000000  0.4563790000000 1.0
C      1  0.5631720000000  0.4151050000000  0.5553220000000 1.0
C      1  0.5982860000000  0.5422560000000  0.5392440000000 1.0
C      1  0.5007340000000  0.5279060000000  0.4410700000000 1.0
C      1  0.5100300000000  0.5300350000000  0.4133510000000 1.0
C      1  0.4279580000000  0.5160160000000  0.4250450000000 1.0
C      1  0.5549940000000  0.4064050000000  0.5283660000000 1.0
C      1  0.4825340000000  0.5687370000000  0.4107060000000 1.0
C      1  0.4778590000000  0.5064310000000  0.5791790000000 1.0
C      1  0.5096560000000  0.4197360000000  0.5374870000000 1.0
C      1  0.5230980000000  0.4579250000000  0.5135380000000 1.0
C      1  0.5520920000000  0.4519980000000  0.3996700000000 1.0
C      1  0.4519870000000  0.5089040000000  0.5046880000000 1.0
C      1  0.5898240000000  0.4393820000000  0.4682000000000 1.0
C      1  0.3810860000000  0.5071560000000  0.4413330000000 1.0
C      1  0.5762910000000  0.4163390000000  0.5099320000000 1.0
C      1  0.5425580000000  0.5685640000000  0.4189770000000 1.0
C      1  0.5445980000000  0.5171920000000  0.5322010000000 1.0
C      1  0.4503760000000  0.5611530000000  0.6084880000000 1.0
C      1  0.5054070000000  0.5043060000000  0.5809740000000 1.0
C      1  0.4638470000000  0.4701410000000  0.4755590000000 1.0
C      1  0.5239480000000  0.4581850000000  0.4477400000000 1.0
C      1  0.4495330000000  0.4609080000000  0.5243330000000 1.0
C      1  0.4699070000000  0.5983140000000  0.4857420000000 1.0
C      1  0.6100310000000  0.5213330000000  0.5800060000000 1.0
C      1  0.5335210000000  0.5457800000000  0.4046880000000 1.0
C      1  0.5464030000000  0.4728860000000  0.5060340000000 1.0
C      1  0.4982550000000  0.4637570000000  0.5570550000000 1.0
C      1  0.4412290000000  0.5262970000000  0.5547640000000 1.0
C      1  0.3791790000000  0.4786870000000  0.4446520000000 1.0
C      1  0.4557440000000  0.5209740000000  0.5307870000000 1.0
C      1  0.6085940000000  0.4834090000000  0.4888780000000 1.0
C      1  0.5414140000000  0.5980830000000  0.5430690000000 1.0
C      1  0.5148980000000  0.5235150000000  0.6295990000000 1.0
C      1  0.3773080000000  0.5253090000000  0.4638020000000 1.0
C      1  0.5477730000000  0.4117210000000  0.5784320000000 1.0
C      1  0.4101710000000  0.4114520000000  0.4694660000000 1.0
C      1  0.5038750000000  0.5410870000000  0.5429540000000 1.0
C      1  0.5822530000000  0.5637870000000  0.5402750000000 1.0
C      1  0.3920930000000  0.4326800000000  0.4635280000000 1.0
C      1  0.4364710000000  0.5708310000000  0.4397490000000 1.0
C      1  0.6303100000000  0.4426870000000  0.4917060000000 1.0
C      1  0.4162240000000  0.3953910000000  0.4921830000000 1.0
C      1  0.4661110000000  0.3788030000000  0.4961440000000 1.0
C      1  0.4638390000000  0.5585110000000  0.5831750000000 1.0
C      1  0.6186780000000  0.4479080000000  0.5179730000000 1.0
C      1  0.6087930000000  0.4739880000000  0.5625140000000 1.0
C      1  0.5003360000000  0.3950780000000  0.4640180000000 1.0
C      1  0.4511380000000  0.4796310000000  0.5024760000000 1.0
C      1  0.5518840000000  0.4663870000000  0.4477410000000 1.0
C      1  0.4704110000000  0.5193220000000  0.4831480000000 1.0
C      1  0.4964520000000  0.5065250000000  0.4919250000000 1.0
C      1  0.4623290000000  0.4407930000000  0.4720710000000 1.0
C      1  0.5242880000000  0.5258440000000  0.5817220000000 1.0
C      1  0.4529800000000  0.5208810000000  0.4084860000000 1.0
C      1  0.5385320000000  0.4690830000000  0.6246300000000 1.0
C      1  0.5155250000000  0.5030310000000  0.4025350000000 1.0
C      1  0.5938970000000  0.5064690000000  0.4812700000000 1.0
C      1  0.5175640000000  0.4318180000000  0.4414720000000 1.0
C      1  0.5253030000000  0.5851690000000  0.4335060000000 1.0
C      1  0.5543280000000  0.4892990000000  0.5304150000000 1.0
C      1  0.5614860000000  0.4753530000000  0.5550580000000 1.0
C      1  0.4902020000000  0.6107330000000  0.4445460000000 1.0
C      1  0.4929540000000  0.6124670000000  0.4949550000000 1.0
C      1  0.4148330000000  0.5265650000000  0.5659070000000 1.0
END
