TITL C-627108-131-455 0.00977298251104246 125000 -1067.32809074307 0 0 172 (C1) n - 1
REM
REM in /home/nfs/bkarasulu/CARBON/AIRSS/Generating-Clusters/LCBOP/Only-C1/SD-CG/FIRE-CG
REM
REM
REM
REM
REM
REM ./C.cell (11c1c37f851c82e70ff6c80c92926a4b)
REM AIRSS Version 0.9.1 bugfix July 2018 build 013d7b7c2542+ Fri, 06 Jul 2018 19:26:36 +0100
REM compiler GCC version 9.2.1 20190827 (Red Hat 9.2.1-1)
REM options -cpp -mtune=generic -march=x86-64 -g -O0 -fpre-include=/usr/include/finclude/math-vector-fortran.h
REM seed -899498240 -829172228 -548148051 -268140962 1122566097 -384770372 -1922503180 -7240294 1792587923 723865281 -129483932 -118609503 1571066544 -318610350 2014619264 1615419416 -2121879079 567717893 28435077 -1826864028 -2045569520 1087309421 46789460 -1587599706 -1610711448 -1445227580 -19770979 -828848388 -553692657 2114962015 -1870686194 2091229048 -863794252
REM
CELL 1.54180   50.00000   50.00000   50.00000   90.00000   90.00000   90.00000
LATT -1
SFAC C  
C      1  0.4837850000000  0.5390970000000  0.3839280000000 1.0
C      1  0.5156900000000  0.5250440000000  0.4361140000000 1.0
C      1  0.5466640000000  0.5879360000000  0.5314020000000 1.0
C      1  0.6067580000000  0.4620400000000  0.3831840000000 1.0
C      1  0.5868150000000  0.5033330000000  0.4022150000000 1.0
C      1  0.5249210000000  0.6058750000000  0.5232640000000 1.0
C      1  0.6089570000000  0.4849550000000  0.3991040000000 1.0
C      1  0.5877230000000  0.5057780000000  0.5421330000000 1.0
C      1  0.4310180000000  0.4714000000000  0.5877990000000 1.0
C      1  0.5938590000000  0.4395600000000  0.3771290000000 1.0
C      1  0.3904390000000  0.5063460000000  0.5314560000000 1.0
C      1  0.4684890000000  0.5639230000000  0.4296650000000 1.0
C      1  0.4047850000000  0.4624740000000  0.4845790000000 1.0
C      1  0.4349750000000  0.4182150000000  0.4257910000000 1.0
C      1  0.5527380000000  0.5032170000000  0.4703170000000 1.0
C      1  0.5152330000000  0.4918140000000  0.5449530000000 1.0
C      1  0.5534010000000  0.5870210000000  0.5592130000000 1.0
C      1  0.4325620000000  0.5257580000000  0.5729800000000 1.0
C      1  0.5124020000000  0.4968740000000  0.3813840000000 1.0
C      1  0.5707650000000  0.4695930000000  0.5016630000000 1.0
C      1  0.5761400000000  0.5711970000000  0.5664890000000 1.0
C      1  0.5037420000000  0.6118110000000  0.5420470000000 1.0
C      1  0.4628160000000  0.4876570000000  0.4943990000000 1.0
C      1  0.5014820000000  0.5477680000000  0.5767870000000 1.0
C      1  0.5011700000000  0.3913820000000  0.4570660000000 1.0
C      1  0.4248920000000  0.4676560000000  0.4624350000000 1.0
C      1  0.6201890000000  0.5660380000000  0.5058260000000 1.0
C      1  0.6057720000000  0.5385430000000  0.4385310000000 1.0
C      1  0.4781590000000  0.5886590000000  0.5758760000000 1.0
C      1  0.4954500000000  0.5798950000000  0.4305170000000 1.0
C      1  0.5778450000000  0.4974190000000  0.5682840000000 1.0
C      1  0.4753410000000  0.5406940000000  0.4116070000000 1.0
C      1  0.4492410000000  0.5767660000000  0.4992970000000 1.0
C      1  0.5586170000000  0.5679900000000  0.5140600000000 1.0
C      1  0.4808640000000  0.5224320000000  0.6226020000000 1.0
C      1  0.4104160000000  0.5488960000000  0.4092430000000 1.0
C      1  0.5716840000000  0.4979760000000  0.4506990000000 1.0
C      1  0.4907350000000  0.4485640000000  0.6053030000000 1.0
C      1  0.4879670000000  0.4846640000000  0.3902960000000 1.0
C      1  0.5701790000000  0.4283320000000  0.3821870000000 1.0
C      1  0.4140040000000  0.4326570000000  0.4142090000000 1.0
C      1  0.3936920000000  0.4443500000000  0.4028050000000 1.0
C      1  0.3882520000000  0.5101730000000  0.5827940000000 1.0
C      1  0.6175850000000  0.5579120000000  0.5327270000000 1.0
C      1  0.5000760000000  0.4707600000000  0.5346280000000 1.0
C      1  0.4562780000000  0.4817600000000  0.6289500000000 1.0
C      1  0.4492810000000  0.4511970000000  0.4651800000000 1.0
C      1  0.4026410000000  0.5344590000000  0.5318310000000 1.0
C      1  0.5487890000000  0.5312230000000  0.5847730000000 1.0
C      1  0.5026680000000  0.4735640000000  0.6202030000000 1.0
C      1  0.4761350000000  0.5072130000000  0.5105800000000 1.0
C      1  0.5319610000000  0.5945890000000  0.5765820000000 1.0
C      1  0.4587620000000  0.5994990000000  0.5544300000000 1.0
C      1  0.4503280000000  0.5417440000000  0.5338590000000 1.0
C      1  0.4638660000000  0.3598720000000  0.4663790000000 1.0
C      1  0.4490340000000  0.4232780000000  0.5840130000000 1.0
C      1  0.4805830000000  0.5628920000000  0.5892610000000 1.0
C      1  0.5714850000000  0.5151410000000  0.5187320000000 1.0
C      1  0.4901460000000  0.4033820000000  0.5659630000000 1.0
C      1  0.5289780000000  0.5309650000000  0.5172620000000 1.0
C      1  0.5515470000000  0.5773730000000  0.4421590000000 1.0
C      1  0.5149540000000  0.5655530000000  0.4845800000000 1.0
C      1  0.4220500000000  0.4290980000000  0.5714460000000 1.0
C      1  0.5732960000000  0.5497460000000  0.4063520000000 1.0
C      1  0.3854100000000  0.4949050000000  0.5592600000000 1.0
C      1  0.4258030000000  0.5393760000000  0.5488320000000 1.0
C      1  0.5648070000000  0.5057450000000  0.3597360000000 1.0
C      1  0.5510540000000  0.5063420000000  0.5717730000000 1.0
C      1  0.5044100000000  0.5236670000000  0.3735830000000 1.0
C      1  0.4846430000000  0.3733140000000  0.4129070000000 1.0
C      1  0.5519950000000  0.5583260000000  0.4216340000000 1.0
C      1  0.5665430000000  0.5770420000000  0.4887450000000 1.0
C      1  0.6312390000000  0.5269770000000  0.4421070000000 1.0
C      1  0.4879900000000  0.5194690000000  0.4263150000000 1.0
C      1  0.4231220000000  0.5395280000000  0.4319510000000 1.0
C      1  0.5557860000000  0.5393790000000  0.5181450000000 1.0
C      1  0.4675200000000  0.6217220000000  0.5098980000000 1.0
C      1  0.4062800000000  0.4354770000000  0.4958920000000 1.0
C      1  0.5609800000000  0.4790830000000  0.6130830000000 1.0
C      1  0.4347810000000  0.4923210000000  0.5005510000000 1.0
C      1  0.3907360000000  0.4664490000000  0.5599190000000 1.0
C      1  0.4462280000000  0.4041000000000  0.5402790000000 1.0
C      1  0.4821290000000  0.4939430000000  0.6263160000000 1.0
C      1  0.6000820000000  0.5704700000000  0.5512480000000 1.0
C      1  0.4626050000000  0.4412180000000  0.6030740000000 1.0
C      1  0.4216560000000  0.5410180000000  0.4891230000000 1.0
C      1  0.4101950000000  0.4546620000000  0.5773910000000 1.0
C      1  0.5975990000000  0.5590090000000  0.4576320000000 1.0
C      1  0.5814300000000  0.4833870000000  0.5940270000000 1.0
C      1  0.4480280000000  0.4809310000000  0.5670960000000 1.0
C      1  0.4580740000000  0.3929230000000  0.5175790000000 1.0
C      1  0.6331350000000  0.4891160000000  0.4126740000000 1.0
C      1  0.4759830000000  0.6156220000000  0.5359470000000 1.0
C      1  0.5722190000000  0.5729750000000  0.4615460000000 1.0
C      1  0.4228400000000  0.5795290000000  0.5173120000000 1.0
C      1  0.5077400000000  0.5459430000000  0.5035320000000 1.0
C      1  0.4011300000000  0.5102950000000  0.4654830000000 1.0
C      1  0.5080370000000  0.4852240000000  0.4599120000000 1.0
C      1  0.5598160000000  0.4164760000000  0.5441390000000 1.0
C      1  0.5029780000000  0.3824110000000  0.4304680000000 1.0
C      1  0.6160420000000  0.5063480000000  0.5380130000000 1.0
C      1  0.4639550000000  0.5159900000000  0.5364510000000 1.0
C      1  0.6154990000000  0.5634410000000  0.4795720000000 1.0
C      1  0.4079810000000  0.5543090000000  0.5106930000000 1.0
C      1  0.5231640000000  0.4120610000000  0.4936830000000 1.0
C      1  0.5167040000000  0.4532760000000  0.4285840000000 1.0
C      1  0.5164560000000  0.5915470000000  0.4750010000000 1.0
C      1  0.4114020000000  0.5216850000000  0.5908310000000 1.0
C      1  0.5379580000000  0.4121720000000  0.5586440000000 1.0
C      1  0.5322910000000  0.4859400000000  0.5659150000000 1.0
C      1  0.5012020000000  0.4769780000000  0.4330210000000 1.0
C      1  0.4329320000000  0.5917850000000  0.5428200000000 1.0
C      1  0.5010530000000  0.5420150000000  0.5497810000000 1.0
C      1  0.5906450000000  0.5295090000000  0.4152380000000 1.0
C      1  0.5626070000000  0.4975470000000  0.3862900000000 1.0
C      1  0.4409910000000  0.3929220000000  0.4154390000000 1.0
C      1  0.5186310000000  0.5904850000000  0.4472010000000 1.0
C      1  0.4821040000000  0.3791800000000  0.4756890000000 1.0
C      1  0.4928240000000  0.5584330000000  0.5271090000000 1.0
C      1  0.5153260000000  0.5191290000000  0.5392530000000 1.0
C      1  0.6432330000000  0.5058410000000  0.4308980000000 1.0
C      1  0.4571790000000  0.3704660000000  0.4192260000000 1.0
C      1  0.5121580000000  0.4398490000000  0.4553590000000 1.0
C      1  0.5133280000000  0.4185710000000  0.5702180000000 1.0
C      1  0.5052670000000  0.6004090000000  0.5688290000000 1.0
C      1  0.5103480000000  0.5662040000000  0.4093000000000 1.0
C      1  0.4539070000000  0.5078890000000  0.5636720000000 1.0
C      1  0.4625420000000  0.4068390000000  0.5643190000000 1.0
C      1  0.5105040000000  0.4426770000000  0.5844360000000 1.0
C      1  0.6142500000000  0.4598710000000  0.5199210000000 1.0
C      1  0.5370740000000  0.4843900000000  0.3924070000000 1.0
C      1  0.4523630000000  0.3550240000000  0.4424810000000 1.0
C      1  0.4183840000000  0.5127530000000  0.4880630000000 1.0
C      1  0.5876980000000  0.4515110000000  0.5151280000000 1.0
C      1  0.5699650000000  0.5497180000000  0.5836590000000 1.0
C      1  0.4872370000000  0.5272860000000  0.4939750000000 1.0
C      1  0.4290480000000  0.4871230000000  0.4400260000000 1.0
C      1  0.4506280000000  0.4665980000000  0.5428450000000 1.0
C      1  0.3904020000000  0.4796310000000  0.5126050000000 1.0
C      1  0.4988680000000  0.4610380000000  0.4734500000000 1.0
C      1  0.4655940000000  0.5619190000000  0.5210170000000 1.0
C      1  0.4814220000000  0.3889240000000  0.5026100000000 1.0
C      1  0.6266890000000  0.4820200000000  0.5288830000000 1.0
C      1  0.5235290000000  0.5400240000000  0.5919180000000 1.0
C      1  0.4492050000000  0.4290160000000  0.4477810000000 1.0
C      1  0.5258320000000  0.5078030000000  0.4589990000000 1.0
C      1  0.5476240000000  0.4357390000000  0.3943030000000 1.0
C      1  0.5211070000000  0.6104290000000  0.4953640000000 1.0
C      1  0.5342370000000  0.4575290000000  0.4058570000000 1.0
C      1  0.4041590000000  0.4324610000000  0.5244750000000 1.0
C      1  0.4588200000000  0.6035600000000  0.4918760000000 1.0
C      1  0.5319970000000  0.4742870000000  0.6115740000000 1.0
C      1  0.4692570000000  0.5384610000000  0.4763550000000 1.0
C      1  0.4322860000000  0.4754290000000  0.5233640000000 1.0
C      1  0.5284920000000  0.4648030000000  0.5837430000000 1.0
C      1  0.4427190000000  0.5580770000000  0.4448740000000 1.0
C      1  0.4448180000000  0.5557110000000  0.4759510000000 1.0
C      1  0.4211740000000  0.4189820000000  0.5433940000000 1.0
C      1  0.4708070000000  0.4637620000000  0.4800810000000 1.0
C      1  0.4156530000000  0.5127250000000  0.4411600000000 1.0
C      1  0.3897410000000  0.4564760000000  0.5330870000000 1.0
C      1  0.4765090000000  0.4581370000000  0.5360820000000 1.0
C      1  0.6273210000000  0.5319720000000  0.5387350000000 1.0
C      1  0.4733730000000  0.5467270000000  0.6121600000000 1.0
C      1  0.4802390000000  0.4911600000000  0.4184760000000 1.0
C      1  0.5060690000000  0.4002050000000  0.5110890000000 1.0
C      1  0.4522550000000  0.4850520000000  0.4243480000000 1.0
C      1  0.4454560000000  0.4632940000000  0.6107520000000 1.0
C      1  0.5157900000000  0.4141790000000  0.4663290000000 1.0
C      1  0.5767640000000  0.4294100000000  0.5282660000000 1.0
C      1  0.5633580000000  0.4966080000000  0.4971340000000 1.0
C      1  0.5274800000000  0.5453170000000  0.4192870000000 1.0
END
