TITL C-627111-6168-736 0.105206187503357 125000 -1176.38587296738 0 0 191 (C1) n - 1
REM
REM in /home/nfs/bkarasulu/CARBON/AIRSS/Generating-Clusters/LCBOP/Only-C1/SD-CG/FIRE-CG
REM
REM
REM
REM
REM
REM ./C.cell (11c1c37f851c82e70ff6c80c92926a4b)
REM AIRSS Version 0.9.1 bugfix July 2018 build 013d7b7c2542+ Fri, 06 Jul 2018 19:26:36 +0100
REM compiler GCC version 9.2.1 20190827 (Red Hat 9.2.1-1)
REM options -cpp -mtune=generic -march=x86-64 -g -O0 -fpre-include=/usr/include/finclude/math-vector-fortran.h
REM seed -1057429133 -1851401149 -1008910281 -1985233631 1118568483 -1521419010 1691855117 -231368267 1737467606 -427604300 1495769329 1105522261 -325880469 1031178647 -260915702 1883559742 -1773086748 -640104382 -2002683449 -363430955 -1845355401 -79496699 1043357654 104658740 -825680906 180824367 1091974389 -1528475359 641915807 -456984587 -1404108923 597715140 2132453390
REM
CELL 1.54180   50.00000   50.00000   50.00000   90.00000   90.00000   90.00000
LATT -1
SFAC C  
C      1  0.4878770000000  0.5305460000000  0.3755190000000 1.0
C      1  0.3935410000000  0.5590050000000  0.5542670000000 1.0
C      1  0.3888320000000  0.4850330000000  0.5340620000000 1.0
C      1  0.4188110000000  0.5028940000000  0.4545340000000 1.0
C      1  0.4831110000000  0.4997770000000  0.6351720000000 1.0
C      1  0.5198890000000  0.4027320000000  0.6188820000000 1.0
C      1  0.5956800000000  0.5434050000000  0.3932010000000 1.0
C      1  0.4215480000000  0.5310630000000  0.4529140000000 1.0
C      1  0.3857270000000  0.5928970000000  0.4929560000000 1.0
C      1  0.5678000000000  0.4377810000000  0.4113180000000 1.0
C      1  0.4604190000000  0.5346570000000  0.3805700000000 1.0
C      1  0.5219710000000  0.4290380000000  0.6230990000000 1.0
C      1  0.5412800000000  0.5966970000000  0.4673100000000 1.0
C      1  0.4068880000000  0.4897750000000  0.4769850000000 1.0
C      1  0.4228890000000  0.6042020000000  0.5551890000000 1.0
C      1  0.5586310000000  0.4706920000000  0.5974100000000 1.0
C      1  0.4728010000000  0.6004570000000  0.5107540000000 1.0
C      1  0.5176770000000  0.5658490000000  0.5127120000000 1.0
C      1  0.4376180000000  0.5102490000000  0.5796270000000 1.0
C      1  0.5170350000000  0.6041910000000  0.4524210000000 1.0
C      1  0.5888620000000  0.5044640000000  0.4349650000000 1.0
C      1  0.4725840000000  0.5952440000000  0.5626060000000 1.0
C      1  0.5746170000000  0.4930130000000  0.5114000000000 1.0
C      1  0.5340220000000  0.5109370000000  0.3837040000000 1.0
C      1  0.4072910000000  0.4372510000000  0.5222000000000 1.0
C      1  0.4669010000000  0.5373350000000  0.4735990000000 1.0
C      1  0.5719100000000  0.4910930000000  0.4157010000000 1.0
C      1  0.4961770000000  0.6168300000000  0.4693180000000 1.0
C      1  0.6042440000000  0.5379710000000  0.5021280000000 1.0
C      1  0.4052060000000  0.5738350000000  0.4933680000000 1.0
C      1  0.4880810000000  0.4700490000000  0.4048440000000 1.0
C      1  0.4147390000000  0.6226710000000  0.5364990000000 1.0
C      1  0.5248620000000  0.5580540000000  0.3906610000000 1.0
C      1  0.4397110000000  0.4399300000000  0.3815270000000 1.0
C      1  0.3980180000000  0.5380560000000  0.3447290000000 1.0
C      1  0.5799070000000  0.5667320000000  0.4698690000000 1.0
C      1  0.6252930000000  0.4492680000000  0.4875720000000 1.0
C      1  0.5496420000000  0.5294830000000  0.4877580000000 1.0
C      1  0.4504590000000  0.4744880000000  0.4997030000000 1.0
C      1  0.4844150000000  0.4846170000000  0.4675970000000 1.0
C      1  0.5296930000000  0.6466020000000  0.4936840000000 1.0
C      1  0.4072170000000  0.5453450000000  0.4344480000000 1.0
C      1  0.5510280000000  0.4233460000000  0.5728210000000 1.0
C      1  0.4925930000000  0.4430430000000  0.4123790000000 1.0
C      1  0.4419240000000  0.4885560000000  0.3720600000000 1.0
C      1  0.6206160000000  0.5330900000000  0.5609650000000 1.0
C      1  0.5925390000000  0.5406250000000  0.4746780000000 1.0
C      1  0.5153590000000  0.5329530000000  0.3808950000000 1.0
C      1  0.5170400000000  0.4392230000000  0.4254450000000 1.0
C      1  0.5602080000000  0.6084240000000  0.4854420000000 1.0
C      1  0.5141020000000  0.4541250000000  0.6135200000000 1.0
C      1  0.5504160000000  0.5571010000000  0.4052080000000 1.0
C      1  0.5097660000000  0.3975730000000  0.4426080000000 1.0
C      1  0.3793750000000  0.4884790000000  0.4771830000000 1.0
C      1  0.4521100000000  0.5574610000000  0.3952770000000 1.0
C      1  0.5352450000000  0.4516770000000  0.5097420000000 1.0
C      1  0.4282660000000  0.4866930000000  0.4337070000000 1.0
C      1  0.4378160000000  0.5445110000000  0.4741300000000 1.0
C      1  0.5019080000000  0.5157140000000  0.6209420000000 1.0
C      1  0.4649080000000  0.4656640000000  0.4764020000000 1.0
C      1  0.5573870000000  0.4135490000000  0.4237910000000 1.0
C      1  0.4858640000000  0.4579120000000  0.6090550000000 1.0
C      1  0.4870040000000  0.5567040000000  0.4708780000000 1.0
C      1  0.5421350000000  0.5396010000000  0.5724860000000 1.0
C      1  0.4407510000000  0.5166680000000  0.3701380000000 1.0
C      1  0.5109270000000  0.3936580000000  0.4716690000000 1.0
C      1  0.4844050000000  0.5703960000000  0.4464370000000 1.0
C      1  0.5060260000000  0.6404220000000  0.4822510000000 1.0
C      1  0.4601890000000  0.5836840000000  0.4394500000000 1.0
C      1  0.5114660000000  0.5049560000000  0.4347450000000 1.0
C      1  0.5337840000000  0.5474080000000  0.4689400000000 1.0
C      1  0.4635430000000  0.4885440000000  0.5211730000000 1.0
C      1  0.5289230000000  0.4131840000000  0.4278360000000 1.0
C      1  0.3625090000000  0.4794880000000  0.5390540000000 1.0
C      1  0.5817560000000  0.5169510000000  0.4591980000000 1.0
C      1  0.4904820000000  0.4887150000000  0.5298870000000 1.0
C      1  0.5320480000000  0.4193390000000  0.5513700000000 1.0
C      1  0.4207300000000  0.4582440000000  0.3416800000000 1.0
C      1  0.5217200000000  0.5298760000000  0.4449390000000 1.0
C      1  0.5697550000000  0.5373210000000  0.3992090000000 1.0
C      1  0.4319200000000  0.4301560000000  0.6105210000000 1.0
C      1  0.5111550000000  0.5580700000000  0.4856820000000 1.0
C      1  0.6252760000000  0.4993560000000  0.5307060000000 1.0
C      1  0.5558260000000  0.5077930000000  0.4695320000000 1.0
C      1  0.4479780000000  0.6090850000000  0.5683590000000 1.0
C      1  0.5146520000000  0.5000260000000  0.6002400000000 1.0
C      1  0.5309220000000  0.4765620000000  0.6058480000000 1.0
C      1  0.4416950000000  0.4635790000000  0.4347640000000 1.0
C      1  0.4187600000000  0.5278410000000  0.3567520000000 1.0
C      1  0.5109660000000  0.5814890000000  0.4011420000000 1.0
C      1  0.5144610000000  0.3843060000000  0.6002880000000 1.0
C      1  0.4869010000000  0.5842720000000  0.5851330000000 1.0
C      1  0.5733720000000  0.5183480000000  0.6006910000000 1.0
C      1  0.4723880000000  0.4740960000000  0.6291910000000 1.0
C      1  0.6016050000000  0.5522100000000  0.5523360000000 1.0
C      1  0.4487100000000  0.5539590000000  0.5667250000000 1.0
C      1  0.5122920000000  0.3972040000000  0.5504940000000 1.0
C      1  0.4496790000000  0.4313300000000  0.5903150000000 1.0
C      1  0.4244560000000  0.4216640000000  0.5386110000000 1.0
C      1  0.4282360000000  0.5358530000000  0.5009280000000 1.0
C      1  0.4808120000000  0.4399100000000  0.5324640000000 1.0
C      1  0.6211330000000  0.5163420000000  0.5098060000000 1.0
C      1  0.4138240000000  0.4180340000000  0.4765960000000 1.0
C      1  0.4059040000000  0.4660450000000  0.5201600000000 1.0
C      1  0.4008240000000  0.5098200000000  0.5428660000000 1.0
C      1  0.5538430000000  0.4601400000000  0.4496270000000 1.0
C      1  0.4921420000000  0.4201830000000  0.5137040000000 1.0
C      1  0.5892200000000  0.4538250000000  0.5375240000000 1.0
C      1  0.4485240000000  0.6286040000000  0.5877800000000 1.0
C      1  0.5783480000000  0.5868120000000  0.4918300000000 1.0
C      1  0.4999930000000  0.5439360000000  0.6176380000000 1.0
C      1  0.4806840000000  0.5880430000000  0.5356270000000 1.0
C      1  0.6124830000000  0.4727210000000  0.4833840000000 1.0
C      1  0.6132530000000  0.4269500000000  0.5004160000000 1.0
C      1  0.5126670000000  0.4834130000000  0.4556200000000 1.0
C      1  0.4572300000000  0.3733770000000  0.5019070000000 1.0
C      1  0.4215970000000  0.4769730000000  0.4982280000000 1.0
C      1  0.4500030000000  0.5761780000000  0.4144640000000 1.0
C      1  0.5518510000000  0.5691870000000  0.4572320000000 1.0
C      1  0.4912390000000  0.3961260000000  0.5304310000000 1.0
C      1  0.4698500000000  0.3710940000000  0.4766250000000 1.0
C      1  0.5508020000000  0.4825520000000  0.5515760000000 1.0
C      1  0.4637420000000  0.3831260000000  0.4507010000000 1.0
C      1  0.4501070000000  0.5927460000000  0.4655210000000 1.0
C      1  0.5108910000000  0.3815760000000  0.5739030000000 1.0
C      1  0.5335930000000  0.4900820000000  0.4755210000000 1.0
C      1  0.5272290000000  0.4671940000000  0.5528560000000 1.0
C      1  0.6030510000000  0.4899640000000  0.5767220000000 1.0
C      1  0.5552550000000  0.4405040000000  0.4934850000000 1.0
C      1  0.4265100000000  0.5008590000000  0.6025300000000 1.0
C      1  0.4749830000000  0.5109990000000  0.4708490000000 1.0
C      1  0.5618170000000  0.4436650000000  0.5875320000000 1.0
C      1  0.4988720000000  0.4776070000000  0.5570010000000 1.0
C      1  0.3994710000000  0.4234810000000  0.4986010000000 1.0
C      1  0.5566430000000  0.5171970000000  0.5128130000000 1.0
C      1  0.5849320000000  0.4776210000000  0.4879410000000 1.0
C      1  0.4966030000000  0.4945910000000  0.4127730000000 1.0
C      1  0.4847650000000  0.5242880000000  0.5692090000000 1.0
C      1  0.4492360000000  0.4634390000000  0.6411180000000 1.0
C      1  0.5532070000000  0.6334560000000  0.4957160000000 1.0
C      1  0.5269430000000  0.5320020000000  0.5508060000000 1.0
C      1  0.5340130000000  0.5144700000000  0.5300810000000 1.0
C      1  0.4717500000000  0.6050090000000  0.4820570000000 1.0
C      1  0.5746430000000  0.3993520000000  0.4409840000000 1.0
C      1  0.4472570000000  0.5077930000000  0.5333130000000 1.0
C      1  0.5225120000000  0.5916880000000  0.4258860000000 1.0
C      1  0.5591110000000  0.5102050000000  0.3976100000000 1.0
C      1  0.5844020000000  0.5591300000000  0.5737030000000 1.0
C      1  0.4999900000000  0.5416990000000  0.5511280000000 1.0
C      1  0.6189370000000  0.5047990000000  0.5579520000000 1.0
C      1  0.5675930000000  0.4580480000000  0.4748510000000 1.0
C      1  0.4729000000000  0.4465490000000  0.5853610000000 1.0
C      1  0.4274160000000  0.5050680000000  0.5536020000000 1.0
C      1  0.4521790000000  0.4224490000000  0.3975150000000 1.0
C      1  0.4984660000000  0.4999930000000  0.5765160000000 1.0
C      1  0.4974320000000  0.5646060000000  0.5334020000000 1.0
C      1  0.5447310000000  0.5711460000000  0.5213610000000 1.0
C      1  0.5662110000000  0.5413660000000  0.5859390000000 1.0
C      1  0.5111770000000  0.4403060000000  0.4723840000000 1.0
C      1  0.4342030000000  0.4622410000000  0.3652550000000 1.0
C      1  0.5904450000000  0.3975810000000  0.4625060000000 1.0
C      1  0.6039510000000  0.4060620000000  0.4840090000000 1.0
C      1  0.4300720000000  0.5748520000000  0.4765750000000 1.0
C      1  0.4424390000000  0.4014700000000  0.5389900000000 1.0
C      1  0.4983120000000  0.3697360000000  0.4796090000000 1.0
C      1  0.4583140000000  0.5300820000000  0.5781710000000 1.0
C      1  0.4057060000000  0.5822550000000  0.5605900000000 1.0
C      1  0.4462080000000  0.5334370000000  0.5219200000000 1.0
C      1  0.4634740000000  0.3863990000000  0.5268020000000 1.0
C      1  0.5655970000000  0.4637550000000  0.4232090000000 1.0
C      1  0.4473650000000  0.5551400000000  0.5397630000000 1.0
C      1  0.4746980000000  0.4202210000000  0.4141860000000 1.0
C      1  0.3946350000000  0.5382360000000  0.5346940000000 1.0
C      1  0.5729100000000  0.5733880000000  0.5166150000000 1.0
C      1  0.6020430000000  0.4333450000000  0.5256610000000 1.0
C      1  0.4317080000000  0.4444910000000  0.6333760000000 1.0
C      1  0.4506600000000  0.4495840000000  0.4575310000000 1.0
C      1  0.4948140000000  0.5668790000000  0.6042710000000 1.0
C      1  0.5228840000000  0.4558140000000  0.4490880000000 1.0
C      1  0.4360460000000  0.4268450000000  0.4646980000000 1.0
C      1  0.4813310000000  0.3987960000000  0.4332730000000 1.0
C      1  0.5148030000000  0.4967040000000  0.5181810000000 1.0
C      1  0.5937790000000  0.5550040000000  0.5244610000000 1.0
C      1  0.5737460000000  0.4774740000000  0.5357220000000 1.0
C      1  0.5793740000000  0.4913790000000  0.5934020000000 1.0
C      1  0.5472210000000  0.5736280000000  0.4281940000000 1.0
C      1  0.4035680000000  0.5483260000000  0.5086260000000 1.0
C      1  0.5270750000000  0.4783170000000  0.5007250000000 1.0
C      1  0.4817230000000  0.4527400000000  0.5587590000000 1.0
C      1  0.5294900000000  0.4436270000000  0.5363220000000 1.0
C      1  0.5048630000000  0.4175710000000  0.4874390000000 1.0
END
