TITL C-627111-6168-180 2.1555088283021e-05 125000 -563.048719920303 0 0 97 (C1) n - 1
REM
REM in /home/nfs/bkarasulu/CARBON/AIRSS/Generating-Clusters/LCBOP/Only-C1/SD-CG/FIRE-CG
REM
REM
REM
REM
REM
REM ./C.cell (11c1c37f851c82e70ff6c80c92926a4b)
REM AIRSS Version 0.9.1 bugfix July 2018 build 013d7b7c2542+ Fri, 06 Jul 2018 19:26:36 +0100
REM compiler GCC version 9.2.1 20190827 (Red Hat 9.2.1-1)
REM options -cpp -mtune=generic -march=x86-64 -g -O0 -fpre-include=/usr/include/finclude/math-vector-fortran.h
REM seed -1769911251 -365932604 1502818773 -69813322 -970365750 -1765788331 1492601926 2011030336 292244341 2046457359 -1651392152 -1394780775 -619042064 -1580136115 817166945 -2142228379 -151027279 1394141118 1426127074 824010436 -576501859 369131016 -1956136652 1809773594 2064141860 -810776470 -2125394338 2024221388 -455698385 2130504209 -1136420697 1690444833 -1178959950
REM
CELL 1.54180   50.00000   50.00000   50.00000   90.00000   90.00000   90.00000
LATT -1
SFAC C  
C      1  0.4649410000000  0.4210810000000  0.5223130000000 1.0
C      1  0.4995490000000  0.4543640000000  0.4859790000000 1.0
C      1  0.5109840000000  0.4053040000000  0.5277170000000 1.0
C      1  0.5452250000000  0.4603730000000  0.4681770000000 1.0
C      1  0.5853310000000  0.5603780000000  0.5316420000000 1.0
C      1  0.6320280000000  0.5570200000000  0.4391240000000 1.0
C      1  0.5533160000000  0.4930470000000  0.4313360000000 1.0
C      1  0.5150860000000  0.4628860000000  0.5313700000000 1.0
C      1  0.5372870000000  0.4718800000000  0.4423080000000 1.0
C      1  0.4620320000000  0.5329300000000  0.4359600000000 1.0
C      1  0.5092980000000  0.4839300000000  0.5486420000000 1.0
C      1  0.5280650000000  0.5273660000000  0.4987400000000 1.0
C      1  0.5779570000000  0.4455290000000  0.5568200000000 1.0
C      1  0.5641660000000  0.4959350000000  0.5117480000000 1.0
C      1  0.4687320000000  0.5897830000000  0.5357360000000 1.0
C      1  0.5015870000000  0.5170170000000  0.5121330000000 1.0
C      1  0.5119980000000  0.4680350000000  0.4271440000000 1.0
C      1  0.5473710000000  0.5204520000000  0.4323490000000 1.0
C      1  0.4634650000000  0.5409760000000  0.4978810000000 1.0
C      1  0.5317130000000  0.5278930000000  0.5429060000000 1.0
C      1  0.4569300000000  0.4943410000000  0.4995230000000 1.0
C      1  0.3988550000000  0.4878800000000  0.4270790000000 1.0
C      1  0.5184540000000  0.4511020000000  0.3821220000000 1.0
C      1  0.4055000000000  0.4629660000000  0.4742880000000 1.0
C      1  0.5305850000000  0.5510220000000  0.5591540000000 1.0
C      1  0.5393520000000  0.5718710000000  0.5153360000000 1.0
C      1  0.4969600000000  0.5877010000000  0.5287660000000 1.0
C      1  0.5491780000000  0.5657620000000  0.4434300000000 1.0
C      1  0.6137280000000  0.5492280000000  0.4559760000000 1.0
C      1  0.4625370000000  0.5917120000000  0.5630050000000 1.0
C      1  0.5137670000000  0.4179880000000  0.5535500000000 1.0
C      1  0.4698110000000  0.5876960000000  0.5883640000000 1.0
C      1  0.5428250000000  0.4593710000000  0.5242390000000 1.0
C      1  0.4937100000000  0.4569750000000  0.5146870000000 1.0
C      1  0.4304140000000  0.4319210000000  0.3956780000000 1.0
C      1  0.5137300000000  0.4459580000000  0.4086290000000 1.0
C      1  0.4029410000000  0.4740720000000  0.4488040000000 1.0
C      1  0.5000660000000  0.5958950000000  0.5012320000000 1.0
C      1  0.4698720000000  0.5365440000000  0.5467780000000 1.0
C      1  0.4305410000000  0.5657350000000  0.4675040000000 1.0
C      1  0.5352190000000  0.4827100000000  0.5921560000000 1.0
C      1  0.5785250000000  0.5328070000000  0.4933300000000 1.0
C      1  0.4446200000000  0.4680150000000  0.5088910000000 1.0
C      1  0.4859590000000  0.4831860000000  0.4253760000000 1.0
C      1  0.5482950000000  0.4560920000000  0.4953560000000 1.0
C      1  0.5945770000000  0.5414700000000  0.4725660000000 1.0
C      1  0.4645840000000  0.4667400000000  0.4162350000000 1.0
C      1  0.3982850000000  0.4712770000000  0.5353490000000 1.0
C      1  0.5263290000000  0.5264640000000  0.4523670000000 1.0
C      1  0.5313290000000  0.5545760000000  0.4633460000000 1.0
C      1  0.5068790000000  0.5632710000000  0.6150880000000 1.0
C      1  0.5111370000000  0.4202940000000  0.4178460000000 1.0
C      1  0.5260280000000  0.4572860000000  0.5881480000000 1.0
C      1  0.4382760000000  0.5841950000000  0.4891050000000 1.0
C      1  0.4897660000000  0.5822960000000  0.4801770000000 1.0
C      1  0.5545190000000  0.5155960000000  0.4940440000000 1.0
C      1  0.5277160000000  0.5480270000000  0.6080060000000 1.0
C      1  0.5774980000000  0.5087910000000  0.5348730000000 1.0
C      1  0.5122360000000  0.5034840000000  0.4617030000000 1.0
C      1  0.4586920000000  0.5296770000000  0.5693170000000 1.0
C      1  0.4312790000000  0.4547700000000  0.4839610000000 1.0
C      1  0.5297210000000  0.3859680000000  0.5201840000000 1.0
C      1  0.3790280000000  0.4654950000000  0.5174220000000 1.0
C      1  0.5494340000000  0.5044510000000  0.5795880000000 1.0
C      1  0.4760220000000  0.5590690000000  0.4801120000000 1.0
C      1  0.4130890000000  0.4142670000000  0.3874460000000 1.0
C      1  0.5123610000000  0.5089830000000  0.5382780000000 1.0
C      1  0.5208430000000  0.5726100000000  0.5391970000000 1.0
C      1  0.4474750000000  0.4499640000000  0.4049380000000 1.0
C      1  0.4456680000000  0.4056860000000  0.5334650000000 1.0
C      1  0.4853710000000  0.4967310000000  0.4970760000000 1.0
C      1  0.5190910000000  0.4349920000000  0.5741150000000 1.0
C      1  0.4796980000000  0.5360880000000  0.5206530000000 1.0
C      1  0.5481200000000  0.3690880000000  0.5127260000000 1.0
C      1  0.5389530000000  0.5381630000000  0.5845220000000 1.0
C      1  0.4471630000000  0.5537500000000  0.4462610000000 1.0
C      1  0.4858260000000  0.5776530000000  0.6071800000000 1.0
C      1  0.4246650000000  0.4728800000000  0.5307120000000 1.0
C      1  0.4664420000000  0.4497600000000  0.5203590000000 1.0
C      1  0.5585320000000  0.5461850000000  0.4261330000000 1.0
C      1  0.5616730000000  0.4659660000000  0.5464470000000 1.0
C      1  0.4998410000000  0.4824130000000  0.4770140000000 1.0
C      1  0.3830320000000  0.4612710000000  0.4911700000000 1.0
C      1  0.4921160000000  0.4260990000000  0.4823920000000 1.0
C      1  0.5865310000000  0.5337880000000  0.5223150000000 1.0
C      1  0.4442250000000  0.5193450000000  0.4948830000000 1.0
C      1  0.4771100000000  0.5106920000000  0.4302540000000 1.0
C      1  0.5917430000000  0.4255380000000  0.5662700000000 1.0
C      1  0.4491890000000  0.5896950000000  0.5138790000000 1.0
C      1  0.4099930000000  0.5475970000000  0.4756590000000 1.0
C      1  0.4897780000000  0.4121490000000  0.5091640000000 1.0
C      1  0.4175330000000  0.5249410000000  0.4884550000000 1.0
C      1  0.5663270000000  0.5773970000000  0.5223470000000 1.0
C      1  0.5310710000000  0.5558030000000  0.4922590000000 1.0
C      1  0.5657640000000  0.4942640000000  0.5568560000000 1.0
C      1  0.4456470000000  0.4354000000000  0.4691010000000 1.0
C      1  0.4692950000000  0.4229170000000  0.4657660000000 1.0
END
