TITL C-627106-156-823 305.244483186434 125000 -337.622855317533 0 0 57 (C1) n - 1
REM
REM in /home/nfs/bkarasulu/CARBON/AIRSS/Generating-Clusters/LCBOP/Only-C1/SD-CG/FIRE-CG
REM
REM
REM
REM
REM
REM ./C.cell (11c1c37f851c82e70ff6c80c92926a4b)
REM AIRSS Version 0.9.1 bugfix July 2018 build 013d7b7c2542+ Fri, 06 Jul 2018 19:26:36 +0100
REM compiler GCC version 9.2.1 20190827 (Red Hat 9.2.1-1)
REM options -cpp -mtune=generic -march=x86-64 -g -O0 -fpre-include=/usr/include/finclude/math-vector-fortran.h
REM seed 726168462 -617163073 865825451 1389356483 -906347504 -2006165397 -1470727156 -14253451 -289850145 385082838 812272062 1583808678 1841741821 830820531 488066914 1414206934 -1606252946 879904995 -77220454 1313539989 672980611 -1622236656 1797939460 2016153588 -1704637052 -809645293 776922732 247606581 1933476481 869098678 -1227890919 385261781 -384279252
REM
CELL 1.54180   50.00000   50.00000   50.00000   90.00000   90.00000   90.00000
LATT -1
SFAC C  
C      1  0.5197510000000  0.4541790000000  0.4628440000000 1.0
C      1  0.5302840000000  0.5168110000000  0.4842990000000 1.0
C      1  0.4487570000000  0.5225210000000  0.5201060000000 1.0
C      1  0.4896940000000  0.4150290000000  0.4664430000000 1.0
C      1  0.4787540000000  0.5458760000000  0.4645330000000 1.0
C      1  0.4761040000000  0.5205490000000  0.4758130000000 1.0
C      1  0.4390640000000  0.4481060000000  0.5021350000000 1.0
C      1  0.5225250000000  0.4017330000000  0.6598080000000 1.0
C      1  0.5044280000000  0.4629760000000  0.5085610000000 1.0
C      1  0.4524750000000  0.4721840000000  0.5053290000000 1.0
C      1  0.5466830000000  0.5308100000000  0.4325760000000 1.0
C      1  0.5312010000000  0.4780790000000  0.4525950000000 1.0
C      1  0.6181510000000  0.4190080000000  0.4909330000000 1.0
C      1  0.4848380000000  0.4065980000000  0.4914440000000 1.0
C      1  0.5656920000000  0.5121910000000  0.4425060000000 1.0
C      1  0.4567740000000  0.6563260000000  0.4573540000000 1.0
C      1  0.4164610000000  0.6500200000000  0.4833560000000 1.0
C      1  0.4088080000000  0.4055310000000  0.4963340000000 1.0
C      1  0.4233300000000  0.4269860000000  0.4992240000000 1.0
C      1  0.4990080000000  0.4385320000000  0.5621510000000 1.0
C      1  0.5140950000000  0.4753400000000  0.5331190000000 1.0
C      1  0.5205630000000  0.5019770000000  0.4638460000000 1.0
C      1  0.5168190000000  0.4105420000000  0.6359440000000 1.0
C      1  0.4949910000000  0.5159100000000  0.5208740000000 1.0
C      1  0.5052090000000  0.4285050000000  0.5874590000000 1.0
C      1  0.5029860000000  0.4340690000000  0.4526640000000 1.0
C      1  0.4729090000000  0.6721250000000  0.4434970000000 1.0
C      1  0.5110180000000  0.4194990000000  0.6116810000000 1.0
C      1  0.4388670000000  0.4960370000000  0.5142470000000 1.0
C      1  0.5238720000000  0.4515370000000  0.4913490000000 1.0
C      1  0.4887860000000  0.6876730000000  0.4298660000000 1.0
C      1  0.4592200000000  0.5605200000000  0.4807940000000 1.0
C      1  0.5691970000000  0.5072740000000  0.5094900000000 1.0
C      1  0.5594940000000  0.4833490000000  0.4492330000000 1.0
C      1  0.4522600000000  0.5870710000000  0.4781280000000 1.0
C      1  0.5761260000000  0.4755900000000  0.4725730000000 1.0
C      1  0.4722650000000  0.5215430000000  0.5375220000000 1.0
C      1  0.4460920000000  0.6126510000000  0.4752040000000 1.0
C      1  0.5237770000000  0.5448990000000  0.4356620000000 1.0
C      1  0.4397760000000  0.6396660000000  0.4719710000000 1.0
C      1  0.4854900000000  0.5043640000000  0.4957480000000 1.0
C      1  0.5203410000000  0.5035720000000  0.5282600000000 1.0
C      1  0.5751050000000  0.4511160000000  0.4867200000000 1.0
C      1  0.5012440000000  0.4665200000000  0.5571030000000 1.0
C      1  0.4908350000000  0.4209060000000  0.5416660000000 1.0
C      1  0.3947110000000  0.6596910000000  0.4939700000000 1.0
C      1  0.5972330000000  0.4344240000000  0.4889410000000 1.0
C      1  0.4861020000000  0.4093820000000  0.5180280000000 1.0
C      1  0.5837920000000  0.5008780000000  0.4858760000000 1.0
C      1  0.5000460000000  0.5512750000000  0.4469530000000 1.0
C      1  0.4802690000000  0.4763060000000  0.4991120000000 1.0
C      1  0.4729710000000  0.5089040000000  0.5627500000000 1.0
C      1  0.5501990000000  0.4446020000000  0.4983700000000 1.0
C      1  0.5411440000000  0.5112160000000  0.5101620000000 1.0
C      1  0.4498480000000  0.5414150000000  0.4990500000000 1.0
C      1  0.4851700000000  0.4859060000000  0.5701520000000 1.0
C      1  0.5843980000000  0.5196980000000  0.4636740000000 1.0
END
