TITL C-627107-135-581 -743.879211243272 125000 -164.973042335714 0 0 30 (C1) n - 1
REM
REM in /home/nfs/bkarasulu/CARBON/AIRSS/Generating-Clusters/LCBOP/Only-C1/SD-CG/FIRE-CG
REM
REM
REM
REM
REM
REM ./C.cell (11c1c37f851c82e70ff6c80c92926a4b)
REM AIRSS Version 0.9.1 bugfix July 2018 build 013d7b7c2542+ Fri, 06 Jul 2018 19:26:36 +0100
REM compiler GCC version 9.2.1 20190827 (Red Hat 9.2.1-1)
REM options -cpp -mtune=generic -march=x86-64 -g -O0 -fpre-include=/usr/include/finclude/math-vector-fortran.h
REM seed 1018508314 -1626116260 508126652 -2015223147 -1157102443 1520563170 2067545657 -682224484 -2091586489 709005421 1415815244 -342178191 -2053218440 -1576447704 2085905585 -49706450 948726277 2133997416 -1610765493 -306555631 205805534 -188361551 -1083301394 -667012508 -243270464 -910111842 603271294 -1540639008 -1657308290 -711631376 396497400 -377091086 842250867
REM
CELL 1.54180   50.00000   50.00000   50.00000   90.00000   90.00000   90.00000
LATT -1
SFAC C  
C      1  0.4973510000000  0.5286250000000  0.5589840000000 1.0
C      1  0.5021060000000  0.6524300000000  0.5474440000000 1.0
C      1  0.5147690000000  0.5023430000000  0.4942740000000 1.0
C      1  0.5074030000000  0.5997070000000  0.5460750000000 1.0
C      1  0.4993260000000  0.4390960000000  0.4592640000000 1.0
C      1  0.4699160000000  0.5037900000000  0.5905900000000 1.0
C      1  0.4580350000000  0.5019190000000  0.6137110000000 1.0
C      1  0.4351780000000  0.4305340000000  0.4276820000000 1.0
C      1  0.4782620000000  0.4200660000000  0.4584570000000 1.0
C      1  0.5100660000000  0.5733670000000  0.5452870000000 1.0
C      1  0.5047630000000  0.6260660000000  0.5467600000000 1.0
C      1  0.4826470000000  0.5058320000000  0.5658920000000 1.0
C      1  0.4812210000000  0.4851810000000  0.5470570000000 1.0
C      1  0.4876580000000  0.4754900000000  0.5231760000000 1.0
C      1  0.5109140000000  0.4657240000000  0.3933920000000 1.0
C      1  0.5326620000000  0.5347250000000  0.5258690000000 1.0
C      1  0.5197630000000  0.4382890000000  0.4395420000000 1.0
C      1  0.5055170000000  0.4788280000000  0.3715120000000 1.0
C      1  0.5132330000000  0.5456880000000  0.5435500000000 1.0
C      1  0.4998890000000  0.4585520000000  0.4792480000000 1.0
C      1  0.5161330000000  0.4523850000000  0.4156790000000 1.0
C      1  0.5251490000000  0.5278470000000  0.4992770000000 1.0
C      1  0.5425980000000  0.4238800000000  0.4439370000000 1.0
C      1  0.4803250000000  0.3964360000000  0.4731920000000 1.0
C      1  0.5279880000000  0.5460000000000  0.4790100000000 1.0
C      1  0.4828960000000  0.3745300000000  0.4870730000000 1.0
C      1  0.5007570000000  0.4785100000000  0.4986320000000 1.0
C      1  0.4556220000000  0.4250950000000  0.4428990000000 1.0
C      1  0.4994890000000  0.6783600000000  0.5481160000000 1.0
C      1  0.5583630000000  0.5307030000000  0.5344170000000 1.0
END
