TITL C-627109-622-2046 0.02331108958431 125000 -381.441071865277 0 0 65 (C1) n - 1
REM
REM in /home/nfs/bkarasulu/CARBON/AIRSS/Generating-Clusters/LCBOP/Only-C1/SD-CG/FIRE-CG
REM
REM
REM
REM
REM
REM ./C.cell (11c1c37f851c82e70ff6c80c92926a4b)
REM AIRSS Version 0.9.1 bugfix July 2018 build 013d7b7c2542+ Fri, 06 Jul 2018 19:26:36 +0100
REM compiler GCC version 9.2.1 20190827 (Red Hat 9.2.1-1)
REM options -cpp -mtune=generic -march=x86-64 -g -O0 -fpre-include=/usr/include/finclude/math-vector-fortran.h
REM seed 253619092 -1745937957 1006768692 517992270 -218341946 1373904782 -1880594366 2122922732 -2053643133 -1129705162 -803833550 -1021160890 -824370103 562277219 -634461760 1181012995 1713610124 532668805 -1676892668 -892542820 -643429977 182980652 -491335576 455019363 -1110154719 -238332185 -1352078785 120680306 1698496674 555595014 -2061679278 1245923041 -1839484661
REM
CELL 1.54180   50.00000   50.00000   50.00000   90.00000   90.00000   90.00000
LATT -1
SFAC C  
C      1  0.3730080000000  0.4361120000000  0.4991800000000 1.0
C      1  0.5191770000000  0.4168200000000  0.4859110000000 1.0
C      1  0.5540810000000  0.4506590000000  0.4892520000000 1.0
C      1  0.5439420000000  0.4250550000000  0.4963950000000 1.0
C      1  0.5312880000000  0.5594300000000  0.5152680000000 1.0
C      1  0.4706660000000  0.4923770000000  0.4648070000000 1.0
C      1  0.5323910000000  0.4995240000000  0.4238810000000 1.0
C      1  0.5042320000000  0.5645630000000  0.5224010000000 1.0
C      1  0.5015520000000  0.5560010000000  0.4284800000000 1.0
C      1  0.4825310000000  0.4382020000000  0.4612490000000 1.0
C      1  0.5022110000000  0.5905950000000  0.5907940000000 1.0
C      1  0.5936130000000  0.4058220000000  0.5456770000000 1.0
C      1  0.4965280000000  0.5311070000000  0.4183020000000 1.0
C      1  0.4884910000000  0.4857370000000  0.4434390000000 1.0
C      1  0.4312950000000  0.5422680000000  0.4345720000000 1.0
C      1  0.4208930000000  0.4712070000000  0.5678350000000 1.0
C      1  0.5581560000000  0.4084160000000  0.5136600000000 1.0
C      1  0.5139750000000  0.6389760000000  0.6522260000000 1.0
C      1  0.4435230000000  0.4859530000000  0.4608950000000 1.0
C      1  0.5596570000000  0.5458560000000  0.4769270000000 1.0
C      1  0.4623470000000  0.5509670000000  0.4980160000000 1.0
C      1  0.4201740000000  0.4790000000000  0.5425260000000 1.0
C      1  0.4945890000000  0.5576620000000  0.5483020000000 1.0
C      1  0.5092740000000  0.4787490000000  0.5294990000000 1.0
C      1  0.5036760000000  0.5046280000000  0.4261710000000 1.0
C      1  0.3943680000000  0.4509190000000  0.4972690000000 1.0
C      1  0.4871140000000  0.3899010000000  0.4621580000000 1.0
C      1  0.4969660000000  0.5351100000000  0.4692750000000 1.0
C      1  0.4962000000000  0.4145440000000  0.4698700000000 1.0
C      1  0.5375300000000  0.4675070000000  0.4737650000000 1.0
C      1  0.5530950000000  0.5447220000000  0.5045600000000 1.0
C      1  0.5735750000000  0.3935280000000  0.5316390000000 1.0
C      1  0.5646540000000  0.5232850000000  0.5197630000000 1.0
C      1  0.5684570000000  0.3668420000000  0.5349970000000 1.0
C      1  0.5917810000000  0.4837090000000  0.5031800000000 1.0
C      1  0.4684520000000  0.5376080000000  0.4732550000000 1.0
C      1  0.4983890000000  0.4584620000000  0.4475150000000 1.0
C      1  0.5271480000000  0.4587920000000  0.4485030000000 1.0
C      1  0.5157490000000  0.5163300000000  0.4781470000000 1.0
C      1  0.4959960000000  0.5800240000000  0.4765810000000 1.0
C      1  0.4174130000000  0.4667190000000  0.4957450000000 1.0
C      1  0.4552290000000  0.4418700000000  0.4698460000000 1.0
C      1  0.5391140000000  0.4720700000000  0.4264070000000 1.0
C      1  0.4787180000000  0.4906890000000  0.4924830000000 1.0
C      1  0.4811260000000  0.5331100000000  0.5503680000000 1.0
C      1  0.4983000000000  0.5744130000000  0.5701930000000 1.0
C      1  0.4859340000000  0.4912000000000  0.5197980000000 1.0
C      1  0.4357190000000  0.4623550000000  0.4743480000000 1.0
C      1  0.5318120000000  0.4886930000000  0.5400620000000 1.0
C      1  0.4220660000000  0.4636880000000  0.5927680000000 1.0
C      1  0.4848100000000  0.5699820000000  0.5018390000000 1.0
C      1  0.5034120000000  0.5608990000000  0.4563480000000 1.0
C      1  0.5872620000000  0.5091010000000  0.5105740000000 1.0
C      1  0.5301970000000  0.4938640000000  0.4810160000000 1.0
C      1  0.4494520000000  0.5378870000000  0.4527590000000 1.0
C      1  0.5061530000000  0.6068080000000  0.6113810000000 1.0
C      1  0.4405420000000  0.5385190000000  0.5110560000000 1.0
C      1  0.5100960000000  0.6230250000000  0.6319730000000 1.0
C      1  0.4755900000000  0.5102280000000  0.5377770000000 1.0
C      1  0.4215110000000  0.4873750000000  0.5157020000000 1.0
C      1  0.5489290000000  0.5091380000000  0.5383690000000 1.0
C      1  0.4269770000000  0.5150300000000  0.5114200000000 1.0
C      1  0.5789560000000  0.4610280000000  0.4970980000000 1.0
C      1  0.5504700000000  0.5195810000000  0.4325140000000 1.0
C      1  0.5594690000000  0.5357600000000  0.4520140000000 1.0
END
