TITL C-627106-156-1203 3.71596135992365e-08 125000 -180.160271490715 0 0 31 (C1) n - 1
REM
REM in /home/nfs/bkarasulu/CARBON/AIRSS/Generating-Clusters/LCBOP/Only-C1/SD-CG/FIRE-CG
REM
REM
REM
REM
REM
REM ./C.cell (11c1c37f851c82e70ff6c80c92926a4b)
REM AIRSS Version 0.9.1 bugfix July 2018 build 013d7b7c2542+ Fri, 06 Jul 2018 19:26:36 +0100
REM compiler GCC version 9.2.1 20190827 (Red Hat 9.2.1-1)
REM options -cpp -mtune=generic -march=x86-64 -g -O0 -fpre-include=/usr/include/finclude/math-vector-fortran.h
REM seed 1764777863 -175779674 1460615893 -1930199026 1056862575 -1455054466 1468075472 -249604609 -2064742168 1140253629 -2107782442 -1649035667 -1431251439 928758412 -1353521181 1912644477 1910105626 1103758687 997426123 329563521 -1549391550 138142563 -1503866722 2127784831 707234436 1225690707 -1965150683 956545747 -1435176904 1350644132 -633443729 1285426570 302706235
REM
CELL 1.54180   50.00000   50.00000   50.00000   90.00000   90.00000   90.00000
LATT -1
SFAC C  
C      1  0.4306860000000  0.4862610000000  0.5372540000000 1.0
C      1  0.5249220000000  0.4572480000000  0.5287590000000 1.0
C      1  0.4938840000000  0.5235970000000  0.5235250000000 1.0
C      1  0.4614360000000  0.5148490000000  0.5630470000000 1.0
C      1  0.5037510000000  0.5426480000000  0.5749720000000 1.0
C      1  0.5275830000000  0.5206350000000  0.4742060000000 1.0
C      1  0.5246610000000  0.4829270000000  0.5358270000000 1.0
C      1  0.4949430000000  0.4450640000000  0.4659190000000 1.0
C      1  0.5264860000000  0.5502980000000  0.5629070000000 1.0
C      1  0.5330630000000  0.4596010000000  0.4016410000000 1.0
C      1  0.5085140000000  0.4439750000000  0.4412250000000 1.0
C      1  0.5423510000000  0.5336800000000  0.4923540000000 1.0
C      1  0.5448460000000  0.4550310000000  0.3788480000000 1.0
C      1  0.5145130000000  0.5074360000000  0.5333280000000 1.0
C      1  0.4839500000000  0.4955050000000  0.4709130000000 1.0
C      1  0.4802330000000  0.5297000000000  0.5752320000000 1.0
C      1  0.4099620000000  0.4706100000000  0.5350760000000 1.0
C      1  0.5205010000000  0.4644910000000  0.4259330000000 1.0
C      1  0.4906910000000  0.5490060000000  0.5089690000000 1.0
C      1  0.4686090000000  0.5127880000000  0.4873220000000 1.0
C      1  0.5050880000000  0.4324620000000  0.4887810000000 1.0
C      1  0.4746890000000  0.5412750000000  0.4860360000000 1.0
C      1  0.5096720000000  0.5038620000000  0.4602540000000 1.0
C      1  0.4967760000000  0.5744520000000  0.5159870000000 1.0
C      1  0.5170640000000  0.4380960000000  0.5119670000000 1.0
C      1  0.4694860000000  0.5081920000000  0.5164570000000 1.0
C      1  0.5484030000000  0.5446850000000  0.5160710000000 1.0
C      1  0.4785570000000  0.4678510000000  0.4696020000000 1.0
C      1  0.5187380000000  0.4902760000000  0.4372040000000 1.0
C      1  0.5428420000000  0.5509040000000  0.5416050000000 1.0
C      1  0.4531000000000  0.5025950000000  0.5387800000000 1.0
END
