TITL C-627112-676-1279 124.609695418084 125000 -851.968453963424 0 0 139 (C1) n - 1
REM
REM in /home/nfs/bkarasulu/CARBON/AIRSS/Generating-Clusters/LCBOP/Only-C1/SD-CG/FIRE-CG
REM
REM
REM
REM
REM
REM ./C.cell (11c1c37f851c82e70ff6c80c92926a4b)
REM AIRSS Version 0.9.1 bugfix July 2018 build 013d7b7c2542+ Fri, 06 Jul 2018 19:26:36 +0100
REM compiler GCC version 9.2.1 20190827 (Red Hat 9.2.1-1)
REM options -cpp -mtune=generic -march=x86-64 -g -O0 -fpre-include=/usr/include/finclude/math-vector-fortran.h
REM seed 569434438 2085664322 -714816841 1133746992 -122942503 1868403079 -933221046 -1326618088 -1141826146 1770682902 1586396288 -1215519180 487211062 -563436553 1691383225 1884714817 1812986055 -1354158247 363498448 -1190611646 1939488418 -1224963474 -1996039070 -681863850 -2041557109 -1240859626 395812321 1594472354 385706165 -905117468 -1148828828 -717586130 543905390
REM
CELL 1.54180   50.00000   50.00000   50.00000   90.00000   90.00000   90.00000
LATT -1
SFAC C  
C      1  0.5084940000000  0.5212700000000  0.5202940000000 1.0
C      1  0.5088780000000  0.4836600000000  0.5548630000000 1.0
C      1  0.5212380000000  0.5067470000000  0.4001810000000 1.0
C      1  0.5721160000000  0.4301250000000  0.4625470000000 1.0
C      1  0.4321510000000  0.4682250000000  0.5781910000000 1.0
C      1  0.5829890000000  0.5510740000000  0.5334500000000 1.0
C      1  0.5292780000000  0.5984620000000  0.4812760000000 1.0
C      1  0.4754260000000  0.5533660000000  0.6163930000000 1.0
C      1  0.4625330000000  0.4046630000000  0.4559500000000 1.0
C      1  0.5680540000000  0.5057640000000  0.4153070000000 1.0
C      1  0.5534930000000  0.4092980000000  0.4647860000000 1.0
C      1  0.3842620000000  0.4784180000000  0.4803670000000 1.0
C      1  0.3986540000000  0.4999840000000  0.4939600000000 1.0
C      1  0.4023890000000  0.5275230000000  0.4905600000000 1.0
C      1  0.5984850000000  0.5468000000000  0.4888530000000 1.0
C      1  0.4995180000000  0.4461940000000  0.4851570000000 1.0
C      1  0.5433500000000  0.5391280000000  0.4784290000000 1.0
C      1  0.4989130000000  0.5083650000000  0.4968990000000 1.0
C      1  0.4201790000000  0.5580940000000  0.5742400000000 1.0
C      1  0.4091670000000  0.4559680000000  0.4423390000000 1.0
C      1  0.5191330000000  0.4367580000000  0.5719510000000 1.0
C      1  0.4152100000000  0.5357510000000  0.4004370000000 1.0
C      1  0.5175590000000  0.6036800000000  0.5094540000000 1.0
C      1  0.5176370000000  0.4758310000000  0.4496850000000 1.0
C      1  0.5933470000000  0.4714050000000  0.4754630000000 1.0
C      1  0.5854580000000  0.4712680000000  0.4456750000000 1.0
C      1  0.4876870000000  0.3880370000000  0.4968650000000 1.0
C      1  0.4317710000000  0.5435610000000  0.5958160000000 1.0
C      1  0.5542920000000  0.5608380000000  0.4928110000000 1.0
C      1  0.5786540000000  0.5583510000000  0.5060070000000 1.0
C      1  0.5719810000000  0.5703330000000  0.5507070000000 1.0
C      1  0.5275500000000  0.4242890000000  0.4174290000000 1.0
C      1  0.4954940000000  0.5063880000000  0.3892560000000 1.0
C      1  0.5711300000000  0.4470690000000  0.4393580000000 1.0
C      1  0.5198170000000  0.5546150000000  0.5502620000000 1.0
C      1  0.5552570000000  0.5912560000000  0.5461420000000 1.0
C      1  0.4572860000000  0.4790800000000  0.4855750000000 1.0
C      1  0.5866400000000  0.4979530000000  0.4346590000000 1.0
C      1  0.4230860000000  0.4926400000000  0.5863930000000 1.0
C      1  0.4643330000000  0.4929920000000  0.4406970000000 1.0
C      1  0.4634310000000  0.5071880000000  0.6075110000000 1.0
C      1  0.4871520000000  0.4279870000000  0.3909820000000 1.0
C      1  0.4481130000000  0.5411770000000  0.4356360000000 1.0
C      1  0.4817190000000  0.3967780000000  0.5236320000000 1.0
C      1  0.4761040000000  0.5271430000000  0.4769020000000 1.0
C      1  0.5019480000000  0.5723630000000  0.5624490000000 1.0
C      1  0.5667530000000  0.4840860000000  0.6337720000000 1.0
C      1  0.5361280000000  0.6030840000000  0.5311910000000 1.0
C      1  0.5243570000000  0.5297260000000  0.5647050000000 1.0
C      1  0.4410100000000  0.4304630000000  0.5389940000000 1.0
C      1  0.4451160000000  0.6024720000000  0.4831770000000 1.0
C      1  0.5045520000000  0.5229640000000  0.5857020000000 1.0
C      1  0.4433180000000  0.4255130000000  0.4632750000000 1.0
C      1  0.4617220000000  0.4772480000000  0.4168850000000 1.0
C      1  0.4661470000000  0.5420790000000  0.5510260000000 1.0
C      1  0.4509240000000  0.5243610000000  0.4956620000000 1.0
C      1  0.4313400000000  0.4382330000000  0.5137400000000 1.0
C      1  0.4229380000000  0.5776500000000  0.5556760000000 1.0
C      1  0.5529360000000  0.4257450000000  0.5208240000000 1.0
C      1  0.5793080000000  0.4292050000000  0.5092910000000 1.0
C      1  0.4614200000000  0.5428410000000  0.3888630000000 1.0
C      1  0.5717900000000  0.5698130000000  0.4521290000000 1.0
C      1  0.4352360000000  0.5844160000000  0.4660670000000 1.0
C      1  0.5544620000000  0.4678940000000  0.5615780000000 1.0
C      1  0.5270300000000  0.4653520000000  0.5731300000000 1.0
C      1  0.5404450000000  0.5060950000000  0.4204620000000 1.0
C      1  0.4874330000000  0.6162210000000  0.4669980000000 1.0
C      1  0.5348660000000  0.5644680000000  0.4179980000000 1.0
C      1  0.5878330000000  0.4909080000000  0.6483200000000 1.0
C      1  0.5106870000000  0.5620660000000  0.4295280000000 1.0
C      1  0.5436410000000  0.4977180000000  0.4959520000000 1.0
C      1  0.5169190000000  0.4860600000000  0.4953170000000 1.0
C      1  0.5907690000000  0.5461500000000  0.4606190000000 1.0
C      1  0.6042720000000  0.5199050000000  0.5017330000000 1.0
C      1  0.5243080000000  0.4716310000000  0.6024300000000 1.0
C      1  0.4959610000000  0.4623830000000  0.4615890000000 1.0
C      1  0.6085800000000  0.4976260000000  0.6626060000000 1.0
C      1  0.4775820000000  0.4853910000000  0.3951960000000 1.0
C      1  0.5115820000000  0.5490360000000  0.5229370000000 1.0
C      1  0.4639160000000  0.5206560000000  0.4485220000000 1.0
C      1  0.5491050000000  0.4975590000000  0.5245560000000 1.0
C      1  0.5411360000000  0.4514420000000  0.5179000000000 1.0
C      1  0.3867860000000  0.4563370000000  0.4992510000000 1.0
C      1  0.4905320000000  0.5538970000000  0.4757810000000 1.0
C      1  0.5458080000000  0.4774010000000  0.6190060000000 1.0
C      1  0.4390030000000  0.5928870000000  0.5397330000000 1.0
C      1  0.4477910000000  0.4330160000000  0.4908850000000 1.0
C      1  0.4857850000000  0.4151390000000  0.5459390000000 1.0
C      1  0.4878210000000  0.4742010000000  0.5344780000000 1.0
C      1  0.4707530000000  0.6120650000000  0.4896310000000 1.0
C      1  0.4834190000000  0.5301740000000  0.3804760000000 1.0
C      1  0.4761560000000  0.5693200000000  0.5516690000000 1.0
C      1  0.4267420000000  0.5389440000000  0.4937680000000 1.0
C      1  0.4638850000000  0.4340910000000  0.5565450000000 1.0
C      1  0.4676960000000  0.3858800000000  0.4766670000000 1.0
C      1  0.4852850000000  0.5284460000000  0.6073260000000 1.0
C      1  0.5513780000000  0.4392070000000  0.4210450000000 1.0
C      1  0.6000860000000  0.5002060000000  0.4805710000000 1.0
C      1  0.5135670000000  0.4173960000000  0.5528690000000 1.0
C      1  0.4479330000000  0.4961700000000  0.5081060000000 1.0
C      1  0.3904110000000  0.4713090000000  0.4538830000000 1.0
C      1  0.5118800000000  0.4116190000000  0.4391100000000 1.0
C      1  0.5000030000000  0.5618590000000  0.5013270000000 1.0
C      1  0.4851600000000  0.6039280000000  0.5139200000000 1.0
C      1  0.5600430000000  0.5691450000000  0.4262640000000 1.0
C      1  0.4366750000000  0.5147730000000  0.5980890000000 1.0
C      1  0.4715570000000  0.4764340000000  0.4621750000000 1.0
C      1  0.4340670000000  0.4429690000000  0.4419950000000 1.0
C      1  0.4535770000000  0.4496540000000  0.4214600000000 1.0
C      1  0.4491290000000  0.5591980000000  0.6125370000000 1.0
C      1  0.4384740000000  0.5635400000000  0.4498210000000 1.0
C      1  0.5980150000000  0.5259120000000  0.5299760000000 1.0
C      1  0.4999170000000  0.5704390000000  0.4540550000000 1.0
C      1  0.4118600000000  0.4583920000000  0.5131660000000 1.0
C      1  0.5947020000000  0.5168370000000  0.4549080000000 1.0
C      1  0.5076370000000  0.5972290000000  0.4620600000000 1.0
C      1  0.4758340000000  0.4358030000000  0.4957370000000 1.0
C      1  0.4971470000000  0.4712080000000  0.6104540000000 1.0
C      1  0.4765020000000  0.4830000000000  0.5929640000000 1.0
C      1  0.5361070000000  0.4091850000000  0.5367050000000 1.0
C      1  0.4672740000000  0.5908050000000  0.5345770000000 1.0
C      1  0.5438540000000  0.5123040000000  0.4715530000000 1.0
C      1  0.5261970000000  0.4023850000000  0.4625950000000 1.0
C      1  0.5539270000000  0.5828400000000  0.4739430000000 1.0
C      1  0.5254740000000  0.5073340000000  0.5417030000000 1.0
C      1  0.4586980000000  0.4573330000000  0.5759460000000 1.0
C      1  0.5133470000000  0.3908090000000  0.4850430000000 1.0
C      1  0.4823470000000  0.4123810000000  0.4364400000000 1.0
C      1  0.5335250000000  0.4993040000000  0.4474920000000 1.0
C      1  0.5140720000000  0.4256920000000  0.3924960000000 1.0
C      1  0.5551000000000  0.4713850000000  0.5335940000000 1.0
C      1  0.4653530000000  0.4930280000000  0.5318460000000 1.0
C      1  0.4190270000000  0.4868370000000  0.5110890000000 1.0
C      1  0.4717920000000  0.4286770000000  0.4146050000000 1.0
C      1  0.4691360000000  0.5136450000000  0.5523060000000 1.0
C      1  0.5850400000000  0.4436850000000  0.4850350000000 1.0
C      1  0.4897490000000  0.4998180000000  0.5717070000000 1.0
C      1  0.4411370000000  0.5400560000000  0.4080130000000 1.0
C      1  0.5189460000000  0.4581490000000  0.5015210000000 1.0
END
