TITL C-627111-6168-57 108638.063683616 125000 -983.438065491935 0 0 163 (C1) n - 1
REM
REM in /home/nfs/bkarasulu/CARBON/AIRSS/Generating-Clusters/LCBOP/Only-C1/SD-CG/FIRE-CG
REM
REM
REM
REM
REM
REM ./C.cell (11c1c37f851c82e70ff6c80c92926a4b)
REM AIRSS Version 0.9.1 bugfix July 2018 build 013d7b7c2542+ Fri, 06 Jul 2018 19:26:36 +0100
REM compiler GCC version 9.2.1 20190827 (Red Hat 9.2.1-1)
REM options -cpp -mtune=generic -march=x86-64 -g -O0 -fpre-include=/usr/include/finclude/math-vector-fortran.h
REM seed -1333866464 307780821 -286638388 1773775949 -610131221 2012452756 -1303191968 -1216104554 600347222 778934800 -1115511416 -1481813374 1928161031 714955713 -308789183 893842808 39195114 58296505 -1481089338 808689327 -1935532354 2121368229 378266369 -1550451810 404802580 -580716194 1459142185 1318611350 -299786741 -748780069 -1505667384 648910020 -2146436963
REM
CELL 1.54180   50.00000   50.00000   50.00000   90.00000   90.00000   90.00000
LATT -1
SFAC C  
C      1  0.5979500000000  0.5119570000000  0.5564590000000 1.0
C      1  0.4782910000000  0.4129690000000  0.5815160000000 1.0
C      1  0.3999220000000  0.5282570000000  0.5049430000000 1.0
C      1  0.5255440000000  0.4919300000000  0.5074520000000 1.0
C      1  0.5772680000000  0.4713090000000  0.4805350000000 1.0
C      1  0.5093690000000  0.4633250000000  0.5507400000000 1.0
C      1  0.5230490000000  0.5308400000000  0.4135230000000 1.0
C      1  0.3970450000000  0.4518470000000  0.4949490000000 1.0
C      1  0.3995000000000  0.4365320000000  0.5195360000000 1.0
C      1  0.5177610000000  0.5279000000000  0.5790930000000 1.0
C      1  0.5622450000000  0.6289230000000  0.5338090000000 1.0
C      1  0.5669160000000  0.4725330000000  0.5303260000000 1.0
C      1  0.4676380000000  0.4469100000000  0.6219590000000 1.0
C      1  0.4628030000000  0.6234860000000  0.5279650000000 1.0
C      1  0.4552070000000  0.4085120000000  0.5128820000000 1.0
C      1  0.4864710000000  0.5484480000000  0.4423450000000 1.0
C      1  0.4423630000000  0.4587520000000  0.4085860000000 1.0
C      1  0.4257580000000  0.5022370000000  0.4227260000000 1.0
C      1  0.5217660000000  0.3952820000000  0.5171490000000 1.0
C      1  0.4340930000000  0.4907910000000  0.4939020000000 1.0
C      1  0.5219630000000  0.4340210000000  0.4840330000000 1.0
C      1  0.3989960000000  0.5487490000000  0.4598280000000 1.0
C      1  0.5525320000000  0.6185860000000  0.5785890000000 1.0
C      1  0.5373850000000  0.5989420000000  0.5634880000000 1.0
C      1  0.5165190000000  0.3410680000000  0.4389130000000 1.0
C      1  0.6256430000000  0.4801300000000  0.5274210000000 1.0
C      1  0.5787550000000  0.6342210000000  0.5121430000000 1.0
C      1  0.5640450000000  0.4186040000000  0.5537980000000 1.0
C      1  0.4782340000000  0.6005300000000  0.5707980000000 1.0
C      1  0.4003880000000  0.5247990000000  0.4761990000000 1.0
C      1  0.5128570000000  0.4476700000000  0.5056550000000 1.0
C      1  0.4356530000000  0.5832520000000  0.4029770000000 1.0
C      1  0.5424380000000  0.6073780000000  0.5358180000000 1.0
C      1  0.3883680000000  0.4121520000000  0.5239150000000 1.0
C      1  0.4844880000000  0.5858950000000  0.5033950000000 1.0
C      1  0.4141670000000  0.5944820000000  0.4906420000000 1.0
C      1  0.5232410000000  0.5097250000000  0.5575230000000 1.0
C      1  0.5195950000000  0.5128360000000  0.4668360000000 1.0
C      1  0.5484380000000  0.5149980000000  0.5414040000000 1.0
C      1  0.6295940000000  0.5378960000000  0.4789070000000 1.0
C      1  0.4335570000000  0.4693810000000  0.5222720000000 1.0
C      1  0.4520340000000  0.5399460000000  0.4068590000000 1.0
C      1  0.4765930000000  0.5023330000000  0.5617390000000 1.0
C      1  0.5862080000000  0.5687810000000  0.5384520000000 1.0
C      1  0.5502010000000  0.3958360000000  0.5116520000000 1.0
C      1  0.4924450000000  0.4504100000000  0.4015810000000 1.0
C      1  0.5745340000000  0.4426450000000  0.5656570000000 1.0
C      1  0.4480680000000  0.6073170000000  0.4594430000000 1.0
C      1  0.4144460000000  0.4462350000000  0.5662310000000 1.0
C      1  0.5843020000000  0.4594960000000  0.5457120000000 1.0
C      1  0.4268460000000  0.5311390000000  0.4194700000000 1.0
C      1  0.4746280000000  0.3916530000000  0.5247580000000 1.0
C      1  0.4743850000000  0.5366110000000  0.4657350000000 1.0
C      1  0.4750090000000  0.5092630000000  0.4706720000000 1.0
C      1  0.5214630000000  0.5338040000000  0.4846640000000 1.0
C      1  0.5849870000000  0.5457560000000  0.4961110000000 1.0
C      1  0.4963030000000  0.3870630000000  0.5053660000000 1.0
C      1  0.5913760000000  0.5037870000000  0.4099090000000 1.0
C      1  0.5809440000000  0.4717850000000  0.3426290000000 1.0
C      1  0.4629170000000  0.4358100000000  0.5052140000000 1.0
C      1  0.4193440000000  0.4594740000000  0.4493380000000 1.0
C      1  0.5173070000000  0.4618310000000  0.6132740000000 1.0
C      1  0.4896570000000  0.4697180000000  0.4508100000000 1.0
C      1  0.5530540000000  0.4950150000000  0.5174890000000 1.0
C      1  0.5569240000000  0.4534720000000  0.4339240000000 1.0
C      1  0.5610720000000  0.4588580000000  0.5856870000000 1.0
C      1  0.4455660000000  0.4562860000000  0.6063950000000 1.0
C      1  0.5664050000000  0.6357940000000  0.5617620000000 1.0
C      1  0.5697800000000  0.5191350000000  0.4093840000000 1.0
C      1  0.5869150000000  0.4305550000000  0.5082350000000 1.0
C      1  0.4126950000000  0.4414660000000  0.4716550000000 1.0
C      1  0.4914920000000  0.4080730000000  0.4340370000000 1.0
C      1  0.5027740000000  0.3623950000000  0.4448650000000 1.0
C      1  0.3976330000000  0.5040460000000  0.5204400000000 1.0
C      1  0.4599680000000  0.4305800000000  0.5694260000000 1.0
C      1  0.6357420000000  0.5121030000000  0.4748170000000 1.0
C      1  0.5130470000000  0.4408190000000  0.5331840000000 1.0
C      1  0.4666370000000  0.4529170000000  0.4531050000000 1.0
C      1  0.4914780000000  0.5906280000000  0.4755240000000 1.0
C      1  0.4964260000000  0.5628790000000  0.5197980000000 1.0
C      1  0.4620070000000  0.4593200000000  0.5231090000000 1.0
C      1  0.4737100000000  0.5943400000000  0.4528490000000 1.0
C      1  0.4584010000000  0.5680520000000  0.4092400000000 1.0
C      1  0.6102860000000  0.5794620000000  0.5318280000000 1.0
C      1  0.4111690000000  0.5712840000000  0.4738660000000 1.0
C      1  0.4682030000000  0.4474990000000  0.5489460000000 1.0
C      1  0.5168980000000  0.5148420000000  0.6043140000000 1.0
C      1  0.4948670000000  0.4430810000000  0.6154080000000 1.0
C      1  0.4344320000000  0.5253260000000  0.5520380000000 1.0
C      1  0.4116090000000  0.5069710000000  0.5464020000000 1.0
C      1  0.4434410000000  0.4866390000000  0.4046290000000 1.0
C      1  0.6204980000000  0.4702180000000  0.5014280000000 1.0
C      1  0.4398290000000  0.5720690000000  0.5672180000000 1.0
C      1  0.4643480000000  0.4961330000000  0.5862320000000 1.0
C      1  0.4360910000000  0.4210890000000  0.4730830000000 1.0
C      1  0.5543490000000  0.5623420000000  0.3954970000000 1.0
C      1  0.5770210000000  0.5221450000000  0.4834030000000 1.0
C      1  0.6321740000000  0.4861970000000  0.4810250000000 1.0
C      1  0.4164680000000  0.4881670000000  0.4469880000000 1.0
C      1  0.4643620000000  0.5250840000000  0.5495820000000 1.0
C      1  0.4835780000000  0.5543110000000  0.5487770000000 1.0
C      1  0.4963190000000  0.5319910000000  0.4208310000000 1.0
C      1  0.4163440000000  0.5815940000000  0.4242710000000 1.0
C      1  0.5097260000000  0.4840970000000  0.3718680000000 1.0
C      1  0.5274740000000  0.4225670000000  0.5874140000000 1.0
C      1  0.3978740000000  0.4978990000000  0.5686860000000 1.0
C      1  0.5164700000000  0.4900220000000  0.6151710000000 1.0
C      1  0.4406890000000  0.6066650000000  0.4882680000000 1.0
C      1  0.6114330000000  0.4864790000000  0.4100300000000 1.0
C      1  0.4618290000000  0.4961780000000  0.4915410000000 1.0
C      1  0.5209730000000  0.5472070000000  0.5104900000000 1.0
C      1  0.3898320000000  0.4795510000000  0.5050590000000 1.0
C      1  0.4795080000000  0.3878940000000  0.4788490000000 1.0
C      1  0.4901850000000  0.4766220000000  0.3905120000000 1.0
C      1  0.5693060000000  0.4967030000000  0.4916870000000 1.0
C      1  0.5961840000000  0.4552510000000  0.4957050000000 1.0
C      1  0.4937940000000  0.4273260000000  0.4153830000000 1.0
C      1  0.6184690000000  0.4992750000000  0.5447710000000 1.0
C      1  0.4201430000000  0.5457570000000  0.5142640000000 1.0
C      1  0.5326280000000  0.4845210000000  0.3585270000000 1.0
C      1  0.4466960000000  0.4840410000000  0.6021610000000 1.0
C      1  0.5003790000000  0.4205940000000  0.5972170000000 1.0
C      1  0.5706780000000  0.5080290000000  0.5626570000000 1.0
C      1  0.4159770000000  0.4516900000000  0.5375900000000 1.0
C      1  0.4464260000000  0.5464840000000  0.5076120000000 1.0
C      1  0.3895490000000  0.4437870000000  0.5777710000000 1.0
C      1  0.4435790000000  0.4516160000000  0.4354730000000 1.0
C      1  0.5491080000000  0.5376310000000  0.4060200000000 1.0
C      1  0.4778140000000  0.4801080000000  0.5085570000000 1.0
C      1  0.5988840000000  0.6262190000000  0.4964710000000 1.0
C      1  0.4746760000000  0.5224330000000  0.4049590000000 1.0
C      1  0.5023690000000  0.4906280000000  0.5550310000000 1.0
C      1  0.5085000000000  0.5529180000000  0.5696270000000 1.0
C      1  0.4563890000000  0.5504250000000  0.4817420000000 1.0
C      1  0.5382500000000  0.4479140000000  0.5980930000000 1.0
C      1  0.5455080000000  0.5419260000000  0.5263960000000 1.0
C      1  0.4096080000000  0.5524580000000  0.4318510000000 1.0
C      1  0.5674460000000  0.4625460000000  0.4559770000000 1.0
C      1  0.4590950000000  0.4401060000000  0.4771330000000 1.0
C      1  0.5697740000000  0.4133620000000  0.5245510000000 1.0
C      1  0.6114820000000  0.5559340000000  0.4906750000000 1.0
C      1  0.4975120000000  0.4954820000000  0.4595400000000 1.0
C      1  0.5706750000000  0.5539780000000  0.5199610000000 1.0
C      1  0.5370190000000  0.4125880000000  0.5623790000000 1.0
C      1  0.4374420000000  0.4412830000000  0.5830180000000 1.0
C      1  0.5047900000000  0.4745290000000  0.5035100000000 1.0
C      1  0.4251140000000  0.6033850000000  0.4418880000000 1.0
C      1  0.4750760000000  0.5735820000000  0.4326710000000 1.0
C      1  0.4258360000000  0.5494170000000  0.5647720000000 1.0
C      1  0.5569810000000  0.4796520000000  0.3492380000000 1.0
C      1  0.6177670000000  0.5803170000000  0.5042490000000 1.0
C      1  0.4387410000000  0.5656280000000  0.4673120000000 1.0
C      1  0.4667440000000  0.5775540000000  0.5616250000000 1.0
C      1  0.4497550000000  0.3972140000000  0.4850590000000 1.0
C      1  0.6156230000000  0.6056420000000  0.4922390000000 1.0
C      1  0.4166690000000  0.5012650000000  0.4720570000000 1.0
C      1  0.6295630000000  0.4677490000000  0.4107990000000 1.0
C      1  0.5647180000000  0.4872600000000  0.5821510000000 1.0
C      1  0.4908150000000  0.3865590000000  0.4525480000000 1.0
C      1  0.5191450000000  0.4140690000000  0.5400600000000 1.0
C      1  0.4616090000000  0.6042270000000  0.5084450000000 1.0
C      1  0.4697930000000  0.4956710000000  0.3978590000000 1.0
C      1  0.5240900000000  0.5761590000000  0.5719140000000 1.0
END
