TITL C-627106-156-340 -5.72786257846827e-07 125000 -223.129331365633 0 0 37 (C1) n - 1
REM
REM in /home/nfs/bkarasulu/CARBON/AIRSS/Generating-Clusters/LCBOP/Only-C1/SD-CG/FIRE-CG
REM
REM
REM
REM
REM
REM ./C.cell (11c1c37f851c82e70ff6c80c92926a4b)
REM AIRSS Version 0.9.1 bugfix July 2018 build 013d7b7c2542+ Fri, 06 Jul 2018 19:26:36 +0100
REM compiler GCC version 9.2.1 20190827 (Red Hat 9.2.1-1)
REM options -cpp -mtune=generic -march=x86-64 -g -O0 -fpre-include=/usr/include/finclude/math-vector-fortran.h
REM seed 249924051 -843767217 1360578213 -1309409615 1461823086 638911978 -1187733174 199531434 476524136 -1805757183 -1726032581 82244534 950527682 -727473543 -1877853718 504807613 -217122332 1633354715 -1904911760 -392078790 -2036703343 2023492449 1807741797 -864030170 -107148146 1531101111 1623920727 -482128958 -188100237 -408748058 -1962147226 -109990860 -667286463
REM
CELL 1.54180   50.00000   50.00000   50.00000   90.00000   90.00000   90.00000
LATT -1
SFAC C  
C      1  0.4737620000000  0.4486650000000  0.5312130000000 1.0
C      1  0.4923540000000  0.5390270000000  0.5583210000000 1.0
C      1  0.5356650000000  0.4975230000000  0.5258300000000 1.0
C      1  0.5594310000000  0.4932550000000  0.5096380000000 1.0
C      1  0.5184680000000  0.5281790000000  0.5615550000000 1.0
C      1  0.5337410000000  0.5230970000000  0.5382580000000 1.0
C      1  0.5023450000000  0.4117610000000  0.5187780000000 1.0
C      1  0.4857250000000  0.5057930000000  0.4711930000000 1.0
C      1  0.4762430000000  0.5473220000000  0.5785540000000 1.0
C      1  0.5280280000000  0.4969080000000  0.4452450000000 1.0
C      1  0.4466200000000  0.5105720000000  0.5125230000000 1.0
C      1  0.4854710000000  0.5400040000000  0.5304460000000 1.0
C      1  0.5021470000000  0.5563020000000  0.4845910000000 1.0
C      1  0.5129380000000  0.5153660000000  0.4601690000000 1.0
C      1  0.5123040000000  0.4850110000000  0.5140000000000 1.0
C      1  0.4526460000000  0.4652070000000  0.5315830000000 1.0
C      1  0.5325430000000  0.5439600000000  0.5182310000000 1.0
C      1  0.5351530000000  0.4710500000000  0.4457290000000 1.0
C      1  0.5368100000000  0.4510530000000  0.4636570000000 1.0
C      1  0.4916050000000  0.5004770000000  0.5020920000000 1.0
C      1  0.4338410000000  0.4712770000000  0.4884040000000 1.0
C      1  0.5233260000000  0.5390570000000  0.4730500000000 1.0
C      1  0.5646940000000  0.5163500000000  0.4937540000000 1.0
C      1  0.5154750000000  0.4571530000000  0.5077190000000 1.0
C      1  0.4770470000000  0.5548040000000  0.4719520000000 1.0
C      1  0.4414700000000  0.5244780000000  0.4878210000000 1.0
C      1  0.4394820000000  0.4826940000000  0.5137330000000 1.0
C      1  0.5050230000000  0.5536890000000  0.5134970000000 1.0
C      1  0.5390270000000  0.4522350000000  0.4917330000000 1.0
C      1  0.4498780000000  0.4709030000000  0.4668880000000 1.0
C      1  0.4739850000000  0.5162060000000  0.5193350000000 1.0
C      1  0.4973090000000  0.4386210000000  0.5192200000000 1.0
C      1  0.5452120000000  0.5370100000000  0.4923130000000 1.0
C      1  0.4729550000000  0.4828830000000  0.4558980000000 1.0
C      1  0.4644810000000  0.5294190000000  0.4713870000000 1.0
C      1  0.4806730000000  0.4762960000000  0.4304730000000 1.0
C      1  0.5621220000000  0.4663940000000  0.5012170000000 1.0
END
