TITL C-627113-6568-1417 -8.88658546440119e-08 125000 -290.471369797384 0 0 49 (C1) n - 1
REM
REM in /home/nfs/bkarasulu/CARBON/AIRSS/Generating-Clusters/LCBOP/Only-C1/SD-CG/FIRE-CG
REM
REM
REM
REM
REM
REM ./C.cell (11c1c37f851c82e70ff6c80c92926a4b)
REM AIRSS Version 0.9.1 bugfix July 2018 build 013d7b7c2542+ Fri, 06 Jul 2018 19:26:36 +0100
REM compiler GCC version 9.2.1 20190827 (Red Hat 9.2.1-1)
REM options -cpp -mtune=generic -march=x86-64 -g -O0 -fpre-include=/usr/include/finclude/math-vector-fortran.h
REM seed 2085057985 -259463461 -114801251 -795100696 399420778 -1114331735 -1399766300 -1826167203 606853511 209937012 -537055159 -758266625 2009039866 2027562205 510156345 -909539717 1567052456 -1248619121 -118042503 483418606 1450473545 1397368361 1702733140 1139163345 1294741525 -1704643690 2034362264 77023592 -982716634 2120724343 261893772 -2105420482 114149492
REM
CELL 1.54180   50.00000   50.00000   50.00000   90.00000   90.00000   90.00000
LATT -1
SFAC C  
C      1  0.4530340000000  0.4794300000000  0.5361570000000 1.0
C      1  0.5157840000000  0.4848980000000  0.5299280000000 1.0
C      1  0.5873820000000  0.5210230000000  0.5192470000000 1.0
C      1  0.5307090000000  0.5190620000000  0.4573930000000 1.0
C      1  0.4169900000000  0.5290220000000  0.5926410000000 1.0
C      1  0.4661760000000  0.5343210000000  0.4452700000000 1.0
C      1  0.4417100000000  0.5105350000000  0.4877400000000 1.0
C      1  0.4935480000000  0.5381960000000  0.5946250000000 1.0
C      1  0.5737330000000  0.5599730000000  0.4951320000000 1.0
C      1  0.5577880000000  0.5239680000000  0.4649170000000 1.0
C      1  0.5462600000000  0.3966790000000  0.5177320000000 1.0
C      1  0.5670610000000  0.5501890000000  0.4707330000000 1.0
C      1  0.5109160000000  0.4728350000000  0.4367060000000 1.0
C      1  0.5721860000000  0.5450840000000  0.5193200000000 1.0
C      1  0.4839570000000  0.4583860000000  0.5020010000000 1.0
C      1  0.4813550000000  0.4587040000000  0.4736250000000 1.0
C      1  0.5162700000000  0.5628360000000  0.4729150000000 1.0
C      1  0.5726870000000  0.4263830000000  0.4923320000000 1.0
C      1  0.4822440000000  0.5300020000000  0.4688630000000 1.0
C      1  0.4194600000000  0.5243400000000  0.4972160000000 1.0
C      1  0.5051160000000  0.4552460000000  0.4582000000000 1.0
C      1  0.5295960000000  0.4423340000000  0.5099460000000 1.0
C      1  0.5100080000000  0.4623420000000  0.5133380000000 1.0
C      1  0.5737520000000  0.5032190000000  0.4759720000000 1.0
C      1  0.5272330000000  0.4160230000000  0.5209750000000 1.0
C      1  0.4267610000000  0.5291270000000  0.5671130000000 1.0
C      1  0.5869280000000  0.5023600000000  0.4995960000000 1.0
C      1  0.4591290000000  0.5594640000000  0.4372560000000 1.0
C      1  0.4622080000000  0.4600950000000  0.5198260000000 1.0
C      1  0.5064700000000  0.5115230000000  0.5246400000000 1.0
C      1  0.5099530000000  0.5366970000000  0.4668980000000 1.0
C      1  0.5301830000000  0.4806420000000  0.5529960000000 1.0
C      1  0.5257620000000  0.4959720000000  0.4421590000000 1.0
C      1  0.5539050000000  0.4459920000000  0.4953420000000 1.0
C      1  0.4685720000000  0.5204390000000  0.4922780000000 1.0
C      1  0.4074480000000  0.5338260000000  0.5189820000000 1.0
C      1  0.4644340000000  0.4840250000000  0.4336240000000 1.0
C      1  0.4578410000000  0.5113460000000  0.4312150000000 1.0
C      1  0.4103110000000  0.5355950000000  0.5453820000000 1.0
C      1  0.4740900000000  0.5308560000000  0.5789200000000 1.0
C      1  0.4789940000000  0.5157050000000  0.5185610000000 1.0
C      1  0.5234720000000  0.5329810000000  0.5306540000000 1.0
C      1  0.4595940000000  0.4721300000000  0.4597790000000 1.0
C      1  0.4400210000000  0.4854120000000  0.4751370000000 1.0
C      1  0.4538880000000  0.5221490000000  0.5616540000000 1.0
C      1  0.4880150000000  0.4757700000000  0.4201720000000 1.0
C      1  0.4606790000000  0.5064800000000  0.5390230000000 1.0
C      1  0.5473630000000  0.5447010000000  0.5324140000000 1.0
C      1  0.5690260000000  0.4016830000000  0.5034530000000 1.0
END
