TITL C-627107-135-1504 93119.3717083938 125000 -1130.08824452809 0 0 184 (C1) n - 1
REM
REM in /home/nfs/bkarasulu/CARBON/AIRSS/Generating-Clusters/LCBOP/Only-C1/SD-CG/FIRE-CG
REM
REM
REM
REM
REM
REM ./C.cell (11c1c37f851c82e70ff6c80c92926a4b)
REM AIRSS Version 0.9.1 bugfix July 2018 build 013d7b7c2542+ Fri, 06 Jul 2018 19:26:36 +0100
REM compiler GCC version 9.2.1 20190827 (Red Hat 9.2.1-1)
REM options -cpp -mtune=generic -march=x86-64 -g -O0 -fpre-include=/usr/include/finclude/math-vector-fortran.h
REM seed -2041850615 -651656127 -1235348270 546377907 1374860031 -1007264135 1842282467 -1524006897 675059967 -249204862 375450056 -667379309 1925398494 96215539 1277793014 -1504948092 -2069243467 -1086199908 -910755789 -1043199437 406946677 -1633018054 1860960513 -1813272022 -927611242 -1048540296 1989304178 638585130 933515764 -2013833819 1969051962 -330310650 -1729829138
REM
CELL 1.54180   50.00000   50.00000   50.00000   90.00000   90.00000   90.00000
LATT -1
SFAC C  
C      1  0.4438870000000  0.4840470000000  0.5351160000000 1.0
C      1  0.4391560000000  0.5267380000000  0.5201280000000 1.0
C      1  0.5976350000000  0.4744820000000  0.4457130000000 1.0
C      1  0.4927170000000  0.4347900000000  0.5130750000000 1.0
C      1  0.3594860000000  0.4510420000000  0.4549180000000 1.0
C      1  0.4455850000000  0.4226910000000  0.5228600000000 1.0
C      1  0.5620430000000  0.6031180000000  0.5246940000000 1.0
C      1  0.5440000000000  0.5519070000000  0.4795760000000 1.0
C      1  0.5065950000000  0.3780800000000  0.5257980000000 1.0
C      1  0.5956220000000  0.5624580000000  0.5249050000000 1.0
C      1  0.4014640000000  0.5629340000000  0.5683720000000 1.0
C      1  0.4269320000000  0.5227200000000  0.4945580000000 1.0
C      1  0.5604690000000  0.6156410000000  0.4992800000000 1.0
C      1  0.3328820000000  0.5089630000000  0.5230500000000 1.0
C      1  0.4294410000000  0.5186210000000  0.3895090000000 1.0
C      1  0.3546840000000  0.4985180000000  0.5338990000000 1.0
C      1  0.5916000000000  0.5380520000000  0.5416020000000 1.0
C      1  0.5442190000000  0.4526640000000  0.5702210000000 1.0
C      1  0.5684350000000  0.5194520000000  0.6136290000000 1.0
C      1  0.5115610000000  0.6137830000000  0.5357440000000 1.0
C      1  0.4532780000000  0.5214380000000  0.4511970000000 1.0
C      1  0.5115820000000  0.5877130000000  0.4460370000000 1.0
C      1  0.5327150000000  0.4325390000000  0.5864710000000 1.0
C      1  0.5613520000000  0.4991100000000  0.5708250000000 1.0
C      1  0.5259300000000  0.5945280000000  0.4698460000000 1.0
C      1  0.6003940000000  0.5341440000000  0.4557860000000 1.0
C      1  0.4555590000000  0.3933620000000  0.5232780000000 1.0
C      1  0.5338120000000  0.4565670000000  0.5247360000000 1.0
C      1  0.5476320000000  0.5109310000000  0.6288400000000 1.0
C      1  0.4995390000000  0.5613270000000  0.4462020000000 1.0
C      1  0.4585830000000  0.5170250000000  0.4233950000000 1.0
C      1  0.5288540000000  0.4497470000000  0.4041810000000 1.0
C      1  0.4724610000000  0.5530010000000  0.3993570000000 1.0
C      1  0.4260060000000  0.4648480000000  0.5748080000000 1.0
C      1  0.5814730000000  0.4941760000000  0.4298380000000 1.0
C      1  0.4726580000000  0.4475650000000  0.3998350000000 1.0
C      1  0.5264360000000  0.5728120000000  0.4877910000000 1.0
C      1  0.4713520000000  0.4362640000000  0.5329260000000 1.0
C      1  0.4478970000000  0.4476640000000  0.4157190000000 1.0
C      1  0.4026240000000  0.5037530000000  0.4276730000000 1.0
C      1  0.4894970000000  0.4258390000000  0.3947620000000 1.0
C      1  0.5586020000000  0.5405110000000  0.4998710000000 1.0
C      1  0.3972490000000  0.4425620000000  0.5304870000000 1.0
C      1  0.5302810000000  0.4286410000000  0.4863530000000 1.0
C      1  0.4757340000000  0.5097890000000  0.6051580000000 1.0
C      1  0.5262000000000  0.4600640000000  0.5510070000000 1.0
C      1  0.4640080000000  0.6108260000000  0.5522580000000 1.0
C      1  0.4979670000000  0.5090870000000  0.4601880000000 1.0
C      1  0.5950670000000  0.4262480000000  0.5587920000000 1.0
C      1  0.5045900000000  0.4175550000000  0.4931940000000 1.0
C      1  0.4696280000000  0.5002270000000  0.4628140000000 1.0
C      1  0.4993300000000  0.4686280000000  0.5520060000000 1.0
C      1  0.5273940000000  0.4085380000000  0.5705620000000 1.0
C      1  0.5133830000000  0.6210950000000  0.4038310000000 1.0
C      1  0.5125600000000  0.5694640000000  0.5122420000000 1.0
C      1  0.4443430000000  0.5585430000000  0.5552440000000 1.0
C      1  0.6149610000000  0.5514150000000  0.4729850000000 1.0
C      1  0.5450270000000  0.4862820000000  0.4597500000000 1.0
C      1  0.4579810000000  0.5067720000000  0.5257370000000 1.0
C      1  0.5862090000000  0.5889130000000  0.5638370000000 1.0
C      1  0.5926770000000  0.4408350000000  0.5832310000000 1.0
C      1  0.4510690000000  0.4330600000000  0.4406560000000 1.0
C      1  0.5844050000000  0.5415280000000  0.5703930000000 1.0
C      1  0.5252980000000  0.5611930000000  0.5913950000000 1.0
C      1  0.4929800000000  0.5500870000000  0.5156480000000 1.0
C      1  0.5345200000000  0.3866580000000  0.5232760000000 1.0
C      1  0.4319900000000  0.6090850000000  0.4756180000000 1.0
C      1  0.5315240000000  0.4985430000000  0.4040960000000 1.0
C      1  0.5520810000000  0.5699510000000  0.5941820000000 1.0
C      1  0.5471930000000  0.5455420000000  0.5261400000000 1.0
C      1  0.6062470000000  0.5595430000000  0.4987580000000 1.0
C      1  0.4753840000000  0.4521320000000  0.5597480000000 1.0
C      1  0.5764360000000  0.5677330000000  0.5796910000000 1.0
C      1  0.5362740000000  0.5981580000000  0.5375780000000 1.0
C      1  0.5565380000000  0.5361890000000  0.4348270000000 1.0
C      1  0.4844020000000  0.4340600000000  0.5831940000000 1.0
C      1  0.4448850000000  0.4339480000000  0.4924190000000 1.0
C      1  0.5810870000000  0.5219440000000  0.4390450000000 1.0
C      1  0.4248290000000  0.6130030000000  0.5263990000000 1.0
C      1  0.4398350000000  0.5359000000000  0.4720340000000 1.0
C      1  0.5361900000000  0.3938410000000  0.4457400000000 1.0
C      1  0.4066890000000  0.5569790000000  0.4311050000000 1.0
C      1  0.5246500000000  0.5268320000000  0.4006280000000 1.0
C      1  0.5120280000000  0.6042610000000  0.4236790000000 1.0
C      1  0.4777840000000  0.6128500000000  0.4766360000000 1.0
C      1  0.5742520000000  0.5196950000000  0.5858320000000 1.0
C      1  0.4492640000000  0.5879680000000  0.4350010000000 1.0
C      1  0.5095570000000  0.5474290000000  0.6112480000000 1.0
C      1  0.5467910000000  0.5432430000000  0.4090320000000 1.0
C      1  0.5032390000000  0.5301610000000  0.5616570000000 1.0
C      1  0.3132490000000  0.5211130000000  0.5109430000000 1.0
C      1  0.5216990000000  0.4825840000000  0.5986840000000 1.0
C      1  0.5642950000000  0.4661490000000  0.4952120000000 1.0
C      1  0.6058900000000  0.4564300000000  0.4653380000000 1.0
C      1  0.5844670000000  0.4194840000000  0.4951350000000 1.0
C      1  0.4517680000000  0.5332570000000  0.4008410000000 1.0
C      1  0.5804540000000  0.5133680000000  0.5283740000000 1.0
C      1  0.4044480000000  0.5341380000000  0.5584530000000 1.0
C      1  0.5341720000000  0.5192630000000  0.5312950000000 1.0
C      1  0.3804400000000  0.4916150000000  0.5416670000000 1.0
C      1  0.5598670000000  0.4870930000000  0.4101700000000 1.0
C      1  0.4565720000000  0.6051710000000  0.4581840000000 1.0
C      1  0.5104420000000  0.5058050000000  0.5753450000000 1.0
C      1  0.4359860000000  0.4204710000000  0.5892530000000 1.0
C      1  0.4010490000000  0.4848990000000  0.4491570000000 1.0
C      1  0.5721800000000  0.5149510000000  0.4996500000000 1.0
C      1  0.4984650000000  0.4082690000000  0.5716560000000 1.0
C      1  0.5611450000000  0.4074350000000  0.4514320000000 1.0
C      1  0.4698440000000  0.6166220000000  0.5045060000000 1.0
C      1  0.4385200000000  0.4752810000000  0.4116240000000 1.0
C      1  0.4237680000000  0.4364150000000  0.5695470000000 1.0
C      1  0.5168920000000  0.4889090000000  0.4658640000000 1.0
C      1  0.4356810000000  0.6043010000000  0.5512750000000 1.0
C      1  0.4294810000000  0.5374340000000  0.5435480000000 1.0
C      1  0.5456570000000  0.4003090000000  0.5483630000000 1.0
C      1  0.4176870000000  0.4958980000000  0.4934130000000 1.0
C      1  0.4207200000000  0.5799130000000  0.4391740000000 1.0
C      1  0.5546630000000  0.4747250000000  0.5857230000000 1.0
C      1  0.5561930000000  0.4589470000000  0.4021070000000 1.0
C      1  0.5629160000000  0.4925800000000  0.4838280000000 1.0
C      1  0.3952630000000  0.5062880000000  0.5621590000000 1.0
C      1  0.5682010000000  0.5825580000000  0.3791930000000 1.0
C      1  0.4851850000000  0.5050120000000  0.5237910000000 1.0
C      1  0.5144580000000  0.4064730000000  0.4307240000000 1.0
C      1  0.5035380000000  0.5259090000000  0.5318190000000 1.0
C      1  0.4529920000000  0.4742300000000  0.5641830000000 1.0
C      1  0.3958730000000  0.4708800000000  0.5287160000000 1.0
C      1  0.5796580000000  0.4612920000000  0.5960890000000 1.0
C      1  0.6391210000000  0.5609740000000  0.4640440000000 1.0
C      1  0.5516860000000  0.4575110000000  0.4523840000000 1.0
C      1  0.5217440000000  0.5013180000000  0.6219330000000 1.0
C      1  0.4610920000000  0.4242290000000  0.5987820000000 1.0
C      1  0.4567820000000  0.4481860000000  0.4667810000000 1.0
C      1  0.4219000000000  0.4837070000000  0.4685580000000 1.0
C      1  0.4994710000000  0.3962130000000  0.4745740000000 1.0
C      1  0.5299180000000  0.5685570000000  0.5368090000000 1.0
C      1  0.5055060000000  0.4670980000000  0.4796670000000 1.0
C      1  0.4626020000000  0.4064620000000  0.4402780000000 1.0
C      1  0.5377940000000  0.5384450000000  0.4559090000000 1.0
C      1  0.4999670000000  0.5208210000000  0.6174370000000 1.0
C      1  0.4643030000000  0.4904950000000  0.4143650000000 1.0
C      1  0.5258680000000  0.3824540000000  0.4719030000000 1.0
C      1  0.5715140000000  0.4141610000000  0.5451400000000 1.0
C      1  0.4189200000000  0.4958540000000  0.4052930000000 1.0
C      1  0.4537960000000  0.5582150000000  0.4816690000000 1.0
C      1  0.4899530000000  0.4028930000000  0.4476700000000 1.0
C      1  0.4630380000000  0.4954660000000  0.5854920000000 1.0
C      1  0.4398360000000  0.6152550000000  0.5025630000000 1.0
C      1  0.4082720000000  0.4869870000000  0.5794110000000 1.0
C      1  0.4951760000000  0.4800940000000  0.5260990000000 1.0
C      1  0.5090350000000  0.5348980000000  0.4525470000000 1.0
C      1  0.3980430000000  0.5315440000000  0.4307960000000 1.0
C      1  0.5144190000000  0.4250120000000  0.4086410000000 1.0
C      1  0.5842090000000  0.5875480000000  0.5353720000000 1.0
C      1  0.4852430000000  0.4740110000000  0.4039100000000 1.0
C      1  0.5132980000000  0.4754620000000  0.4033310000000 1.0
C      1  0.5492970000000  0.4470870000000  0.4786970000000 1.0
C      1  0.5612130000000  0.4537780000000  0.5198890000000 1.0
C      1  0.5633310000000  0.4339500000000  0.4395870000000 1.0
C      1  0.5722460000000  0.4277440000000  0.5200030000000 1.0
C      1  0.5094790000000  0.4483630000000  0.5975470000000 1.0
C      1  0.5456980000000  0.3861190000000  0.4944200000000 1.0
C      1  0.6066300000000  0.4378510000000  0.4882090000000 1.0
C      1  0.5686110000000  0.4011980000000  0.4799580000000 1.0
C      1  0.5577030000000  0.5634290000000  0.3934380000000 1.0
C      1  0.5443400000000  0.6146320000000  0.4774160000000 1.0
C      1  0.4110960000000  0.5956650000000  0.4615410000000 1.0
C      1  0.4867060000000  0.4508160000000  0.4667690000000 1.0
C      1  0.4794980000000  0.3803990000000  0.5252880000000 1.0
C      1  0.3791990000000  0.4676530000000  0.4511070000000 1.0
C      1  0.4262330000000  0.5798530000000  0.5629520000000 1.0
C      1  0.4993980000000  0.5411840000000  0.3957320000000 1.0
C      1  0.6159830000000  0.4339640000000  0.5397410000000 1.0
C      1  0.5170690000000  0.5562580000000  0.5643810000000 1.0
C      1  0.4471890000000  0.3849700000000  0.4331750000000 1.0
C      1  0.6212300000000  0.4405010000000  0.5134800000000 1.0
C      1  0.5565190000000  0.5041280000000  0.5433780000000 1.0
C      1  0.4497620000000  0.4774440000000  0.4652550000000 1.0
C      1  0.4648980000000  0.5769110000000  0.4137090000000 1.0
C      1  0.4207210000000  0.4295900000000  0.5411400000000 1.0
C      1  0.4829360000000  0.6149600000000  0.5305930000000 1.0
C      1  0.4695710000000  0.5573810000000  0.5030780000000 1.0
C      1  0.5085060000000  0.4611320000000  0.5082510000000 1.0
C      1  0.4199930000000  0.4811360000000  0.5181240000000 1.0
END
