TITL C-627111-6168-609 -4.33317718567436 125000 -1026.9586662931 0 0 169 (C1) n - 1
REM
REM in /home/nfs/bkarasulu/CARBON/AIRSS/Generating-Clusters/LCBOP/Only-C1/SD-CG/FIRE-CG
REM
REM
REM
REM
REM
REM ./C.cell (11c1c37f851c82e70ff6c80c92926a4b)
REM AIRSS Version 0.9.1 bugfix July 2018 build 013d7b7c2542+ Fri, 06 Jul 2018 19:26:36 +0100
REM compiler GCC version 9.2.1 20190827 (Red Hat 9.2.1-1)
REM options -cpp -mtune=generic -march=x86-64 -g -O0 -fpre-include=/usr/include/finclude/math-vector-fortran.h
REM seed 660492424 -958815406 106398355 -334256734 801804993 478148802 -1321616315 -1447996863 255174148 -105210423 -397814742 1513341339 -1120194061 196622951 -341378817 -341528681 1388385306 245637024 -1966775940 1485201701 -1471065621 -238843314 -2138929388 769486657 -1748584449 2136991753 -2008444509 -593052197 -641530066 -1521201133 848946095 988785965 -800099946
REM
CELL 1.54180   50.00000   50.00000   50.00000   90.00000   90.00000   90.00000
LATT -1
SFAC C  
C      1  0.5627830000000  0.4290110000000  0.4245520000000 1.0
C      1  0.5003640000000  0.4347810000000  0.3819910000000 1.0
C      1  0.5470340000000  0.5908520000000  0.4107930000000 1.0
C      1  0.5538740000000  0.5463720000000  0.5308230000000 1.0
C      1  0.6052740000000  0.4917650000000  0.4721570000000 1.0
C      1  0.5623340000000  0.4973090000000  0.5069930000000 1.0
C      1  0.4662730000000  0.4281610000000  0.4995830000000 1.0
C      1  0.5453960000000  0.4483760000000  0.4803280000000 1.0
C      1  0.5053150000000  0.5633140000000  0.4487290000000 1.0
C      1  0.4938170000000  0.4952140000000  0.5037360000000 1.0
C      1  0.4835930000000  0.6200510000000  0.4449700000000 1.0
C      1  0.4023810000000  0.5485090000000  0.5112590000000 1.0
C      1  0.4666690000000  0.5153980000000  0.5379940000000 1.0
C      1  0.5263680000000  0.4886860000000  0.4389300000000 1.0
C      1  0.4817890000000  0.6183590000000  0.4941820000000 1.0
C      1  0.4306560000000  0.5382920000000  0.4553410000000 1.0
C      1  0.5408830000000  0.5020360000000  0.4885470000000 1.0
C      1  0.4496130000000  0.4457980000000  0.3831410000000 1.0
C      1  0.6010380000000  0.4540890000000  0.5061900000000 1.0
C      1  0.5290830000000  0.4498620000000  0.5280180000000 1.0
C      1  0.4627050000000  0.5688550000000  0.3414890000000 1.0
C      1  0.4475430000000  0.5342530000000  0.5250780000000 1.0
C      1  0.5049980000000  0.5698170000000  0.5931910000000 1.0
C      1  0.5214830000000  0.4281580000000  0.3967590000000 1.0
C      1  0.3826540000000  0.4126360000000  0.4832160000000 1.0
C      1  0.4631660000000  0.3805530000000  0.5134080000000 1.0
C      1  0.5360000000000  0.4201520000000  0.4192380000000 1.0
C      1  0.4533210000000  0.5417230000000  0.4972670000000 1.0
C      1  0.4141610000000  0.5611410000000  0.4629380000000 1.0
C      1  0.5511180000000  0.4632950000000  0.5418020000000 1.0
C      1  0.5953980000000  0.4919860000000  0.4450880000000 1.0
C      1  0.4892390000000  0.6059850000000  0.4691120000000 1.0
C      1  0.5330890000000  0.4530870000000  0.5907220000000 1.0
C      1  0.4339940000000  0.4354000000000  0.5657520000000 1.0
C      1  0.5706260000000  0.3970920000000  0.4566890000000 1.0
C      1  0.5444780000000  0.4666410000000  0.6128980000000 1.0
C      1  0.4489260000000  0.5659470000000  0.4205030000000 1.0
C      1  0.5246130000000  0.4019920000000  0.4381940000000 1.0
C      1  0.5458170000000  0.5149110000000  0.3849430000000 1.0
C      1  0.4328330000000  0.4598270000000  0.5117660000000 1.0
C      1  0.5259470000000  0.5176060000000  0.4291780000000 1.0
C      1  0.4822220000000  0.5218100000000  0.4685360000000 1.0
C      1  0.5750760000000  0.3927020000000  0.5251510000000 1.0
C      1  0.5483310000000  0.4312260000000  0.5798940000000 1.0
C      1  0.4600840000000  0.4670830000000  0.4534090000000 1.0
C      1  0.5856770000000  0.5682940000000  0.4953020000000 1.0
C      1  0.4887500000000  0.5765410000000  0.4685910000000 1.0
C      1  0.4977050000000  0.4231790000000  0.5599050000000 1.0
C      1  0.4353000000000  0.4787160000000  0.4595880000000 1.0
C      1  0.5616560000000  0.5908840000000  0.5368810000000 1.0
C      1  0.4181900000000  0.4711850000000  0.4143920000000 1.0
C      1  0.5801520000000  0.5331220000000  0.5311210000000 1.0
C      1  0.4501680000000  0.3926110000000  0.5340400000000 1.0
C      1  0.4869720000000  0.5044680000000  0.6239860000000 1.0
C      1  0.5356550000000  0.5084250000000  0.5431090000000 1.0
C      1  0.4887180000000  0.4301970000000  0.5135350000000 1.0
C      1  0.5319660000000  0.5153580000000  0.5700490000000 1.0
C      1  0.5018410000000  0.6302370000000  0.5097480000000 1.0
C      1  0.5059380000000  0.5530520000000  0.6163860000000 1.0
C      1  0.5501580000000  0.4929870000000  0.6132130000000 1.0
C      1  0.5439810000000  0.3869940000000  0.4551630000000 1.0
C      1  0.5054790000000  0.4359860000000  0.5355050000000 1.0
C      1  0.4406380000000  0.4111750000000  0.5514360000000 1.0
C      1  0.5894710000000  0.5337660000000  0.5586720000000 1.0
C      1  0.4734410000000  0.4836420000000  0.6135680000000 1.0
C      1  0.5602120000000  0.4271510000000  0.4957670000000 1.0
C      1  0.4061530000000  0.5122180000000  0.5426740000000 1.0
C      1  0.4349990000000  0.5514020000000  0.5831340000000 1.0
C      1  0.5722240000000  0.4767650000000  0.4418770000000 1.0
C      1  0.5665380000000  0.5445770000000  0.4168140000000 1.0
C      1  0.4147420000000  0.5848460000000  0.5566610000000 1.0
C      1  0.4546230000000  0.5726310000000  0.5754530000000 1.0
C      1  0.5512810000000  0.4892860000000  0.5314610000000 1.0
C      1  0.5247620000000  0.6271820000000  0.5231040000000 1.0
C      1  0.6091710000000  0.5967060000000  0.5268330000000 1.0
C      1  0.4813860000000  0.4633100000000  0.4385090000000 1.0
C      1  0.4321380000000  0.4958660000000  0.5937830000000 1.0
C      1  0.4750390000000  0.4410820000000  0.3767100000000 1.0
C      1  0.5468040000000  0.4715880000000  0.4523910000000 1.0
C      1  0.5812630000000  0.4174320000000  0.5388760000000 1.0
C      1  0.5747490000000  0.5559440000000  0.5711710000000 1.0
C      1  0.5678950000000  0.4209030000000  0.5639680000000 1.0
C      1  0.4083790000000  0.4461990000000  0.5630200000000 1.0
C      1  0.5911710000000  0.4829950000000  0.5689700000000 1.0
C      1  0.6049880000000  0.4626320000000  0.4794630000000 1.0
C      1  0.5266670000000  0.3706120000000  0.4716700000000 1.0
C      1  0.4429660000000  0.5896900000000  0.4360490000000 1.0
C      1  0.5845010000000  0.5144690000000  0.5101430000000 1.0
C      1  0.5084450000000  0.5400260000000  0.5115440000000 1.0
C      1  0.4791350000000  0.5793940000000  0.5872230000000 1.0
C      1  0.5453680000000  0.6134220000000  0.5329420000000 1.0
C      1  0.4409360000000  0.4361050000000  0.5023780000000 1.0
C      1  0.5041560000000  0.4737290000000  0.4304820000000 1.0
C      1  0.4868350000000  0.5146350000000  0.5593890000000 1.0
C      1  0.5515470000000  0.5668350000000  0.5534570000000 1.0
C      1  0.5089660000000  0.5331070000000  0.5674670000000 1.0
C      1  0.5974260000000  0.5091840000000  0.5697300000000 1.0
C      1  0.4430750000000  0.5896300000000  0.5534360000000 1.0
C      1  0.4451300000000  0.4843050000000  0.5062820000000 1.0
C      1  0.3724880000000  0.4006090000000  0.5039910000000 1.0
C      1  0.4976240000000  0.5290830000000  0.6255130000000 1.0
C      1  0.4100100000000  0.5634320000000  0.5737380000000 1.0
C      1  0.4985310000000  0.3787140000000  0.4712990000000 1.0
C      1  0.4186590000000  0.5331260000000  0.5289550000000 1.0
C      1  0.5613610000000  0.5720030000000  0.4249730000000 1.0
C      1  0.6019410000000  0.5464160000000  0.4795210000000 1.0
C      1  0.4300450000000  0.4473930000000  0.4028010000000 1.0
C      1  0.5451700000000  0.5110700000000  0.5940790000000 1.0
C      1  0.5804660000000  0.4224450000000  0.4464910000000 1.0
C      1  0.3876660000000  0.4628890000000  0.5543250000000 1.0
C      1  0.4365470000000  0.4964470000000  0.4817450000000 1.0
C      1  0.4594590000000  0.6122370000000  0.4326190000000 1.0
C      1  0.4973920000000  0.3958030000000  0.4471550000000 1.0
C      1  0.4517320000000  0.5416470000000  0.4355070000000 1.0
C      1  0.4569190000000  0.6070550000000  0.5049650000000 1.0
C      1  0.3981600000000  0.5573240000000  0.4861120000000 1.0
C      1  0.4791230000000  0.3762830000000  0.4918320000000 1.0
C      1  0.4570350000000  0.5677250000000  0.3669090000000 1.0
C      1  0.4851120000000  0.5828070000000  0.5331460000000 1.0
C      1  0.4730570000000  0.4015400000000  0.4347810000000 1.0
C      1  0.5163240000000  0.3828550000000  0.5391300000000 1.0
C      1  0.5271620000000  0.4583650000000  0.4999630000000 1.0
C      1  0.5852340000000  0.5849790000000  0.5194180000000 1.0
C      1  0.6014570000000  0.5176370000000  0.4873870000000 1.0
C      1  0.6027160000000  0.5118200000000  0.4271540000000 1.0
C      1  0.5406890000000  0.5269730000000  0.4758630000000 1.0
C      1  0.5183400000000  0.4843500000000  0.4949360000000 1.0
C      1  0.4276610000000  0.4272800000000  0.4241520000000 1.0
C      1  0.3372460000000  0.4441360000000  0.5501040000000 1.0
C      1  0.4528800000000  0.4754090000000  0.5953470000000 1.0
C      1  0.4070040000000  0.4892680000000  0.6029240000000 1.0
C      1  0.5340250000000  0.6058370000000  0.3939010000000 1.0
C      1  0.4651180000000  0.5657600000000  0.4848700000000 1.0
C      1  0.5292370000000  0.3884930000000  0.5162120000000 1.0
C      1  0.5202530000000  0.5602640000000  0.5706100000000 1.0
C      1  0.4600780000000  0.5960680000000  0.5316900000000 1.0
C      1  0.4948240000000  0.5223210000000  0.4935940000000 1.0
C      1  0.5738370000000  0.4645040000000  0.5596360000000 1.0
C      1  0.4457200000000  0.5888630000000  0.4853970000000 1.0
C      1  0.3934720000000  0.4894670000000  0.5477170000000 1.0
C      1  0.4390010000000  0.5242090000000  0.4784850000000 1.0
C      1  0.4695470000000  0.4929470000000  0.5187680000000 1.0
C      1  0.4995030000000  0.5649930000000  0.5198400000000 1.0
C      1  0.4295530000000  0.5855590000000  0.4615290000000 1.0
C      1  0.4797030000000  0.4357850000000  0.5776840000000 1.0
C      1  0.4481370000000  0.4087710000000  0.4286900000000 1.0
C      1  0.5120690000000  0.4683570000000  0.5777200000000 1.0
C      1  0.4376040000000  0.5238130000000  0.5892230000000 1.0
C      1  0.5640060000000  0.5730440000000  0.4757090000000 1.0
C      1  0.5982280000000  0.4413330000000  0.4597300000000 1.0
C      1  0.5309780000000  0.5308860000000  0.5258120000000 1.0
C      1  0.3951990000000  0.4250920000000  0.4634790000000 1.0
C      1  0.5437760000000  0.5535680000000  0.4767950000000 1.0
C      1  0.5759660000000  0.5753320000000  0.4495260000000 1.0
C      1  0.4997440000000  0.6396480000000  0.4351530000000 1.0
C      1  0.5463700000000  0.5256960000000  0.4101850000000 1.0
C      1  0.4146350000000  0.4680170000000  0.4433250000000 1.0
C      1  0.4517880000000  0.5666740000000  0.3928540000000 1.0
C      1  0.4113060000000  0.4386080000000  0.4455380000000 1.0
C      1  0.5817690000000  0.4359120000000  0.5155730000000 1.0
C      1  0.5048250000000  0.3958240000000  0.5598370000000 1.0
C      1  0.4949520000000  0.4873160000000  0.5679140000000 1.0
C      1  0.5533140000000  0.3995400000000  0.5067480000000 1.0
C      1  0.5978820000000  0.5544940000000  0.4511470000000 1.0
C      1  0.4774650000000  0.5291060000000  0.4414910000000 1.0
C      1  0.3616040000000  0.4531610000000  0.5522050000000 1.0
C      1  0.4547150000000  0.4494740000000  0.5805680000000 1.0
C      1  0.5043890000000  0.5378910000000  0.4341950000000 1.0
C      1  0.5923110000000  0.5374670000000  0.4283150000000 1.0
END
