TITL C-627110-360-2137 0.154818090501645 125000 -111.301395132395 0 0 21 (C1) n - 1
REM
REM in /home/nfs/bkarasulu/CARBON/AIRSS/Generating-Clusters/LCBOP/Only-C1/SD-CG/FIRE-CG
REM
REM
REM
REM
REM
REM ./C.cell (11c1c37f851c82e70ff6c80c92926a4b)
REM AIRSS Version 0.9.1 bugfix July 2018 build 013d7b7c2542+ Fri, 06 Jul 2018 19:26:36 +0100
REM compiler GCC version 9.2.1 20190827 (Red Hat 9.2.1-1)
REM options -cpp -mtune=generic -march=x86-64 -g -O0 -fpre-include=/usr/include/finclude/math-vector-fortran.h
REM seed 1470349500 1428860779 -2056773533 1678043623 -1928143167 -1296011421 825801085 1595976071 259190859 -385832197 1258561407 482831912 -1387323676 -651832949 280624652 169564491 -1353017107 1660024576 962747678 1457793609 -1013992466 1372951061 -1784475774 64772897 608125852 1889756447 -775833795 -2078355550 -397192140 1904151568 -1986288140 1953241468 -1748548917
REM
CELL 1.54180   50.00000   50.00000   50.00000   90.00000   90.00000   90.00000
LATT -1
SFAC C  
C      1  0.5026340000000  0.4464120000000  0.5075460000000 1.0
C      1  0.5455720000000  0.5355700000000  0.5311530000000 1.0
C      1  0.5158910000000  0.4291920000000  0.4866890000000 1.0
C      1  0.5141220000000  0.4406660000000  0.5356170000000 1.0
C      1  0.5273240000000  0.4643170000000  0.5449450000000 1.0
C      1  0.4697080000000  0.5574950000000  0.4730440000000 1.0
C      1  0.4534530000000  0.4602590000000  0.4986410000000 1.0
C      1  0.4544010000000  0.4849920000000  0.4883150000000 1.0
C      1  0.5117570000000  0.4170380000000  0.5486980000000 1.0
C      1  0.4470740000000  0.5699630000000  0.4640960000000 1.0
C      1  0.5187210000000  0.4980160000000  0.4611890000000 1.0
C      1  0.4730450000000  0.4437830000000  0.5067760000000 1.0
C      1  0.4928080000000  0.5722650000000  0.4785360000000 1.0
C      1  0.5155630000000  0.5845940000000  0.4842090000000 1.0
C      1  0.5380980000000  0.5964080000000  0.4898840000000 1.0
C      1  0.5105380000000  0.4765060000000  0.5036700000000 1.0
C      1  0.5018360000000  0.4926550000000  0.4820640000000 1.0
C      1  0.5364950000000  0.5111910000000  0.5295990000000 1.0
C      1  0.4700770000000  0.5298100000000  0.4768290000000 1.0
C      1  0.4751250000000  0.5029400000000  0.4820390000000 1.0
C      1  0.5257580000000  0.4859280000000  0.5264590000000 1.0
END
