TITL C-627111-6168-1942 -1.48264575365053e-06 125000 -639.405539175549 0 0 104 (C1) n - 1
REM
REM in /home/nfs/bkarasulu/CARBON/AIRSS/Generating-Clusters/LCBOP/Only-C1/SD-CG/FIRE-CG
REM
REM
REM
REM
REM
REM ./C.cell (11c1c37f851c82e70ff6c80c92926a4b)
REM AIRSS Version 0.9.1 bugfix July 2018 build 013d7b7c2542+ Fri, 06 Jul 2018 19:26:36 +0100
REM compiler GCC version 9.2.1 20190827 (Red Hat 9.2.1-1)
REM options -cpp -mtune=generic -march=x86-64 -g -O0 -fpre-include=/usr/include/finclude/math-vector-fortran.h
REM seed 525997665 -774015721 -771216463 -1717508764 -840510423 545772919 373690025 1437221391 -1631809434 1979559578 -2045528960 -247109930 -1210676374 -1925718194 1098330868 -1845439999 1374692647 -1857424282 1038994058 -178669787 435257253 605437651 -52874643 -67390804 -151404730 752130336 1770033356 126071174 1080747454 -1340999857 -828686193 235654881 45522318
REM
CELL 1.54180   50.00000   50.00000   50.00000   90.00000   90.00000   90.00000
LATT -1
SFAC C  
C      1  0.5456740000000  0.4904720000000  0.4537240000000 1.0
C      1  0.4187960000000  0.5233170000000  0.4569390000000 1.0
C      1  0.4606070000000  0.4191000000000  0.4981920000000 1.0
C      1  0.4458780000000  0.4500090000000  0.4638850000000 1.0
C      1  0.4701660000000  0.4356780000000  0.4550500000000 1.0
C      1  0.4965000000000  0.4893580000000  0.4475620000000 1.0
C      1  0.5047460000000  0.4521540000000  0.4207170000000 1.0
C      1  0.4705670000000  0.4269510000000  0.5811170000000 1.0
C      1  0.4788310000000  0.5385540000000  0.4515570000000 1.0
C      1  0.4736130000000  0.4577430000000  0.5395870000000 1.0
C      1  0.5004560000000  0.5530790000000  0.4624100000000 1.0
C      1  0.4940430000000  0.5806490000000  0.4602770000000 1.0
C      1  0.4403110000000  0.4398500000000  0.4916000000000 1.0
C      1  0.4399970000000  0.5364760000000  0.5357540000000 1.0
C      1  0.5019700000000  0.4409600000000  0.4929880000000 1.0
C      1  0.4283600000000  0.5314530000000  0.4303870000000 1.0
C      1  0.5906050000000  0.5556790000000  0.4986160000000 1.0
C      1  0.5196740000000  0.5038980000000  0.4555350000000 1.0
C      1  0.5417910000000  0.5013750000000  0.5041320000000 1.0
C      1  0.4988030000000  0.4799440000000  0.4204530000000 1.0
C      1  0.4819100000000  0.4267520000000  0.4798000000000 1.0
C      1  0.5512180000000  0.5729480000000  0.5193360000000 1.0
C      1  0.5107720000000  0.4639330000000  0.5065020000000 1.0
C      1  0.5299950000000  0.5086820000000  0.5494650000000 1.0
C      1  0.5166830000000  0.4072060000000  0.5434920000000 1.0
C      1  0.4461690000000  0.4619280000000  0.5358580000000 1.0
C      1  0.4035530000000  0.4861320000000  0.4858070000000 1.0
C      1  0.5107510000000  0.4877760000000  0.5531630000000 1.0
C      1  0.5489590000000  0.4472470000000  0.5619410000000 1.0
C      1  0.4707680000000  0.5895710000000  0.4488840000000 1.0
C      1  0.5849710000000  0.5483160000000  0.5475310000000 1.0
C      1  0.4332040000000  0.5597150000000  0.4278800000000 1.0
C      1  0.4568800000000  0.5183240000000  0.5159280000000 1.0
C      1  0.5364510000000  0.5367590000000  0.4194320000000 1.0
C      1  0.5483490000000  0.4368610000000  0.4056390000000 1.0
C      1  0.5316410000000  0.4436200000000  0.4263050000000 1.0
C      1  0.5340260000000  0.4753470000000  0.4947610000000 1.0
C      1  0.4320750000000  0.4798410000000  0.5540880000000 1.0
C      1  0.5395650000000  0.5521140000000  0.5044960000000 1.0
C      1  0.5782580000000  0.5628150000000  0.5236550000000 1.0
C      1  0.4765910000000  0.5406460000000  0.4236750000000 1.0
C      1  0.4126440000000  0.4930600000000  0.5362330000000 1.0
C      1  0.4964870000000  0.5034660000000  0.4035750000000 1.0
C      1  0.5342940000000  0.4240170000000  0.5550230000000 1.0
C      1  0.4651270000000  0.5421470000000  0.5851750000000 1.0
C      1  0.5448080000000  0.5417610000000  0.4471170000000 1.0
C      1  0.4495790000000  0.5387830000000  0.5638320000000 1.0
C      1  0.5223100000000  0.5326800000000  0.4662930000000 1.0
C      1  0.5338390000000  0.5953710000000  0.5216950000000 1.0
C      1  0.5777820000000  0.4997480000000  0.5686240000000 1.0
C      1  0.4703040000000  0.4027450000000  0.5189990000000 1.0
C      1  0.4106380000000  0.4774680000000  0.5114030000000 1.0
C      1  0.5026840000000  0.5257860000000  0.5146740000000 1.0
C      1  0.4675710000000  0.5188160000000  0.4679000000000 1.0
C      1  0.4631910000000  0.4710860000000  0.5965680000000 1.0
C      1  0.4429850000000  0.4828010000000  0.5800040000000 1.0
C      1  0.4938180000000  0.4779510000000  0.5292720000000 1.0
C      1  0.6189690000000  0.5058800000000  0.4548500000000 1.0
C      1  0.4899340000000  0.5443210000000  0.5947840000000 1.0
C      1  0.4825340000000  0.5055230000000  0.5189870000000 1.0
C      1  0.5133860000000  0.4760760000000  0.5792220000000 1.0
C      1  0.4436140000000  0.5108440000000  0.4142950000000 1.0
C      1  0.4482670000000  0.5805740000000  0.4366070000000 1.0
C      1  0.5552500000000  0.3958240000000  0.4766860000000 1.0
C      1  0.5154370000000  0.5408620000000  0.5875810000000 1.0
C      1  0.5703310000000  0.5324480000000  0.4567220000000 1.0
C      1  0.4273210000000  0.5391980000000  0.4802500000000 1.0
C      1  0.5856850000000  0.5269450000000  0.5644430000000 1.0
C      1  0.4706400000000  0.4925860000000  0.4588550000000 1.0
C      1  0.5693410000000  0.4577260000000  0.5441400000000 1.0
C      1  0.4712060000000  0.5181400000000  0.4071440000000 1.0
C      1  0.4937510000000  0.3986820000000  0.5320410000000 1.0
C      1  0.5921330000000  0.5423590000000  0.4734990000000 1.0
C      1  0.5710730000000  0.4863920000000  0.5434350000000 1.0
C      1  0.5965320000000  0.4924470000000  0.4474040000000 1.0
C      1  0.4428300000000  0.4780760000000  0.4528730000000 1.0
C      1  0.5202010000000  0.5208410000000  0.4039550000000 1.0
C      1  0.5085390000000  0.6043470000000  0.5166500000000 1.0
C      1  0.4507180000000  0.5246140000000  0.4889650000000 1.0
C      1  0.5413220000000  0.4425330000000  0.4536110000000 1.0
C      1  0.4794020000000  0.4367050000000  0.5575200000000 1.0
C      1  0.4812940000000  0.6010030000000  0.5147720000000 1.0
C      1  0.5857010000000  0.4417030000000  0.5292960000000 1.0
C      1  0.4647190000000  0.5799720000000  0.5257110000000 1.0
C      1  0.6172310000000  0.5302630000000  0.4667990000000 1.0
C      1  0.5300720000000  0.5293820000000  0.5683930000000 1.0
C      1  0.4308500000000  0.4565890000000  0.5122350000000 1.0
C      1  0.5619130000000  0.4860160000000  0.5889590000000 1.0
C      1  0.5505070000000  0.5014590000000  0.5309350000000 1.0
C      1  0.5407120000000  0.4666280000000  0.5825260000000 1.0
C      1  0.5268400000000  0.5268970000000  0.4960780000000 1.0
C      1  0.4604320000000  0.4429700000000  0.6005460000000 1.0
C      1  0.5492150000000  0.4180690000000  0.4645260000000 1.0
C      1  0.4906330000000  0.4789540000000  0.5957610000000 1.0
C      1  0.5004140000000  0.5471570000000  0.5328420000000 1.0
C      1  0.4405130000000  0.5642100000000  0.5206420000000 1.0
C      1  0.4836940000000  0.4360630000000  0.4306930000000 1.0
C      1  0.4834290000000  0.5655550000000  0.5417090000000 1.0
C      1  0.5707630000000  0.5034910000000  0.4509810000000 1.0
C      1  0.4136540000000  0.5213870000000  0.5360450000000 1.0
C      1  0.4398680000000  0.4836320000000  0.4229090000000 1.0
C      1  0.4248720000000  0.5625740000000  0.4962040000000 1.0
C      1  0.4185350000000  0.4947330000000  0.4635660000000 1.0
C      1  0.5434900000000  0.4664310000000  0.4688480000000 1.0
END
