TITL C-627106-156-2048 226401.111026922 125000 -1204.11240168658 0 0 198 (C1) n - 1
REM
REM in /home/nfs/bkarasulu/CARBON/AIRSS/Generating-Clusters/LCBOP/Only-C1/SD-CG/FIRE-CG
REM
REM
REM
REM
REM
REM ./C.cell (11c1c37f851c82e70ff6c80c92926a4b)
REM AIRSS Version 0.9.1 bugfix July 2018 build 013d7b7c2542+ Fri, 06 Jul 2018 19:26:36 +0100
REM compiler GCC version 9.2.1 20190827 (Red Hat 9.2.1-1)
REM options -cpp -mtune=generic -march=x86-64 -g -O0 -fpre-include=/usr/include/finclude/math-vector-fortran.h
REM seed -1958183414 -1478747668 -354027819 79942856 -332992868 1325045897 56733368 -47472528 2004422878 346612992 -561262615 -779953086 -649195616 -90810127 -1225382462 1047634603 -1783839271 -494997791 758585991 930205867 269649318 -1682283565 -1022066632 -1722843982 1636178565 -2090822451 -1171540408 45314816 -1838498908 1659845106 455051169 1897106463 -973842909
REM
CELL 1.54180   50.00000   50.00000   50.00000   90.00000   90.00000   90.00000
LATT -1
SFAC C  
C      1  0.4295930000000  0.5245720000000  0.5066170000000 1.0
C      1  0.5382800000000  0.4077170000000  0.5373300000000 1.0
C      1  0.4697710000000  0.5115490000000  0.4240830000000 1.0
C      1  0.5465520000000  0.5715850000000  0.4906830000000 1.0
C      1  0.6141930000000  0.5225710000000  0.5534970000000 1.0
C      1  0.4657240000000  0.4485580000000  0.5480330000000 1.0
C      1  0.4247340000000  0.4106960000000  0.4700110000000 1.0
C      1  0.5250010000000  0.5494110000000  0.6182270000000 1.0
C      1  0.5237410000000  0.5118840000000  0.4192200000000 1.0
C      1  0.6034570000000  0.4915730000000  0.5059940000000 1.0
C      1  0.4871770000000  0.4715410000000  0.6030820000000 1.0
C      1  0.6163850000000  0.4499940000000  0.4864420000000 1.0
C      1  0.5069830000000  0.5601580000000  0.4799080000000 1.0
C      1  0.4206930000000  0.4553690000000  0.3751580000000 1.0
C      1  0.4553340000000  0.6154320000000  0.5572120000000 1.0
C      1  0.5013520000000  0.5745150000000  0.4253800000000 1.0
C      1  0.4021990000000  0.4538500000000  0.5269050000000 1.0
C      1  0.5279720000000  0.5967900000000  0.6085420000000 1.0
C      1  0.5146590000000  0.3992680000000  0.5200130000000 1.0
C      1  0.5741020000000  0.5079820000000  0.5360390000000 1.0
C      1  0.5943330000000  0.4464010000000  0.4422580000000 1.0
C      1  0.4322570000000  0.6037820000000  0.5647170000000 1.0
C      1  0.4598540000000  0.4897290000000  0.6391120000000 1.0
C      1  0.4525680000000  0.5139250000000  0.5775440000000 1.0
C      1  0.4995640000000  0.5261970000000  0.5236560000000 1.0
C      1  0.4737100000000  0.4814080000000  0.5055540000000 1.0
C      1  0.5249040000000  0.5327820000000  0.5692400000000 1.0
C      1  0.4749710000000  0.4647020000000  0.4259740000000 1.0
C      1  0.3856970000000  0.4775740000000  0.5195480000000 1.0
C      1  0.4032180000000  0.4623430000000  0.4260850000000 1.0
C      1  0.3722640000000  0.5236560000000  0.5073670000000 1.0
C      1  0.3826010000000  0.5039190000000  0.4179200000000 1.0
C      1  0.3799440000000  0.4944000000000  0.5436550000000 1.0
C      1  0.4835560000000  0.6095350000000  0.4576800000000 1.0
C      1  0.4220670000000  0.4836150000000  0.3844850000000 1.0
C      1  0.5269370000000  0.4941530000000  0.3962060000000 1.0
C      1  0.5175580000000  0.4826520000000  0.5632210000000 1.0
C      1  0.5953360000000  0.5013820000000  0.5539120000000 1.0
C      1  0.4336680000000  0.4145130000000  0.5196170000000 1.0
C      1  0.5219610000000  0.4570870000000  0.4286910000000 1.0
C      1  0.4805510000000  0.4224460000000  0.5830950000000 1.0
C      1  0.4155300000000  0.5463450000000  0.5174840000000 1.0
C      1  0.5935160000000  0.5567430000000  0.5203640000000 1.0
C      1  0.4951520000000  0.3879220000000  0.4757910000000 1.0
C      1  0.4851060000000  0.4437740000000  0.5282930000000 1.0
C      1  0.4784100000000  0.5348340000000  0.5038700000000 1.0
C      1  0.5201250000000  0.4748760000000  0.4785500000000 1.0
C      1  0.4963120000000  0.3842750000000  0.4469170000000 1.0
C      1  0.3798090000000  0.5222470000000  0.5361050000000 1.0
C      1  0.5949430000000  0.4728640000000  0.5594810000000 1.0
C      1  0.5303960000000  0.5395360000000  0.4154620000000 1.0
C      1  0.4784010000000  0.5175420000000  0.4808450000000 1.0
C      1  0.4298430000000  0.4530710000000  0.4207670000000 1.0
C      1  0.6087670000000  0.4067760000000  0.4643040000000 1.0
C      1  0.4713420000000  0.3974760000000  0.4369370000000 1.0
C      1  0.4380200000000  0.5954000000000  0.5080430000000 1.0
C      1  0.5481340000000  0.5596000000000  0.4285380000000 1.0
C      1  0.4467660000000  0.4815040000000  0.4931880000000 1.0
C      1  0.5566730000000  0.5918890000000  0.4727540000000 1.0
C      1  0.6152130000000  0.5357170000000  0.5278230000000 1.0
C      1  0.3977180000000  0.5457270000000  0.5899360000000 1.0
C      1  0.5710180000000  0.5236270000000  0.4498120000000 1.0
C      1  0.4080250000000  0.5247800000000  0.4513860000000 1.0
C      1  0.4005270000000  0.4848930000000  0.4069720000000 1.0
C      1  0.5924540000000  0.4176170000000  0.4437430000000 1.0
C      1  0.4862300000000  0.4392570000000  0.4584550000000 1.0
C      1  0.4204880000000  0.5943640000000  0.4372450000000 1.0
C      1  0.5069400000000  0.5797980000000  0.5099350000000 1.0
C      1  0.4308240000000  0.5976570000000  0.4621340000000 1.0
C      1  0.4476010000000  0.4996120000000  0.4386150000000 1.0
C      1  0.4174810000000  0.4003570000000  0.4968850000000 1.0
C      1  0.4008850000000  0.4607490000000  0.5743530000000 1.0
C      1  0.5447990000000  0.5221210000000  0.4695410000000 1.0
C      1  0.5325010000000  0.4297640000000  0.4482320000000 1.0
C      1  0.5539120000000  0.5415170000000  0.5747260000000 1.0
C      1  0.5076040000000  0.4127430000000  0.5772680000000 1.0
C      1  0.5347340000000  0.4192160000000  0.4770930000000 1.0
C      1  0.4039360000000  0.5572510000000  0.5651830000000 1.0
C      1  0.5278170000000  0.4605260000000  0.5489900000000 1.0
C      1  0.4677500000000  0.5128210000000  0.3951700000000 1.0
C      1  0.5425460000000  0.4514400000000  0.6097280000000 1.0
C      1  0.4661170000000  0.5595000000000  0.4964540000000 1.0
C      1  0.3763150000000  0.4961410000000  0.4964660000000 1.0
C      1  0.4903840000000  0.4850740000000  0.5756160000000 1.0
C      1  0.5432250000000  0.6173500000000  0.6016180000000 1.0
C      1  0.5355190000000  0.5848070000000  0.5153190000000 1.0
C      1  0.4186460000000  0.5856690000000  0.4875910000000 1.0
C      1  0.5856000000000  0.5883960000000  0.4782920000000 1.0
C      1  0.5357270000000  0.4676710000000  0.4044850000000 1.0
C      1  0.5358280000000  0.6149990000000  0.5114250000000 1.0
C      1  0.5932990000000  0.5078130000000  0.4398590000000 1.0
C      1  0.4303670000000  0.4575360000000  0.4882070000000 1.0
C      1  0.5582640000000  0.4191730000000  0.4932650000000 1.0
C      1  0.5351570000000  0.6005840000000  0.4543770000000 1.0
C      1  0.3801910000000  0.4793860000000  0.5675760000000 1.0
C      1  0.4964280000000  0.5352690000000  0.5577370000000 1.0
C      1  0.3842000000000  0.5106630000000  0.4455880000000 1.0
C      1  0.5458780000000  0.5672860000000  0.5357400000000 1.0
C      1  0.5739410000000  0.4665640000000  0.5787750000000 1.0
C      1  0.5728420000000  0.4605710000000  0.4314140000000 1.0
C      1  0.4989190000000  0.4961620000000  0.5161340000000 1.0
C      1  0.5611460000000  0.4181470000000  0.5217300000000 1.0
C      1  0.5508260000000  0.4793920000000  0.5124000000000 1.0
C      1  0.5955860000000  0.4959900000000  0.3894050000000 1.0
C      1  0.5138500000000  0.5726900000000  0.6059560000000 1.0
C      1  0.4227600000000  0.4732620000000  0.5865710000000 1.0
C      1  0.5121380000000  0.5091990000000  0.3761460000000 1.0
C      1  0.5514510000000  0.4611320000000  0.5338600000000 1.0
C      1  0.5037350000000  0.5511120000000  0.4057500000000 1.0
C      1  0.4147870000000  0.5834120000000  0.5650330000000 1.0
C      1  0.5986370000000  0.5101580000000  0.4120110000000 1.0
C      1  0.3741540000000  0.4957930000000  0.4680080000000 1.0
C      1  0.4287820000000  0.4386950000000  0.3957580000000 1.0
C      1  0.5676480000000  0.5583810000000  0.5469760000000 1.0
C      1  0.4025760000000  0.5633820000000  0.4969950000000 1.0
C      1  0.5211840000000  0.3860930000000  0.4328770000000 1.0
C      1  0.5886920000000  0.5607060000000  0.4677210000000 1.0
C      1  0.4575130000000  0.4253160000000  0.5637500000000 1.0
C      1  0.5412780000000  0.5259930000000  0.6185860000000 1.0
C      1  0.5349720000000  0.4176140000000  0.5667280000000 1.0
C      1  0.4776190000000  0.6133660000000  0.5421320000000 1.0
C      1  0.5473990000000  0.4790790000000  0.6161030000000 1.0
C      1  0.4802680000000  0.5664050000000  0.4713250000000 1.0
C      1  0.5414970000000  0.4062340000000  0.4331430000000 1.0
C      1  0.4994730000000  0.4745760000000  0.4341200000000 1.0
C      1  0.5333020000000  0.5003020000000  0.6291670000000 1.0
C      1  0.4676950000000  0.3925160000000  0.4845610000000 1.0
C      1  0.4973860000000  0.5177740000000  0.4608350000000 1.0
C      1  0.5587460000000  0.4761360000000  0.4502200000000 1.0
C      1  0.4983690000000  0.5046530000000  0.4349140000000 1.0
C      1  0.5720830000000  0.5520280000000  0.4443160000000 1.0
C      1  0.4917100000000  0.5284980000000  0.3866490000000 1.0
C      1  0.4529530000000  0.4889650000000  0.3837470000000 1.0
C      1  0.4487870000000  0.4716960000000  0.4318710000000 1.0
C      1  0.6099450000000  0.4627140000000  0.4606100000000 1.0
C      1  0.5159410000000  0.4009730000000  0.4903380000000 1.0
C      1  0.4502250000000  0.3981620000000  0.4605260000000 1.0
C      1  0.6392250000000  0.5174390000000  0.4862410000000 1.0
C      1  0.4764240000000  0.4442780000000  0.4061570000000 1.0
C      1  0.5007810000000  0.4534410000000  0.4782190000000 1.0
C      1  0.5311840000000  0.5065220000000  0.5583460000000 1.0
C      1  0.4827620000000  0.5818140000000  0.4467680000000 1.0
C      1  0.5539300000000  0.4423730000000  0.5837970000000 1.0
C      1  0.6125890000000  0.4910320000000  0.4540450000000 1.0
C      1  0.5655990000000  0.4910470000000  0.5956070000000 1.0
C      1  0.4813220000000  0.4436120000000  0.6024270000000 1.0
C      1  0.5207440000000  0.6272390000000  0.4915020000000 1.0
C      1  0.4811720000000  0.5146580000000  0.5739370000000 1.0
C      1  0.5474620000000  0.5146690000000  0.5370330000000 1.0
C      1  0.4842500000000  0.4859280000000  0.6274710000000 1.0
C      1  0.5099150000000  0.4420770000000  0.5395270000000 1.0
C      1  0.4354600000000  0.5063930000000  0.4862080000000 1.0
C      1  0.4629780000000  0.4004350000000  0.5125670000000 1.0
C      1  0.4910130000000  0.5986230000000  0.5239300000000 1.0
C      1  0.5530720000000  0.5397830000000  0.4938280000000 1.0
C      1  0.4791340000000  0.4214070000000  0.4241180000000 1.0
C      1  0.4520860000000  0.6181390000000  0.4970210000000 1.0
C      1  0.4002050000000  0.5418930000000  0.5415910000000 1.0
C      1  0.6206620000000  0.5153730000000  0.5071690000000 1.0
C      1  0.5237140000000  0.4851160000000  0.5049800000000 1.0
C      1  0.4319920000000  0.5121200000000  0.4585250000000 1.0
C      1  0.5809680000000  0.4736550000000  0.3855400000000 1.0
C      1  0.4076190000000  0.4415310000000  0.5538010000000 1.0
C      1  0.5297660000000  0.5821230000000  0.4330940000000 1.0
C      1  0.5636160000000  0.4625890000000  0.4046560000000 1.0
C      1  0.5964000000000  0.5859650000000  0.5072130000000 1.0
C      1  0.5077320000000  0.4958160000000  0.6390340000000 1.0
C      1  0.5980610000000  0.4545330000000  0.5358830000000 1.0
C      1  0.5755510000000  0.4943520000000  0.5106290000000 1.0
C      1  0.4243870000000  0.4438680000000  0.5118710000000 1.0
C      1  0.4607030000000  0.4399500000000  0.4640340000000 1.0
C      1  0.4847720000000  0.4547350000000  0.5027090000000 1.0
C      1  0.5699080000000  0.4044490000000  0.4321420000000 1.0
C      1  0.5610660000000  0.5219050000000  0.5961490000000 1.0
C      1  0.4924140000000  0.5724760000000  0.5870950000000 1.0
C      1  0.5830930000000  0.5433820000000  0.4933230000000 1.0
C      1  0.4542480000000  0.5740940000000  0.5177220000000 1.0
C      1  0.3970060000000  0.4506840000000  0.4509720000000 1.0
C      1  0.3958140000000  0.5346640000000  0.6134580000000 1.0
C      1  0.4428840000000  0.4874550000000  0.5737190000000 1.0
C      1  0.6358570000000  0.5045940000000  0.4628170000000 1.0
C      1  0.5395580000000  0.4902730000000  0.4644700000000 1.0
C      1  0.4650560000000  0.4727330000000  0.5615800000000 1.0
C      1  0.4561180000000  0.6143480000000  0.4684860000000 1.0
C      1  0.3775930000000  0.5487310000000  0.4933160000000 1.0
C      1  0.4832130000000  0.5611310000000  0.5627830000000 1.0
C      1  0.4305400000000  0.4195040000000  0.5516150000000 1.0
C      1  0.5723800000000  0.4417720000000  0.5323660000000 1.0
C      1  0.6109390000000  0.4641630000000  0.5108200000000 1.0
C      1  0.4690720000000  0.4614320000000  0.3824690000000 1.0
C      1  0.4868940000000  0.3961900000000  0.5283490000000 1.0
C      1  0.4628000000000  0.5676050000000  0.5441900000000 1.0
C      1  0.4173290000000  0.4399570000000  0.4679030000000 1.0
C      1  0.5582140000000  0.6351160000000  0.5898000000000 1.0
C      1  0.5355420000000  0.5339200000000  0.5187410000000 1.0
C      1  0.6194980000000  0.4218340000000  0.4842950000000 1.0
C      1  0.5123250000000  0.6163430000000  0.4660170000000 1.0
C      1  0.5177650000000  0.5361120000000  0.4663160000000 1.0
END
