TITL C-627113-6568-1947 41318.076832233 125000 -879.890412387486 0 0 145 (C1) n - 1
REM
REM in /home/nfs/bkarasulu/CARBON/AIRSS/Generating-Clusters/LCBOP/Only-C1/SD-CG/FIRE-CG
REM
REM
REM
REM
REM
REM ./C.cell (11c1c37f851c82e70ff6c80c92926a4b)
REM AIRSS Version 0.9.1 bugfix July 2018 build 013d7b7c2542+ Fri, 06 Jul 2018 19:26:36 +0100
REM compiler GCC version 9.2.1 20190827 (Red Hat 9.2.1-1)
REM options -cpp -mtune=generic -march=x86-64 -g -O0 -fpre-include=/usr/include/finclude/math-vector-fortran.h
REM seed 1021682164 148656257 2012043940 -253016377 -950600692 216437457 1568495333 -454278480 -211617461 665816538 -913098103 1057082517 -877355035 852699900 -326653042 2100176289 -1363150638 730915873 -1524369118 -1573040410 -2144718866 89493813 178124531 132248475 272300923 -2098531231 -1408506437 -153234812 833339695 -939792904 221514807 203529292 -1404149996
REM
CELL 1.54180   50.00000   50.00000   50.00000   90.00000   90.00000   90.00000
LATT -1
SFAC C  
C      1  0.6167840000000  0.5086340000000  0.5268880000000 1.0
C      1  0.4902270000000  0.4742750000000  0.4900800000000 1.0
C      1  0.5264820000000  0.5147960000000  0.5695880000000 1.0
C      1  0.5347110000000  0.5109030000000  0.4319710000000 1.0
C      1  0.4573120000000  0.4259150000000  0.3883090000000 1.0
C      1  0.5684600000000  0.5508620000000  0.5781700000000 1.0
C      1  0.5085800000000  0.4784090000000  0.6129030000000 1.0
C      1  0.5662740000000  0.5107270000000  0.4991880000000 1.0
C      1  0.5732110000000  0.4337210000000  0.5272680000000 1.0
C      1  0.4701630000000  0.4751970000000  0.5323700000000 1.0
C      1  0.4910010000000  0.4606680000000  0.4417020000000 1.0
C      1  0.5734130000000  0.4474940000000  0.5527550000000 1.0
C      1  0.5074000000000  0.5033780000000  0.5276530000000 1.0
C      1  0.6060960000000  0.5345690000000  0.5203840000000 1.0
C      1  0.5618230000000  0.4580710000000  0.3994390000000 1.0
C      1  0.5947230000000  0.4992790000000  0.4489510000000 1.0
C      1  0.4105540000000  0.4516720000000  0.5418710000000 1.0
C      1  0.4776480000000  0.4887520000000  0.3621190000000 1.0
C      1  0.5070300000000  0.5517460000000  0.5332640000000 1.0
C      1  0.5119710000000  0.4695660000000  0.4728900000000 1.0
C      1  0.4368760000000  0.4731250000000  0.5843500000000 1.0
C      1  0.5307420000000  0.5509020000000  0.5172780000000 1.0
C      1  0.5270800000000  0.4356660000000  0.5169120000000 1.0
C      1  0.4493790000000  0.5279490000000  0.4984580000000 1.0
C      1  0.5559370000000  0.5728240000000  0.5916880000000 1.0
C      1  0.4341250000000  0.5669980000000  0.5159680000000 1.0
C      1  0.5314410000000  0.5047710000000  0.5422360000000 1.0
C      1  0.5016710000000  0.5773360000000  0.5421810000000 1.0
C      1  0.5666500000000  0.5253700000000  0.5911890000000 1.0
C      1  0.5374850000000  0.4610650000000  0.4363180000000 1.0
C      1  0.4601070000000  0.5878660000000  0.5555160000000 1.0
C      1  0.4056650000000  0.4636030000000  0.5140140000000 1.0
C      1  0.4990650000000  0.4001940000000  0.5165310000000 1.0
C      1  0.5958650000000  0.5585890000000  0.5344120000000 1.0
C      1  0.4481900000000  0.4143860000000  0.4963450000000 1.0
C      1  0.4597160000000  0.4383640000000  0.5045970000000 1.0
C      1  0.4615270000000  0.4403220000000  0.4096170000000 1.0
C      1  0.4526040000000  0.4318960000000  0.5514160000000 1.0
C      1  0.4310540000000  0.4841420000000  0.6562370000000 1.0
C      1  0.5442050000000  0.4811380000000  0.3941960000000 1.0
C      1  0.4491810000000  0.5808350000000  0.4934500000000 1.0
C      1  0.4970220000000  0.5175560000000  0.4582990000000 1.0
C      1  0.5729480000000  0.5157550000000  0.4519510000000 1.0
C      1  0.5041800000000  0.5607370000000  0.5839570000000 1.0
C      1  0.4934740000000  0.4816870000000  0.5171710000000 1.0
C      1  0.6182190000000  0.5098620000000  0.4608680000000 1.0
C      1  0.4937700000000  0.5579790000000  0.4923680000000 1.0
C      1  0.3532520000000  0.5227150000000  0.4495710000000 1.0
C      1  0.4672430000000  0.5835370000000  0.4721000000000 1.0
C      1  0.5717080000000  0.5256200000000  0.4043610000000 1.0
C      1  0.5349700000000  0.4833550000000  0.4561170000000 1.0
C      1  0.5326250000000  0.4901200000000  0.6091450000000 1.0
C      1  0.4108470000000  0.4505980000000  0.4884060000000 1.0
C      1  0.5139590000000  0.3964650000000  0.4657400000000 1.0
C      1  0.5506760000000  0.4177490000000  0.5197330000000 1.0
C      1  0.5532910000000  0.5425090000000  0.5316630000000 1.0
C      1  0.5458780000000  0.3961860000000  0.5012690000000 1.0
C      1  0.4539340000000  0.4983430000000  0.5350380000000 1.0
C      1  0.4252540000000  0.4918970000000  0.6031940000000 1.0
C      1  0.3129630000000  0.5384820000000  0.4189960000000 1.0
C      1  0.4243690000000  0.5405020000000  0.5074770000000 1.0
C      1  0.4703050000000  0.6085340000000  0.5366790000000 1.0
C      1  0.4240630000000  0.5073450000000  0.4613630000000 1.0
C      1  0.4049850000000  0.5561040000000  0.3275620000000 1.0
C      1  0.4000900000000  0.5142420000000  0.4752190000000 1.0
C      1  0.3325930000000  0.5299860000000  0.4346520000000 1.0
C      1  0.4104650000000  0.5364670000000  0.5767980000000 1.0
C      1  0.4883490000000  0.3976710000000  0.4537510000000 1.0
C      1  0.5709920000000  0.5939540000000  0.6017770000000 1.0
C      1  0.5315260000000  0.4532360000000  0.4945570000000 1.0
C      1  0.5790270000000  0.5657620000000  0.4900830000000 1.0
C      1  0.4108010000000  0.5144420000000  0.5929060000000 1.0
C      1  0.5909520000000  0.4698490000000  0.5548310000000 1.0
C      1  0.6338960000000  0.4977430000000  0.5069930000000 1.0
C      1  0.5509960000000  0.4435390000000  0.5697430000000 1.0
C      1  0.4050220000000  0.5183780000000  0.5032270000000 1.0
C      1  0.5186120000000  0.5454170000000  0.4918990000000 1.0
C      1  0.5413620000000  0.4009000000000  0.4544630000000 1.0
C      1  0.4689450000000  0.4567830000000  0.4857610000000 1.0
C      1  0.5209290000000  0.5802420000000  0.4599570000000 1.0
C      1  0.5723730000000  0.5677200000000  0.4618200000000 1.0
C      1  0.2940760000000  0.5473020000000  0.4033390000000 1.0
C      1  0.5599240000000  0.3941470000000  0.4761730000000 1.0
C      1  0.5584320000000  0.4639550000000  0.4929960000000 1.0
C      1  0.5542070000000  0.5140360000000  0.5257750000000 1.0
C      1  0.4647030000000  0.5211110000000  0.5211920000000 1.0
C      1  0.5798400000000  0.4506050000000  0.5052600000000 1.0
C      1  0.4583310000000  0.5025760000000  0.3503680000000 1.0
C      1  0.4276780000000  0.4879500000000  0.6306780000000 1.0
C      1  0.4482720000000  0.5189150000000  0.4714530000000 1.0
C      1  0.3753200000000  0.5173290000000  0.4631940000000 1.0
C      1  0.6084410000000  0.5365210000000  0.4670710000000 1.0
C      1  0.5046640000000  0.4242370000000  0.5318370000000 1.0
C      1  0.4245970000000  0.4278300000000  0.5496720000000 1.0
C      1  0.4839280000000  0.4704540000000  0.6056990000000 1.0
C      1  0.4607870000000  0.4486380000000  0.5299840000000 1.0
C      1  0.4389600000000  0.4591530000000  0.4474310000000 1.0
C      1  0.5044810000000  0.5319570000000  0.5787930000000 1.0
C      1  0.4966420000000  0.6012160000000  0.5265350000000 1.0
C      1  0.4558590000000  0.5335860000000  0.5735020000000 1.0
C      1  0.6345310000000  0.4976320000000  0.4800320000000 1.0
C      1  0.5001730000000  0.4324530000000  0.5599090000000 1.0
C      1  0.4861310000000  0.5766620000000  0.5667830000000 1.0
C      1  0.4708050000000  0.5188540000000  0.4553420000000 1.0
C      1  0.5167140000000  0.3926740000000  0.4950860000000 1.0
C      1  0.5576690000000  0.4896330000000  0.4822590000000 1.0
C      1  0.4085460000000  0.4937220000000  0.5182460000000 1.0
C      1  0.4642060000000  0.4539770000000  0.4342400000000 1.0
C      1  0.4412050000000  0.4145370000000  0.4687270000000 1.0
C      1  0.4268450000000  0.4946350000000  0.5409570000000 1.0
C      1  0.4220280000000  0.5374390000000  0.3339500000000 1.0
C      1  0.5113870000000  0.4622750000000  0.4227490000000 1.0
C      1  0.5159330000000  0.4732220000000  0.3965700000000 1.0
C      1  0.4913190000000  0.5276810000000  0.5286910000000 1.0
C      1  0.4727900000000  0.4377670000000  0.5709340000000 1.0
C      1  0.5892430000000  0.5781760000000  0.5137870000000 1.0
C      1  0.5494520000000  0.5066000000000  0.4069870000000 1.0
C      1  0.4785550000000  0.5215020000000  0.5800860000000 1.0
C      1  0.4219150000000  0.4730730000000  0.5594040000000 1.0
C      1  0.5278380000000  0.5721100000000  0.5941750000000 1.0
C      1  0.5445430000000  0.5604740000000  0.4536570000000 1.0
C      1  0.4639280000000  0.4599410000000  0.5883860000000 1.0
C      1  0.4616830000000  0.4026070000000  0.4529910000000 1.0
C      1  0.5444420000000  0.5078750000000  0.5906660000000 1.0
C      1  0.4904400000000  0.5821420000000  0.4564740000000 1.0
C      1  0.4397670000000  0.5191390000000  0.3412370000000 1.0
C      1  0.5727710000000  0.5524020000000  0.5501040000000 1.0
C      1  0.5858700000000  0.3866660000000  0.4730610000000 1.0
C      1  0.5246790000000  0.4386080000000  0.5731270000000 1.0
C      1  0.4268490000000  0.4844130000000  0.4456440000000 1.0
C      1  0.5552780000000  0.4430450000000  0.4236040000000 1.0
C      1  0.5256200000000  0.5992260000000  0.4820380000000 1.0
C      1  0.5873980000000  0.5433290000000  0.4190350000000 1.0
C      1  0.6050170000000  0.4909660000000  0.5457560000000 1.0
C      1  0.5938430000000  0.5534300000000  0.4459330000000 1.0
C      1  0.5480590000000  0.5308190000000  0.4468760000000 1.0
C      1  0.5167700000000  0.5232290000000  0.4755250000000 1.0
C      1  0.4332780000000  0.5479300000000  0.5642500000000 1.0
C      1  0.4266810000000  0.4401020000000  0.4654350000000 1.0
C      1  0.5132050000000  0.6074580000000  0.5047230000000 1.0
C      1  0.5853820000000  0.6137910000000  0.6106400000000 1.0
C      1  0.5908390000000  0.5357210000000  0.4930260000000 1.0
C      1  0.4394350000000  0.5696100000000  0.5456330000000 1.0
C      1  0.5516650000000  0.4165240000000  0.4329610000000 1.0
C      1  0.4968390000000  0.4784680000000  0.3772130000000 1.0
END
