TITL C-627110-360-402 -1.12709266958601e-06 125000 -911.239305812934 0 0 148 (C1) n - 1
REM
REM in /home/nfs/bkarasulu/CARBON/AIRSS/Generating-Clusters/LCBOP/Only-C1/SD-CG/FIRE-CG
REM
REM
REM
REM
REM
REM ./C.cell (11c1c37f851c82e70ff6c80c92926a4b)
REM AIRSS Version 0.9.1 bugfix July 2018 build 013d7b7c2542+ Fri, 06 Jul 2018 19:26:36 +0100
REM compiler GCC version 9.2.1 20190827 (Red Hat 9.2.1-1)
REM options -cpp -mtune=generic -march=x86-64 -g -O0 -fpre-include=/usr/include/finclude/math-vector-fortran.h
REM seed 730402394 1806344440 1359277279 -1090688869 -431323332 608635607 -1073982014 -52120288 1435760723 1304810644 -1473245716 2101632192 226353172 1808448903 845980306 -1895881792 869616733 240412254 -807950764 -1327061826 2129304721 336186350 485936693 -939706037 -1033438035 -809550029 -1709332673 -842765564 -1484789869 -506836735 2055237421 -1537788722 1279480239
REM
CELL 1.54180   50.00000   50.00000   50.00000   90.00000   90.00000   90.00000
LATT -1
SFAC C  
C      1  0.3940070000000  0.5293290000000  0.5196830000000 1.0
C      1  0.4195270000000  0.4787930000000  0.4639430000000 1.0
C      1  0.5532240000000  0.4953350000000  0.5424340000000 1.0
C      1  0.5256030000000  0.5076840000000  0.3630380000000 1.0
C      1  0.5506530000000  0.5120580000000  0.5202240000000 1.0
C      1  0.5518820000000  0.4785920000000  0.4539860000000 1.0
C      1  0.5438280000000  0.5145180000000  0.4078950000000 1.0
C      1  0.4955800000000  0.5212910000000  0.5004930000000 1.0
C      1  0.5191500000000  0.5702440000000  0.5458470000000 1.0
C      1  0.3787010000000  0.4466150000000  0.5150060000000 1.0
C      1  0.6017570000000  0.4924190000000  0.5458750000000 1.0
C      1  0.5055170000000  0.3900220000000  0.4568200000000 1.0
C      1  0.5424730000000  0.4757730000000  0.4801540000000 1.0
C      1  0.5456650000000  0.4681560000000  0.5390900000000 1.0
C      1  0.5480580000000  0.4489020000000  0.5609040000000 1.0
C      1  0.5146300000000  0.4075030000000  0.5573120000000 1.0
C      1  0.5590000000000  0.4250680000000  0.5485370000000 1.0
C      1  0.4329060000000  0.5039220000000  0.4233720000000 1.0
C      1  0.4633190000000  0.4029170000000  0.5370140000000 1.0
C      1  0.5163000000000  0.5670730000000  0.5952820000000 1.0
C      1  0.4756180000000  0.4206970000000  0.4328070000000 1.0
C      1  0.4359030000000  0.5627990000000  0.4296170000000 1.0
C      1  0.5343100000000  0.5378430000000  0.4212560000000 1.0
C      1  0.4506480000000  0.4309810000000  0.4237700000000 1.0
C      1  0.4847390000000  0.4700630000000  0.6064480000000 1.0
C      1  0.5506790000000  0.5418280000000  0.5171840000000 1.0
C      1  0.4363510000000  0.4378710000000  0.5007350000000 1.0
C      1  0.5437130000000  0.5005220000000  0.4941880000000 1.0
C      1  0.4937210000000  0.4712880000000  0.4074680000000 1.0
C      1  0.5522700000000  0.5463970000000  0.4877020000000 1.0
C      1  0.4557900000000  0.3977110000000  0.4686170000000 1.0
C      1  0.6052280000000  0.5215060000000  0.5464250000000 1.0
C      1  0.5697740000000  0.5056220000000  0.4159840000000 1.0
C      1  0.5210980000000  0.5171280000000  0.3391720000000 1.0
C      1  0.3902610000000  0.4497170000000  0.4908880000000 1.0
C      1  0.4900420000000  0.4993160000000  0.5577570000000 1.0
C      1  0.6063440000000  0.5221950000000  0.4888230000000 1.0
C      1  0.4854030000000  0.5645710000000  0.5102130000000 1.0
C      1  0.4885480000000  0.4263980000000  0.5908360000000 1.0
C      1  0.5609030000000  0.4950340000000  0.5711760000000 1.0
C      1  0.5945590000000  0.5479970000000  0.5496800000000 1.0
C      1  0.5678150000000  0.5542520000000  0.5586350000000 1.0
C      1  0.4532580000000  0.5907880000000  0.4800540000000 1.0
C      1  0.5298300000000  0.4981830000000  0.3889590000000 1.0
C      1  0.5012920000000  0.4560310000000  0.5333280000000 1.0
C      1  0.5012950000000  0.4100490000000  0.5041910000000 1.0
C      1  0.5309610000000  0.4580210000000  0.5845290000000 1.0
C      1  0.5302090000000  0.4539860000000  0.4945860000000 1.0
C      1  0.5361000000000  0.4872000000000  0.5836290000000 1.0
C      1  0.5071050000000  0.5431120000000  0.4282460000000 1.0
C      1  0.4533100000000  0.5290410000000  0.5157720000000 1.0
C      1  0.5054380000000  0.5515560000000  0.4572240000000 1.0
C      1  0.5019460000000  0.4300600000000  0.5443220000000 1.0
C      1  0.5374510000000  0.4497790000000  0.4016880000000 1.0
C      1  0.4713170000000  0.6184750000000  0.5450900000000 1.0
C      1  0.4368160000000  0.4943820000000  0.5457360000000 1.0
C      1  0.5041900000000  0.5814160000000  0.4536930000000 1.0
C      1  0.4175900000000  0.4551560000000  0.4832790000000 1.0
C      1  0.4398110000000  0.4466590000000  0.5323440000000 1.0
C      1  0.4575030000000  0.5572220000000  0.5852080000000 1.0
C      1  0.4837650000000  0.4808190000000  0.5328360000000 1.0
C      1  0.4950070000000  0.4676030000000  0.4355710000000 1.0
C      1  0.4658960000000  0.4693940000000  0.4001700000000 1.0
C      1  0.4267010000000  0.5788500000000  0.4743250000000 1.0
C      1  0.4361840000000  0.5210030000000  0.5365580000000 1.0
C      1  0.5898150000000  0.4434800000000  0.4816380000000 1.0
C      1  0.4304760000000  0.4777550000000  0.4354930000000 1.0
C      1  0.5510570000000  0.4302770000000  0.4178340000000 1.0
C      1  0.4877770000000  0.5334530000000  0.6140630000000 1.0
C      1  0.4225940000000  0.4782130000000  0.5655630000000 1.0
C      1  0.5533450000000  0.5529610000000  0.4371980000000 1.0
C      1  0.4336640000000  0.5870940000000  0.5428030000000 1.0
C      1  0.4841940000000  0.5587990000000  0.4167880000000 1.0
C      1  0.5715560000000  0.4276220000000  0.5222390000000 1.0
C      1  0.5779520000000  0.5922650000000  0.5001580000000 1.0
C      1  0.4442350000000  0.5246410000000  0.4903850000000 1.0
C      1  0.4543110000000  0.4742410000000  0.5333290000000 1.0
C      1  0.4528800000000  0.6098670000000  0.5025520000000 1.0
C      1  0.4136120000000  0.5389140000000  0.5383750000000 1.0
C      1  0.6042180000000  0.5491860000000  0.4895740000000 1.0
C      1  0.5878380000000  0.4857960000000  0.5701820000000 1.0
C      1  0.4927760000000  0.4389460000000  0.4713050000000 1.0
C      1  0.4867220000000  0.4885360000000  0.4534390000000 1.0
C      1  0.4530540000000  0.4253970000000  0.5509420000000 1.0
C      1  0.5602860000000  0.4094350000000  0.5014380000000 1.0
C      1  0.4140110000000  0.4546850000000  0.5496210000000 1.0
C      1  0.5133100000000  0.4313740000000  0.4884340000000 1.0
C      1  0.5975710000000  0.5719830000000  0.5055970000000 1.0
C      1  0.4296830000000  0.5582250000000  0.5797490000000 1.0
C      1  0.5709210000000  0.4838860000000  0.4338200000000 1.0
C      1  0.4797270000000  0.5383380000000  0.5158100000000 1.0
C      1  0.5552660000000  0.4090600000000  0.4726590000000 1.0
C      1  0.5865180000000  0.4612420000000  0.4277050000000 1.0
C      1  0.5095160000000  0.5314150000000  0.4773800000000 1.0
C      1  0.4735570000000  0.4057090000000  0.5111350000000 1.0
C      1  0.3887200000000  0.4481400000000  0.5399030000000 1.0
C      1  0.5037730000000  0.5727480000000  0.5704890000000 1.0
C      1  0.4926970000000  0.4408520000000  0.4437570000000 1.0
C      1  0.5200090000000  0.4721710000000  0.3962490000000 1.0
C      1  0.4581230000000  0.4752290000000  0.6047070000000 1.0
C      1  0.5143500000000  0.5003820000000  0.5715590000000 1.0
C      1  0.5036040000000  0.4509220000000  0.5959690000000 1.0
C      1  0.5095080000000  0.5495510000000  0.6146660000000 1.0
C      1  0.6043700000000  0.4967920000000  0.4978840000000 1.0
C      1  0.4071500000000  0.5065240000000  0.4727980000000 1.0
C      1  0.4893080000000  0.5847700000000  0.4289870000000 1.0
C      1  0.5048250000000  0.5799970000000  0.5232360000000 1.0
C      1  0.4526530000000  0.4133430000000  0.4923090000000 1.0
C      1  0.5363690000000  0.5235910000000  0.4790620000000 1.0
C      1  0.5752030000000  0.4282800000000  0.4613950000000 1.0
C      1  0.5261610000000  0.4613440000000  0.5211490000000 1.0
C      1  0.6051560000000  0.5681840000000  0.5327330000000 1.0
C      1  0.4347370000000  0.4767430000000  0.5911580000000 1.0
C      1  0.4803120000000  0.4822000000000  0.4805580000000 1.0
C      1  0.4742740000000  0.5763980000000  0.5712930000000 1.0
C      1  0.3945640000000  0.5118440000000  0.4985030000000 1.0
C      1  0.5601820000000  0.5585960000000  0.4630500000000 1.0
C      1  0.4589280000000  0.5953290000000  0.5559760000000 1.0
C      1  0.4691820000000  0.5327320000000  0.5928010000000 1.0
C      1  0.4204560000000  0.5631380000000  0.5530900000000 1.0
C      1  0.5990360000000  0.4779300000000  0.5195090000000 1.0
C      1  0.5449970000000  0.5567540000000  0.5412830000000 1.0
C      1  0.4776250000000  0.6179370000000  0.5170090000000 1.0
C      1  0.5333490000000  0.3991560000000  0.4541050000000 1.0
C      1  0.4707520000000  0.5136670000000  0.5722850000000 1.0
C      1  0.5743800000000  0.4365710000000  0.4337590000000 1.0
C      1  0.5049870000000  0.6068050000000  0.5125060000000 1.0
C      1  0.4116740000000  0.5870270000000  0.4976190000000 1.0
C      1  0.4575670000000  0.5481590000000  0.4187560000000 1.0
C      1  0.4738800000000  0.4555460000000  0.4831830000000 1.0
C      1  0.4741280000000  0.5732130000000  0.4859140000000 1.0
C      1  0.5924170000000  0.5174440000000  0.4062440000000 1.0
C      1  0.5036960000000  0.4039340000000  0.5829740000000 1.0
C      1  0.5884780000000  0.4502490000000  0.5105970000000 1.0
C      1  0.5386260000000  0.4067080000000  0.4268200000000 1.0
C      1  0.4556080000000  0.5205590000000  0.4247290000000 1.0
C      1  0.5540680000000  0.6052190000000  0.4991610000000 1.0
C      1  0.4756970000000  0.5106430000000  0.4412630000000 1.0
C      1  0.4777340000000  0.3974580000000  0.4500300000000 1.0
C      1  0.4454220000000  0.4584670000000  0.4186130000000 1.0
C      1  0.4114710000000  0.5321610000000  0.4588280000000 1.0
C      1  0.5419510000000  0.4028050000000  0.5525650000000 1.0
C      1  0.4887980000000  0.4945580000000  0.5042990000000 1.0
C      1  0.4222450000000  0.5587770000000  0.4544030000000 1.0
C      1  0.5262140000000  0.6091720000000  0.4930790000000 1.0
C      1  0.4286530000000  0.5995790000000  0.5176320000000 1.0
C      1  0.4630400000000  0.4287520000000  0.5775090000000 1.0
C      1  0.5179780000000  0.6014180000000  0.4672080000000 1.0
END
