TITL C-627111-6168-48 1.43635446352349e-06 125000 -1168.79547704915 0 0 189 (C1) n - 1
REM
REM in /home/nfs/bkarasulu/CARBON/AIRSS/Generating-Clusters/LCBOP/Only-C1/SD-CG/FIRE-CG
REM
REM
REM
REM
REM
REM ./C.cell (11c1c37f851c82e70ff6c80c92926a4b)
REM AIRSS Version 0.9.1 bugfix July 2018 build 013d7b7c2542+ Fri, 06 Jul 2018 19:26:36 +0100
REM compiler GCC version 9.2.1 20190827 (Red Hat 9.2.1-1)
REM options -cpp -mtune=generic -march=x86-64 -g -O0 -fpre-include=/usr/include/finclude/math-vector-fortran.h
REM seed 617634825 1685423711 -2105038490 1297972001 -980288998 1446452243 155660405 383376709 739347715 303281717 -60992505 -1784644826 -1575052726 846751543 1605726400 -1269919796 554859220 -247691881 281337686 1490959826 1353105354 933702978 -1893669 -2092561227 1223712879 -1417483792 -1338553012 676694749 758828371 1145658207 -1541966584 1611359548 -221772283
REM
CELL 1.54180   50.00000   50.00000   50.00000   90.00000   90.00000   90.00000
LATT -1
SFAC C  
C      1  0.3955390000000  0.4679510000000  0.5204450000000 1.0
C      1  0.6058790000000  0.5339460000000  0.5307020000000 1.0
C      1  0.5077610000000  0.3979700000000  0.4658760000000 1.0
C      1  0.5524560000000  0.4704630000000  0.5973890000000 1.0
C      1  0.5070390000000  0.5999140000000  0.4457790000000 1.0
C      1  0.4176670000000  0.4473930000000  0.5603140000000 1.0
C      1  0.4439830000000  0.5360240000000  0.4810090000000 1.0
C      1  0.4430880000000  0.5899670000000  0.4049000000000 1.0
C      1  0.4405340000000  0.5191120000000  0.5461710000000 1.0
C      1  0.5689470000000  0.4612010000000  0.5414300000000 1.0
C      1  0.5182930000000  0.4885570000000  0.4383560000000 1.0
C      1  0.4127280000000  0.5884750000000  0.5129670000000 1.0
C      1  0.4407900000000  0.4598030000000  0.3603790000000 1.0
C      1  0.3595600000000  0.5394290000000  0.5653040000000 1.0
C      1  0.6112230000000  0.5253640000000  0.4675750000000 1.0
C      1  0.5097680000000  0.4134670000000  0.4905410000000 1.0
C      1  0.5610550000000  0.5415740000000  0.6215390000000 1.0
C      1  0.5140870000000  0.4598570000000  0.5340190000000 1.0
C      1  0.5607920000000  0.5603780000000  0.6022810000000 1.0
C      1  0.5268500000000  0.4371240000000  0.4882440000000 1.0
C      1  0.5548890000000  0.5191640000000  0.4037960000000 1.0
C      1  0.4995310000000  0.4782980000000  0.4160140000000 1.0
C      1  0.4979810000000  0.5241970000000  0.6362360000000 1.0
C      1  0.5578690000000  0.5259340000000  0.5021700000000 1.0
C      1  0.4388880000000  0.5034250000000  0.5700150000000 1.0
C      1  0.6063400000000  0.5099710000000  0.5744350000000 1.0
C      1  0.5075580000000  0.6088280000000  0.4735510000000 1.0
C      1  0.3722680000000  0.5348170000000  0.5416470000000 1.0
C      1  0.4102470000000  0.4095710000000  0.4317620000000 1.0
C      1  0.5517630000000  0.5110050000000  0.5639140000000 1.0
C      1  0.4673020000000  0.4233500000000  0.5424650000000 1.0
C      1  0.5652260000000  0.5729630000000  0.4606220000000 1.0
C      1  0.4775040000000  0.3984720000000  0.4620980000000 1.0
C      1  0.4011650000000  0.5104030000000  0.4862290000000 1.0
C      1  0.6527190000000  0.4819540000000  0.3805980000000 1.0
C      1  0.6330240000000  0.4867680000000  0.3969860000000 1.0
C      1  0.4730890000000  0.5089990000000  0.5112080000000 1.0
C      1  0.5072120000000  0.5740710000000  0.6229020000000 1.0
C      1  0.5047960000000  0.6071580000000  0.5521760000000 1.0
C      1  0.4657490000000  0.5682370000000  0.5554620000000 1.0
C      1  0.5025050000000  0.6057320000000  0.5806650000000 1.0
C      1  0.4420690000000  0.4541830000000  0.5744010000000 1.0
C      1  0.4874270000000  0.4722710000000  0.5375470000000 1.0
C      1  0.6130070000000  0.4916880000000  0.4136270000000 1.0
C      1  0.5551880000000  0.5479080000000  0.4088960000000 1.0
C      1  0.3985760000000  0.5763310000000  0.4916500000000 1.0
C      1  0.5284370000000  0.6112290000000  0.4926840000000 1.0
C      1  0.6024390000000  0.4101830000000  0.5028680000000 1.0
C      1  0.4074630000000  0.5048780000000  0.4311750000000 1.0
C      1  0.4576080000000  0.5926210000000  0.5437050000000 1.0
C      1  0.4121150000000  0.3974030000000  0.4808340000000 1.0
C      1  0.3969910000000  0.4827520000000  0.4947750000000 1.0
C      1  0.5032990000000  0.4562450000000  0.6020720000000 1.0
C      1  0.4938690000000  0.4503510000000  0.4101960000000 1.0
C      1  0.4813090000000  0.4841910000000  0.5619240000000 1.0
C      1  0.4592420000000  0.4368870000000  0.5893810000000 1.0
C      1  0.4247320000000  0.5428780000000  0.4079280000000 1.0
C      1  0.4745980000000  0.5295190000000  0.4437510000000 1.0
C      1  0.4696890000000  0.5889350000000  0.4134240000000 1.0
C      1  0.4618610000000  0.5486620000000  0.6048480000000 1.0
C      1  0.4255880000000  0.4868290000000  0.4398130000000 1.0
C      1  0.6031790000000  0.4812300000000  0.5751730000000 1.0
C      1  0.4890810000000  0.5520040000000  0.4888390000000 1.0
C      1  0.5965390000000  0.5021460000000  0.4584750000000 1.0
C      1  0.5649490000000  0.4973290000000  0.4211100000000 1.0
C      1  0.5308920000000  0.4835620000000  0.5368880000000 1.0
C      1  0.4800060000000  0.6093650000000  0.5366510000000 1.0
C      1  0.3928370000000  0.5155280000000  0.5388950000000 1.0
C      1  0.4621550000000  0.4169790000000  0.4462000000000 1.0
C      1  0.5098270000000  0.5567890000000  0.4657640000000 1.0
C      1  0.5243370000000  0.5561220000000  0.5196030000000 1.0
C      1  0.5368280000000  0.3930700000000  0.4613970000000 1.0
C      1  0.4617850000000  0.5891480000000  0.4666220000000 1.0
C      1  0.4653520000000  0.5248580000000  0.5336930000000 1.0
C      1  0.5051660000000  0.5933380000000  0.6043370000000 1.0
C      1  0.5462360000000  0.5816710000000  0.5601410000000 1.0
C      1  0.4778470000000  0.6187250000000  0.5103000000000 1.0
C      1  0.4576690000000  0.5213940000000  0.6112790000000 1.0
C      1  0.5446610000000  0.5722660000000  0.4160940000000 1.0
C      1  0.4880650000000  0.4027260000000  0.5065420000000 1.0
C      1  0.5893780000000  0.5778860000000  0.5168260000000 1.0
C      1  0.5956230000000  0.5311310000000  0.5579220000000 1.0
C      1  0.4319490000000  0.4017060000000  0.5008470000000 1.0
C      1  0.4250200000000  0.4231250000000  0.5201910000000 1.0
C      1  0.3724490000000  0.3613170000000  0.4844800000000 1.0
C      1  0.5417330000000  0.4030200000000  0.5435150000000 1.0
C      1  0.5421890000000  0.3924060000000  0.5160380000000 1.0
C      1  0.5526670000000  0.4518240000000  0.4450500000000 1.0
C      1  0.6147720000000  0.4238870000000  0.5228730000000 1.0
C      1  0.4240300000000  0.5238660000000  0.4997850000000 1.0
C      1  0.3871740000000  0.4877810000000  0.5397200000000 1.0
C      1  0.5109280000000  0.5034510000000  0.3755140000000 1.0
C      1  0.4659780000000  0.5096840000000  0.3948130000000 1.0
C      1  0.5045170000000  0.5015700000000  0.3489950000000 1.0
C      1  0.5015740000000  0.5401890000000  0.4384310000000 1.0
C      1  0.5809300000000  0.4699580000000  0.5906770000000 1.0
C      1  0.4523700000000  0.4575680000000  0.5074210000000 1.0
C      1  0.6028560000000  0.5083110000000  0.5184320000000 1.0
C      1  0.5711420000000  0.4591240000000  0.5135490000000 1.0
C      1  0.5227230000000  0.5071290000000  0.5262480000000 1.0
C      1  0.5433890000000  0.4967920000000  0.6062400000000 1.0
C      1  0.5462300000000  0.5301310000000  0.4539880000000 1.0
C      1  0.4545070000000  0.5185220000000  0.4597830000000 1.0
C      1  0.5918240000000  0.4971490000000  0.4309170000000 1.0
C      1  0.4252980000000  0.5701810000000  0.4016340000000 1.0
C      1  0.5422120000000  0.6009530000000  0.5154850000000 1.0
C      1  0.5090660000000  0.4860350000000  0.4671560000000 1.0
C      1  0.4443860000000  0.5254910000000  0.3968490000000 1.0
C      1  0.6149870000000  0.4680640000000  0.5512400000000 1.0
C      1  0.6067790000000  0.5502060000000  0.4812490000000 1.0
C      1  0.4840160000000  0.4044470000000  0.5337620000000 1.0
C      1  0.5545010000000  0.5155700000000  0.6237870000000 1.0
C      1  0.4356780000000  0.5113760000000  0.5967640000000 1.0
C      1  0.5232490000000  0.4442700000000  0.5591200000000 1.0
C      1  0.4323130000000  0.5912150000000  0.4598900000000 1.0
C      1  0.4615880000000  0.5607170000000  0.4811000000000 1.0
C      1  0.4538660000000  0.4797000000000  0.5688880000000 1.0
C      1  0.4966570000000  0.5581100000000  0.5170850000000 1.0
C      1  0.4888770000000  0.5217300000000  0.4909890000000 1.0
C      1  0.5011760000000  0.4967540000000  0.5798900000000 1.0
C      1  0.4647060000000  0.4704550000000  0.4663130000000 1.0
C      1  0.5487440000000  0.4501830000000  0.4732520000000 1.0
C      1  0.4067120000000  0.4432320000000  0.5326350000000 1.0
C      1  0.4409360000000  0.4296510000000  0.4622470000000 1.0
C      1  0.5019750000000  0.4097930000000  0.5819440000000 1.0
C      1  0.4871970000000  0.5721520000000  0.3990640000000 1.0
C      1  0.5292340000000  0.4554610000000  0.5864110000000 1.0
C      1  0.4872050000000  0.4327650000000  0.5941930000000 1.0
C      1  0.4778140000000  0.5501330000000  0.5372480000000 1.0
C      1  0.4784310000000  0.5931920000000  0.4400040000000 1.0
C      1  0.6168960000000  0.4859870000000  0.5288350000000 1.0
C      1  0.5673770000000  0.5352490000000  0.5625020000000 1.0
C      1  0.4483010000000  0.4507940000000  0.4792170000000 1.0
C      1  0.4932010000000  0.4844560000000  0.6064400000000 1.0
C      1  0.4323840000000  0.5939610000000  0.5305710000000 1.0
C      1  0.5056930000000  0.5500320000000  0.6347950000000 1.0
C      1  0.4733040000000  0.4789020000000  0.5116020000000 1.0
C      1  0.5452480000000  0.4041650000000  0.4357500000000 1.0
C      1  0.5237610000000  0.5193720000000  0.4389010000000 1.0
C      1  0.3800510000000  0.5542480000000  0.4945390000000 1.0
C      1  0.4808740000000  0.5066420000000  0.6215100000000 1.0
C      1  0.4905760000000  0.4711670000000  0.4859540000000 1.0
C      1  0.4492690000000  0.4911910000000  0.4546530000000 1.0
C      1  0.5811840000000  0.4899340000000  0.4794380000000 1.0
C      1  0.5535120000000  0.3927630000000  0.4881170000000 1.0
C      1  0.5816050000000  0.3997350000000  0.4889810000000 1.0
C      1  0.5129680000000  0.5097400000000  0.4823490000000 1.0
C      1  0.4630490000000  0.5634920000000  0.5827380000000 1.0
C      1  0.4085980000000  0.5332790000000  0.4294380000000 1.0
C      1  0.5916210000000  0.5689820000000  0.4655840000000 1.0
C      1  0.6055110000000  0.5551580000000  0.5106670000000 1.0
C      1  0.5557450000000  0.4853210000000  0.5498660000000 1.0
C      1  0.5805100000000  0.4372480000000  0.5529270000000 1.0
C      1  0.3663090000000  0.5490560000000  0.5181810000000 1.0
C      1  0.5581890000000  0.5600370000000  0.5740520000000 1.0
C      1  0.5288250000000  0.5074220000000  0.5824650000000 1.0
C      1  0.4674560000000  0.4415810000000  0.4035530000000 1.0
C      1  0.5684390000000  0.4654910000000  0.4868540000000 1.0
C      1  0.4539810000000  0.4522310000000  0.3815450000000 1.0
C      1  0.5671250000000  0.4126190000000  0.5528070000000 1.0
C      1  0.5124180000000  0.4556200000000  0.5032780000000 1.0
C      1  0.4498420000000  0.4365230000000  0.5254510000000 1.0
C      1  0.4559460000000  0.4202620000000  0.4184190000000 1.0
C      1  0.5327560000000  0.5125740000000  0.5011960000000 1.0
C      1  0.4188580000000  0.5227020000000  0.5286700000000 1.0
C      1  0.4010210000000  0.5484580000000  0.4525720000000 1.0
C      1  0.4988450000000  0.3843350000000  0.5916920000000 1.0
C      1  0.5413550000000  0.5562060000000  0.4701560000000 1.0
C      1  0.4914640000000  0.4974040000000  0.3956800000000 1.0
C      1  0.4801310000000  0.6077870000000  0.4847090000000 1.0
C      1  0.5311460000000  0.5990380000000  0.5423890000000 1.0
C      1  0.4098410000000  0.5745060000000  0.4645240000000 1.0
C      1  0.3917330000000  0.3787640000000  0.4827970000000 1.0
C      1  0.5008950000000  0.5528340000000  0.4116640000000 1.0
C      1  0.5484780000000  0.5549120000000  0.5009940000000 1.0
C      1  0.5253760000000  0.4069930000000  0.4155770000000 1.0
C      1  0.5367890000000  0.5109350000000  0.3835980000000 1.0
C      1  0.4295200000000  0.4109570000000  0.4124390000000 1.0
C      1  0.5466000000000  0.4773790000000  0.4327770000000 1.0
C      1  0.5802610000000  0.5085520000000  0.5012610000000 1.0
C      1  0.3871150000000  0.5334210000000  0.4747640000000 1.0
C      1  0.4163030000000  0.4148730000000  0.4589860000000 1.0
C      1  0.4646830000000  0.3962690000000  0.4900100000000 1.0
C      1  0.5621720000000  0.5804910000000  0.5100010000000 1.0
C      1  0.5620080000000  0.4271860000000  0.4349410000000 1.0
C      1  0.6085500000000  0.4401070000000  0.5455200000000 1.0
C      1  0.5206570000000  0.4155590000000  0.5597900000000 1.0
C      1  0.5286840000000  0.5905920000000  0.4290440000000 1.0
C      1  0.5128510000000  0.4296580000000  0.4081390000000 1.0
END
