TITL C-627111-6168-1191 0.0112380772560768 125000 -927.095071050844 0 0 152 (C1) n - 1
REM
REM in /home/nfs/bkarasulu/CARBON/AIRSS/Generating-Clusters/LCBOP/Only-C1/SD-CG/FIRE-CG
REM
REM
REM
REM
REM
REM ./C.cell (11c1c37f851c82e70ff6c80c92926a4b)
REM AIRSS Version 0.9.1 bugfix July 2018 build 013d7b7c2542+ Fri, 06 Jul 2018 19:26:36 +0100
REM compiler GCC version 9.2.1 20190827 (Red Hat 9.2.1-1)
REM options -cpp -mtune=generic -march=x86-64 -g -O0 -fpre-include=/usr/include/finclude/math-vector-fortran.h
REM seed -1792905505 -1289013370 -990928429 1258932790 -651187427 -132603262 1008526958 -357560455 1502240615 141248511 -520800063 1751844768 -500106791 -1785229780 142859692 297711462 -805622139 1320614112 -1941910285 -1064147993 330776479 -280592087 777849319 -1194448513 -2076419859 -482462277 389344243 1593780153 -736015778 -506997044 -551051087 359137671 632451625
REM
CELL 1.54180   50.00000   50.00000   50.00000   90.00000   90.00000   90.00000
LATT -1
SFAC C  
C      1  0.6387260000000  0.5992910000000  0.5104080000000 1.0
C      1  0.5307660000000  0.4830720000000  0.4627900000000 1.0
C      1  0.5018730000000  0.4778050000000  0.6049530000000 1.0
C      1  0.3420090000000  0.6637380000000  0.5288050000000 1.0
C      1  0.5098280000000  0.4567550000000  0.3918220000000 1.0
C      1  0.5556940000000  0.4772760000000  0.5615510000000 1.0
C      1  0.5151530000000  0.4655100000000  0.5365350000000 1.0
C      1  0.4568430000000  0.5588100000000  0.4514230000000 1.0
C      1  0.4592320000000  0.4309300000000  0.4522420000000 1.0
C      1  0.4969310000000  0.6038070000000  0.5430070000000 1.0
C      1  0.5622440000000  0.4074480000000  0.5366840000000 1.0
C      1  0.4937650000000  0.5189150000000  0.4582520000000 1.0
C      1  0.5582340000000  0.4605460000000  0.4055760000000 1.0
C      1  0.5749870000000  0.5115320000000  0.4594110000000 1.0
C      1  0.4821390000000  0.4533700000000  0.3876820000000 1.0
C      1  0.5579910000000  0.4901570000000  0.4650260000000 1.0
C      1  0.5269200000000  0.4104110000000  0.4803740000000 1.0
C      1  0.3549570000000  0.6440520000000  0.5166650000000 1.0
C      1  0.3679030000000  0.6243710000000  0.5045280000000 1.0
C      1  0.5579410000000  0.4638090000000  0.5134150000000 1.0
C      1  0.5315310000000  0.4228200000000  0.5989010000000 1.0
C      1  0.5192200000000  0.6210100000000  0.5409620000000 1.0
C      1  0.5065350000000  0.5436970000000  0.5283160000000 1.0
C      1  0.5011440000000  0.5797040000000  0.5583760000000 1.0
C      1  0.4936570000000  0.5882280000000  0.4637250000000 1.0
C      1  0.5944110000000  0.4726200000000  0.4379860000000 1.0
C      1  0.4064300000000  0.5413760000000  0.4616120000000 1.0
C      1  0.5504660000000  0.5620700000000  0.5380290000000 1.0
C      1  0.4543870000000  0.4913960000000  0.3845260000000 1.0
C      1  0.4556320000000  0.5569590000000  0.5138630000000 1.0
C      1  0.5357140000000  0.4369190000000  0.4794340000000 1.0
C      1  0.4886340000000  0.5315740000000  0.3918350000000 1.0
C      1  0.5338570000000  0.5006870000000  0.4025740000000 1.0
C      1  0.5031340000000  0.5442860000000  0.5905230000000 1.0
C      1  0.5009400000000  0.4568030000000  0.5126970000000 1.0
C      1  0.4409240000000  0.4901900000000  0.5877130000000 1.0
C      1  0.6070870000000  0.5479550000000  0.4630180000000 1.0
C      1  0.5786140000000  0.4178920000000  0.4537660000000 1.0
C      1  0.3953640000000  0.5845730000000  0.4803520000000 1.0
C      1  0.5452410000000  0.5281240000000  0.6045170000000 1.0
C      1  0.5683430000000  0.4909450000000  0.5112890000000 1.0
C      1  0.5094470000000  0.4235260000000  0.4281680000000 1.0
C      1  0.4056410000000  0.4782430000000  0.5578020000000 1.0
C      1  0.5664870000000  0.4604090000000  0.5819440000000 1.0
C      1  0.4881880000000  0.4722890000000  0.5809610000000 1.0
C      1  0.3853920000000  0.5588100000000  0.4716480000000 1.0
C      1  0.5977790000000  0.5675680000000  0.5256260000000 1.0
C      1  0.5601630000000  0.4454320000000  0.4909700000000 1.0
C      1  0.5009690000000  0.5726820000000  0.4858900000000 1.0
C      1  0.5587750000000  0.5072320000000  0.4166140000000 1.0
C      1  0.5999770000000  0.4597690000000  0.4632520000000 1.0
C      1  0.5725570000000  0.5787930000000  0.5319470000000 1.0
C      1  0.4591860000000  0.4491840000000  0.4068360000000 1.0
C      1  0.5130610000000  0.5035630000000  0.4725430000000 1.0
C      1  0.4783430000000  0.5620240000000  0.5002390000000 1.0
C      1  0.6284850000000  0.5079120000000  0.5499540000000 1.0
C      1  0.4372630000000  0.4062350000000  0.4159020000000 1.0
C      1  0.4997570000000  0.5180150000000  0.5188550000000 1.0
C      1  0.4710220000000  0.4732050000000  0.3694870000000 1.0
C      1  0.4015240000000  0.5020780000000  0.5126010000000 1.0
C      1  0.4141690000000  0.5388520000000  0.5424720000000 1.0
C      1  0.5442230000000  0.5613500000000  0.4683770000000 1.0
C      1  0.4757730000000  0.4710620000000  0.4728640000000 1.0
C      1  0.5455520000000  0.6219640000000  0.5364730000000 1.0
C      1  0.5746340000000  0.4811720000000  0.4187070000000 1.0
C      1  0.5469870000000  0.5091550000000  0.5074130000000 1.0
C      1  0.5669610000000  0.6063610000000  0.5325580000000 1.0
C      1  0.4362710000000  0.4679040000000  0.5185460000000 1.0
C      1  0.6177550000000  0.4660390000000  0.4843890000000 1.0
C      1  0.4428460000000  0.4738440000000  0.4047990000000 1.0
C      1  0.6095070000000  0.4669510000000  0.5118100000000 1.0
C      1  0.4904430000000  0.3795410000000  0.5289330000000 1.0
C      1  0.4984290000000  0.4578290000000  0.5588490000000 1.0
C      1  0.4164270000000  0.4976500000000  0.5758070000000 1.0
C      1  0.4070340000000  0.5138060000000  0.4654940000000 1.0
C      1  0.4882710000000  0.5594380000000  0.3902060000000 1.0
C      1  0.4334560000000  0.4378460000000  0.5309980000000 1.0
C      1  0.5190680000000  0.5093510000000  0.4999740000000 1.0
C      1  0.4233800000000  0.5844410000000  0.4740840000000 1.0
C      1  0.5150350000000  0.3782890000000  0.5446720000000 1.0
C      1  0.4763480000000  0.5057420000000  0.5317270000000 1.0
C      1  0.3968250000000  0.5277100000000  0.5228400000000 1.0
C      1  0.5995610000000  0.5222830000000  0.4685660000000 1.0
C      1  0.5170860000000  0.5265140000000  0.6083420000000 1.0
C      1  0.4662790000000  0.5862770000000  0.4578720000000 1.0
C      1  0.5385320000000  0.3943070000000  0.5391840000000 1.0
C      1  0.5276770000000  0.5648480000000  0.4911360000000 1.0
C      1  0.5328720000000  0.4718600000000  0.3975850000000 1.0
C      1  0.4896340000000  0.4311630000000  0.5499040000000 1.0
C      1  0.4744400000000  0.5364430000000  0.4510190000000 1.0
C      1  0.6015230000000  0.5397960000000  0.5266590000000 1.0
C      1  0.5046090000000  0.4446740000000  0.4448070000000 1.0
C      1  0.4733220000000  0.5119910000000  0.5596560000000 1.0
C      1  0.6087700000000  0.5131830000000  0.5316580000000 1.0
C      1  0.5632110000000  0.5269880000000  0.4372700000000 1.0
C      1  0.3809330000000  0.6047420000000  0.4924260000000 1.0
C      1  0.4090990000000  0.4947390000000  0.4856860000000 1.0
C      1  0.5890030000000  0.5647260000000  0.4511000000000 1.0
C      1  0.5844920000000  0.4227910000000  0.5329780000000 1.0
C      1  0.5430760000000  0.4655500000000  0.5383250000000 1.0
C      1  0.4899560000000  0.5554540000000  0.5478820000000 1.0
C      1  0.4137320000000  0.5250700000000  0.5674970000000 1.0
C      1  0.5720930000000  0.4163500000000  0.4277390000000 1.0
C      1  0.4816180000000  0.4726200000000  0.4998320000000 1.0
C      1  0.5644270000000  0.4334560000000  0.4085670000000 1.0
C      1  0.4636940000000  0.3899420000000  0.5360480000000 1.0
C      1  0.5075010000000  0.5014460000000  0.6165500000000 1.0
C      1  0.4480680000000  0.5989360000000  0.4778470000000 1.0
C      1  0.5117140000000  0.3888810000000  0.4840300000000 1.0
C      1  0.4135770000000  0.4840080000000  0.5313270000000 1.0
C      1  0.5506890000000  0.4407210000000  0.5942250000000 1.0
C      1  0.4647500000000  0.5169670000000  0.3885620000000 1.0
C      1  0.4748580000000  0.6084920000000  0.5247860000000 1.0
C      1  0.5446300000000  0.5551310000000  0.5652740000000 1.0
C      1  0.4246610000000  0.4102090000000  0.4807620000000 1.0
C      1  0.4264660000000  0.4714270000000  0.4887260000000 1.0
C      1  0.4666740000000  0.4904710000000  0.5766610000000 1.0
C      1  0.4897210000000  0.4309710000000  0.5190750000000 1.0
C      1  0.3929210000000  0.4166580000000  0.5205870000000 1.0
C      1  0.4956130000000  0.3761530000000  0.5012180000000 1.0
C      1  0.5085230000000  0.4113630000000  0.5915190000000 1.0
C      1  0.5247480000000  0.4554600000000  0.4608890000000 1.0
C      1  0.4836800000000  0.5366340000000  0.5693140000000 1.0
C      1  0.4495880000000  0.4137780000000  0.5259710000000 1.0
C      1  0.4293980000000  0.5586510000000  0.4597290000000 1.0
C      1  0.4908980000000  0.4128390000000  0.5712330000000 1.0
C      1  0.4667870000000  0.4214230000000  0.5033470000000 1.0
C      1  0.6190820000000  0.5840910000000  0.5182940000000 1.0
C      1  0.4873840000000  0.6119220000000  0.3926790000000 1.0
C      1  0.4361180000000  0.5530450000000  0.5318750000000 1.0
C      1  0.4199140000000  0.4787620000000  0.4185740000000 1.0
C      1  0.6018260000000  0.4426330000000  0.5256730000000 1.0
C      1  0.4590120000000  0.6091110000000  0.5024810000000 1.0
C      1  0.4026350000000  0.4090250000000  0.4963590000000 1.0
C      1  0.5201250000000  0.5668040000000  0.5775860000000 1.0
C      1  0.4630310000000  0.4838740000000  0.5183480000000 1.0
C      1  0.5623730000000  0.5543950000000  0.4474630000000 1.0
C      1  0.5305110000000  0.5565210000000  0.5184210000000 1.0
C      1  0.3972890000000  0.4510720000000  0.5596670000000 1.0
C      1  0.4879360000000  0.5859210000000  0.3908890000000 1.0
C      1  0.5958850000000  0.4917730000000  0.5183780000000 1.0
C      1  0.4790120000000  0.4507450000000  0.4544010000000 1.0
C      1  0.4512540000000  0.4279490000000  0.4247730000000 1.0
C      1  0.5926440000000  0.4634530000000  0.5895360000000 1.0
C      1  0.5578980000000  0.5055930000000  0.5644810000000 1.0
C      1  0.5812830000000  0.4396260000000  0.4716880000000 1.0
C      1  0.5129210000000  0.5181400000000  0.3966520000000 1.0
C      1  0.5167890000000  0.3589750000000  0.5642310000000 1.0
C      1  0.4062870000000  0.4325250000000  0.5399060000000 1.0
C      1  0.4517000000000  0.4193760000000  0.4776830000000 1.0
C      1  0.5539030000000  0.5304870000000  0.5774550000000 1.0
C      1  0.3292750000000  0.6831010000000  0.5407450000000 1.0
END
