TITL C-627112-676-645 2.12671921170951e-06 125000 -446.959002607613 0 0 75 (C1) n - 1
REM
REM in /home/nfs/bkarasulu/CARBON/AIRSS/Generating-Clusters/LCBOP/Only-C1/SD-CG/FIRE-CG
REM
REM
REM
REM
REM
REM ./C.cell (11c1c37f851c82e70ff6c80c92926a4b)
REM AIRSS Version 0.9.1 bugfix July 2018 build 013d7b7c2542+ Fri, 06 Jul 2018 19:26:36 +0100
REM compiler GCC version 9.2.1 20190827 (Red Hat 9.2.1-1)
REM options -cpp -mtune=generic -march=x86-64 -g -O0 -fpre-include=/usr/include/finclude/math-vector-fortran.h
REM seed 1436631956 -1154941353 1014235753 -534838172 192222270 541727437 -1694646548 2118319217 1918383994 -377789615 -91384869 1154589271 2090187123 -1387887905 -789906091 1925267671 1132496328 -1059386883 -1266639705 393291372 1078328420 1865226358 2050372239 1378679980 1301937092 1318974183 944362230 -1340804281 1999999256 1223216459 -1150259862 272206565 339440123
REM
CELL 1.54180   50.00000   50.00000   50.00000   90.00000   90.00000   90.00000
LATT -1
SFAC C  
C      1  0.4119940000000  0.5112010000000  0.5157630000000 1.0
C      1  0.5042350000000  0.4745210000000  0.4255150000000 1.0
C      1  0.4394780000000  0.4479990000000  0.5576460000000 1.0
C      1  0.5289430000000  0.6057950000000  0.5089280000000 1.0
C      1  0.4225510000000  0.5589040000000  0.4795590000000 1.0
C      1  0.4527670000000  0.4475930000000  0.5050810000000 1.0
C      1  0.5501130000000  0.4358190000000  0.5055780000000 1.0
C      1  0.4775690000000  0.4327340000000  0.4678220000000 1.0
C      1  0.5122280000000  0.4681030000000  0.3994510000000 1.0
C      1  0.4212940000000  0.4823460000000  0.4791590000000 1.0
C      1  0.5109070000000  0.5031350000000  0.5667450000000 1.0
C      1  0.4583000000000  0.5495410000000  0.5845180000000 1.0
C      1  0.5315210000000  0.5651630000000  0.4468710000000 1.0
C      1  0.5204340000000  0.4624000000000  0.3753850000000 1.0
C      1  0.6020000000000  0.4746490000000  0.5517780000000 1.0
C      1  0.4810860000000  0.5371300000000  0.5905080000000 1.0
C      1  0.5136860000000  0.4955850000000  0.4922800000000 1.0
C      1  0.4889850000000  0.4998120000000  0.4300010000000 1.0
C      1  0.4885430000000  0.4588890000000  0.4659240000000 1.0
C      1  0.5029660000000  0.4169450000000  0.5265490000000 1.0
C      1  0.4690430000000  0.4623760000000  0.5233620000000 1.0
C      1  0.4649320000000  0.5177170000000  0.5014060000000 1.0
C      1  0.5053870000000  0.4950140000000  0.5404900000000 1.0
C      1  0.6281770000000  0.4617510000000  0.5971610000000 1.0
C      1  0.5266100000000  0.5349090000000  0.5158700000000 1.0
C      1  0.5256020000000  0.5603280000000  0.5027480000000 1.0
C      1  0.5929490000000  0.5195580000000  0.5253950000000 1.0
C      1  0.4921230000000  0.4067650000000  0.5030150000000 1.0
C      1  0.4647390000000  0.4255070000000  0.4927540000000 1.0
C      1  0.5286620000000  0.4278690000000  0.5224430000000 1.0
C      1  0.5740860000000  0.4420240000000  0.5190410000000 1.0
C      1  0.4935250000000  0.6046590000000  0.4811720000000 1.0
C      1  0.5998970000000  0.5013980000000  0.5436140000000 1.0
C      1  0.4694950000000  0.4980770000000  0.4794800000000 1.0
C      1  0.5315590000000  0.5746100000000  0.4744090000000 1.0
C      1  0.4635720000000  0.5707870000000  0.5035960000000 1.0
C      1  0.5644940000000  0.4610670000000  0.4652650000000 1.0
C      1  0.5052670000000  0.5335070000000  0.4624290000000 1.0
C      1  0.4661980000000  0.5045680000000  0.4504460000000 1.0
C      1  0.6155370000000  0.4679930000000  0.5752400000000 1.0
C      1  0.5902420000000  0.4546900000000  0.5359390000000 1.0
C      1  0.5230230000000  0.6035000000000  0.4796660000000 1.0
C      1  0.4615640000000  0.4320780000000  0.5580780000000 1.0
C      1  0.5183040000000  0.5072690000000  0.5180520000000 1.0
C      1  0.5823800000000  0.4780040000000  0.4805240000000 1.0
C      1  0.4135100000000  0.4874410000000  0.5323630000000 1.0
C      1  0.4786150000000  0.5436590000000  0.4677720000000 1.0
C      1  0.5102300000000  0.4560750000000  0.4471350000000 1.0
C      1  0.4365370000000  0.5543580000000  0.5699690000000 1.0
C      1  0.4626060000000  0.5083820000000  0.5275680000000 1.0
C      1  0.4367820000000  0.5758990000000  0.4955170000000 1.0
C      1  0.4099140000000  0.5353890000000  0.5298940000000 1.0
C      1  0.4849060000000  0.4221960000000  0.5481620000000 1.0
C      1  0.5034120000000  0.4161380000000  0.4733280000000 1.0
C      1  0.5731670000000  0.5057710000000  0.4808650000000 1.0
C      1  0.4785590000000  0.4862800000000  0.5348330000000 1.0
C      1  0.5520030000000  0.4813680000000  0.4482480000000 1.0
C      1  0.4191520000000  0.5498400000000  0.5503140000000 1.0
C      1  0.5496600000000  0.5066890000000  0.4628540000000 1.0
C      1  0.5235070000000  0.5131430000000  0.4719730000000 1.0
C      1  0.4318410000000  0.4603410000000  0.4906790000000 1.0
C      1  0.4714980000000  0.5448530000000  0.4955480000000 1.0
C      1  0.4548380000000  0.5311030000000  0.4540290000000 1.0
C      1  0.4909970000000  0.4805560000000  0.4833690000000 1.0
C      1  0.5150200000000  0.5437480000000  0.4371590000000 1.0
C      1  0.5118790000000  0.5829070000000  0.5179570000000 1.0
C      1  0.4230560000000  0.4673990000000  0.5479870000000 1.0
C      1  0.4290170000000  0.5323890000000  0.4702150000000 1.0
C      1  0.5826350000000  0.5225210000000  0.5009190000000 1.0
C      1  0.4849160000000  0.5892710000000  0.5051890000000 1.0
C      1  0.4184140000000  0.5096450000000  0.4870030000000 1.0
C      1  0.5006560000000  0.5199250000000  0.5848560000000 1.0
C      1  0.5247580000000  0.4334320000000  0.4613370000000 1.0
C      1  0.5480380000000  0.4407190000000  0.4768460000000 1.0
C      1  0.5029110000000  0.5242710000000  0.4194580000000 1.0
END
