TITL C-627113-6568-527 -5.92433340402898 125000 -119.383329472526 0 0 22 (C1) n - 1
REM
REM in /home/nfs/bkarasulu/CARBON/AIRSS/Generating-Clusters/LCBOP/Only-C1/SD-CG/FIRE-CG
REM
REM
REM
REM
REM
REM ./C.cell (11c1c37f851c82e70ff6c80c92926a4b)
REM AIRSS Version 0.9.1 bugfix July 2018 build 013d7b7c2542+ Fri, 06 Jul 2018 19:26:36 +0100
REM compiler GCC version 9.2.1 20190827 (Red Hat 9.2.1-1)
REM options -cpp -mtune=generic -march=x86-64 -g -O0 -fpre-include=/usr/include/finclude/math-vector-fortran.h
REM seed -554510020 -1319864398 -193761053 -70322380 1614850091 867304948 527363867 -1168514570 1373276157 1652691627 1813378271 -96257856 1387028508 -1652443535 1038153251 768135841 2076940363 1319398075 747147160 931949645 -936894501 -1022578046 -1692551639 -60051771 1738653027 -1460150823 -1550405327 1927477814 1921062281 1233249498 -1878030776 534217127 -75094980
REM
CELL 1.54180   50.00000   50.00000   50.00000   90.00000   90.00000   90.00000
LATT -1
SFAC C  
C      1  0.4307590000000  0.5257780000000  0.4842830000000 1.0
C      1  0.4864100000000  0.4923130000000  0.5161220000000 1.0
C      1  0.4057390000000  0.5329890000000  0.4832010000000 1.0
C      1  0.4860920000000  0.5092420000000  0.5383470000000 1.0
C      1  0.4923760000000  0.5235270000000  0.5835790000000 1.0
C      1  0.4646370000000  0.4928810000000  0.4977460000000 1.0
C      1  0.4796900000000  0.5551100000000  0.5502850000000 1.0
C      1  0.4860480000000  0.5295070000000  0.5576240000000 1.0
C      1  0.5414080000000  0.5043030000000  0.4895200000000 1.0
C      1  0.5304750000000  0.4605780000000  0.4709190000000 1.0
C      1  0.5332300000000  0.4423440000000  0.4519000000000 1.0
C      1  0.5086150000000  0.4749480000000  0.5121120000000 1.0
C      1  0.5279740000000  0.5267680000000  0.4795950000000 1.0
C      1  0.4574210000000  0.5177740000000  0.4857750000000 1.0
C      1  0.5123740000000  0.4535780000000  0.5288510000000 1.0
C      1  0.5358640000000  0.4243810000000  0.4331920000000 1.0
C      1  0.4510280000000  0.4699460000000  0.4915830000000 1.0
C      1  0.5926650000000  0.5066530000000  0.5060960000000 1.0
C      1  0.4779900000000  0.5341530000000  0.4761330000000 1.0
C      1  0.5043000000000  0.5376700000000  0.4742190000000 1.0
C      1  0.5269950000000  0.4797700000000  0.4909210000000 1.0
C      1  0.5679090000000  0.5057870000000  0.4979990000000 1.0
END
