TITL C-627109-622-462 -0.0465317832160119 125000 -658.973812272884 0 0 110 (C1) n - 1
REM
REM in /home/nfs/bkarasulu/CARBON/AIRSS/Generating-Clusters/LCBOP/Only-C1/SD-CG/FIRE-CG
REM
REM
REM
REM
REM
REM ./C.cell (11c1c37f851c82e70ff6c80c92926a4b)
REM AIRSS Version 0.9.1 bugfix July 2018 build 013d7b7c2542+ Fri, 06 Jul 2018 19:26:36 +0100
REM compiler GCC version 9.2.1 20190827 (Red Hat 9.2.1-1)
REM options -cpp -mtune=generic -march=x86-64 -g -O0 -fpre-include=/usr/include/finclude/math-vector-fortran.h
REM seed 82807528 -79094904 -474573494 -326903567 -209895884 58045666 -1003846817 -821513283 473873934 2121906681 -514249539 1367887641 677535523 521620891 1975662188 67320363 -4359957 1723047156 10622703 -1303241272 1106441339 -1938713868 276135514 1249286105 -2028802743 -1761867927 1045420316 621190348 1432330509 792262834 438059394 367881090 -2020220059
REM
CELL 1.54180   50.00000   50.00000   50.00000   90.00000   90.00000   90.00000
LATT -1
SFAC C  
C      1  0.5206540000000  0.4989400000000  0.5266130000000 1.0
C      1  0.4825600000000  0.5864700000000  0.4895890000000 1.0
C      1  0.4608470000000  0.5296520000000  0.4171190000000 1.0
C      1  0.5622080000000  0.5014600000000  0.5639610000000 1.0
C      1  0.4327720000000  0.5761480000000  0.5384550000000 1.0
C      1  0.4394620000000  0.5381450000000  0.4334380000000 1.0
C      1  0.4565690000000  0.4714050000000  0.5376540000000 1.0
C      1  0.4885100000000  0.3791460000000  0.4727060000000 1.0
C      1  0.5499020000000  0.4276190000000  0.4694730000000 1.0
C      1  0.3838580000000  0.4628060000000  0.5286480000000 1.0
C      1  0.5685480000000  0.5204270000000  0.3822720000000 1.0
C      1  0.5171700000000  0.4746520000000  0.5398230000000 1.0
C      1  0.5452620000000  0.5450210000000  0.5837270000000 1.0
C      1  0.4570590000000  0.5073770000000  0.3735740000000 1.0
C      1  0.4851230000000  0.4995920000000  0.4959140000000 1.0
C      1  0.5725350000000  0.4966220000000  0.5364770000000 1.0
C      1  0.4265380000000  0.4745690000000  0.4742880000000 1.0
C      1  0.5715680000000  0.4667480000000  0.6145860000000 1.0
C      1  0.4853240000000  0.5576420000000  0.4477930000000 1.0
C      1  0.5059530000000  0.5062360000000  0.4316590000000 1.0
C      1  0.4578640000000  0.5059040000000  0.4015050000000 1.0
C      1  0.5004930000000  0.5405640000000  0.5340450000000 1.0
C      1  0.4443090000000  0.4582840000000  0.4895960000000 1.0
C      1  0.4953340000000  0.4828300000000  0.4193120000000 1.0
C      1  0.5084580000000  0.5782890000000  0.4020460000000 1.0
C      1  0.4736850000000  0.4689640000000  0.6055980000000 1.0
C      1  0.4247610000000  0.4971510000000  0.5688840000000 1.0
C      1  0.5342290000000  0.4012940000000  0.5116560000000 1.0
C      1  0.5435310000000  0.5206960000000  0.4613270000000 1.0
C      1  0.4996410000000  0.5272830000000  0.3599120000000 1.0
C      1  0.4438100000000  0.4230800000000  0.5236500000000 1.0
C      1  0.5493030000000  0.4754510000000  0.4910840000000 1.0
C      1  0.5112090000000  0.3896330000000  0.5246990000000 1.0
C      1  0.4380130000000  0.4531700000000  0.5190330000000 1.0
C      1  0.5924480000000  0.5150810000000  0.5280950000000 1.0
C      1  0.5436840000000  0.4843810000000  0.5786210000000 1.0
C      1  0.4655460000000  0.4959360000000  0.5176780000000 1.0
C      1  0.4292130000000  0.4796530000000  0.4477570000000 1.0
C      1  0.5122600000000  0.4405130000000  0.4986330000000 1.0
C      1  0.4425300000000  0.5671530000000  0.5635260000000 1.0
C      1  0.4924950000000  0.5595130000000  0.4931700000000 1.0
C      1  0.4849880000000  0.5423270000000  0.4723070000000 1.0
C      1  0.5038950000000  0.3638760000000  0.5153600000000 1.0
C      1  0.4708240000000  0.4871860000000  0.5839930000000 1.0
C      1  0.4494900000000  0.4866870000000  0.5642620000000 1.0
C      1  0.4608080000000  0.4448490000000  0.4454160000000 1.0
C      1  0.4723470000000  0.5377380000000  0.5398730000000 1.0
C      1  0.4889460000000  0.5532680000000  0.5788900000000 1.0
C      1  0.5051890000000  0.5509790000000  0.4020710000000 1.0
C      1  0.4889560000000  0.4326100000000  0.4828200000000 1.0
C      1  0.4671350000000  0.4828390000000  0.4151300000000 1.0
C      1  0.5736350000000  0.4641880000000  0.4447850000000 1.0
C      1  0.5104910000000  0.5565770000000  0.5134620000000 1.0
C      1  0.4956650000000  0.5008460000000  0.5790170000000 1.0
C      1  0.4507770000000  0.4685930000000  0.4331350000000 1.0
C      1  0.4763380000000  0.5159680000000  0.4748090000000 1.0
C      1  0.4948970000000  0.5903820000000  0.5428520000000 1.0
C      1  0.4176840000000  0.5566530000000  0.5241980000000 1.0
C      1  0.4544010000000  0.5222770000000  0.5242100000000 1.0
C      1  0.5932280000000  0.5120590000000  0.3829550000000 1.0
C      1  0.5590230000000  0.5749040000000  0.5265520000000 1.0
C      1  0.4964420000000  0.4600790000000  0.6172340000000 1.0
C      1  0.4804130000000  0.5857520000000  0.4592910000000 1.0
C      1  0.5171100000000  0.4831910000000  0.5677670000000 1.0
C      1  0.5315220000000  0.5228120000000  0.4871160000000 1.0
C      1  0.5963030000000  0.5404190000000  0.5205790000000 1.0
C      1  0.4277230000000  0.5375630000000  0.4574190000000 1.0
C      1  0.5004290000000  0.5281980000000  0.5890620000000 1.0
C      1  0.5539310000000  0.4433950000000  0.4458550000000 1.0
C      1  0.5351300000000  0.4231870000000  0.4933380000000 1.0
C      1  0.5121390000000  0.4601520000000  0.4174000000000 1.0
C      1  0.4735000000000  0.4493690000000  0.5504620000000 1.0
C      1  0.5324500000000  0.4782990000000  0.4689400000000 1.0
C      1  0.5837770000000  0.5640020000000  0.5193980000000 1.0
C      1  0.4489700000000  0.5951500000000  0.5250470000000 1.0
C      1  0.4949620000000  0.4335740000000  0.5420010000000 1.0
C      1  0.5538560000000  0.5823830000000  0.5532330000000 1.0
C      1  0.4622250000000  0.4036630000000  0.5282680000000 1.0
C      1  0.5131140000000  0.5046240000000  0.5006980000000 1.0
C      1  0.4937170000000  0.3597210000000  0.4906310000000 1.0
C      1  0.5789360000000  0.4906210000000  0.4472270000000 1.0
C      1  0.5359160000000  0.5682390000000  0.5121410000000 1.0
C      1  0.4769860000000  0.5951480000000  0.5182510000000 1.0
C      1  0.3903720000000  0.5576130000000  0.5234450000000 1.0
C      1  0.5164310000000  0.5357090000000  0.3807750000000 1.0
C      1  0.5709250000000  0.5173250000000  0.4539570000000 1.0
C      1  0.5232630000000  0.4615360000000  0.6161340000000 1.0
C      1  0.5469610000000  0.4707720000000  0.6034810000000 1.0
C      1  0.4896200000000  0.5381840000000  0.4240360000000 1.0
C      1  0.4755360000000  0.5162400000000  0.3562350000000 1.0
C      1  0.5883810000000  0.5382680000000  0.4529830000000 1.0
C      1  0.4647750000000  0.5503400000000  0.5644480000000 1.0
C      1  0.4268910000000  0.5327610000000  0.4836410000000 1.0
C      1  0.5356800000000  0.5692720000000  0.5703860000000 1.0
C      1  0.4899800000000  0.4066420000000  0.5345570000000 1.0
C      1  0.5190060000000  0.5217640000000  0.5424930000000 1.0
C      1  0.4093500000000  0.4588170000000  0.5250890000000 1.0
C      1  0.4657340000000  0.4464580000000  0.4741110000000 1.0
C      1  0.5265110000000  0.5003360000000  0.4500030000000 1.0
C      1  0.5115580000000  0.4501950000000  0.5261340000000 1.0
C      1  0.4898130000000  0.4058710000000  0.4726260000000 1.0
C      1  0.5326320000000  0.4456420000000  0.4270450000000 1.0
C      1  0.5259030000000  0.5328600000000  0.6004500000000 1.0
C      1  0.4625920000000  0.4217350000000  0.4308970000000 1.0
C      1  0.5622460000000  0.4804880000000  0.5147020000000 1.0
C      1  0.4323040000000  0.5355780000000  0.5111210000000 1.0
C      1  0.5671230000000  0.5278290000000  0.5759640000000 1.0
C      1  0.5927740000000  0.5350810000000  0.5826650000000 1.0
C      1  0.5434400000000  0.5287910000000  0.3810930000000 1.0
C      1  0.5066920000000  0.5740490000000  0.5664790000000 1.0
END
