TITL C-627112-676-2041 -3.99822761233948e-07 125000 -968.009868580738 0 0 160 (C1) n - 1
REM
REM in /home/nfs/bkarasulu/CARBON/AIRSS/Generating-Clusters/LCBOP/Only-C1/SD-CG/FIRE-CG
REM
REM
REM
REM
REM
REM ./C.cell (11c1c37f851c82e70ff6c80c92926a4b)
REM AIRSS Version 0.9.1 bugfix July 2018 build 013d7b7c2542+ Fri, 06 Jul 2018 19:26:36 +0100
REM compiler GCC version 9.2.1 20190827 (Red Hat 9.2.1-1)
REM options -cpp -mtune=generic -march=x86-64 -g -O0 -fpre-include=/usr/include/finclude/math-vector-fortran.h
REM seed 739225371 -1052214240 -1516410111 1272204376 -236823125 1169315429 -1912776463 652327653 -785101081 -1932076188 216247995 2099667218 400557492 81478423 -1074275336 817207300 234373905 2135538673 -883789064 808926069 1648235635 -345902849 -1865778962 442724567 -885639502 36036695 -642907885 -1181463806 1699148378 -1830882821 -1737652054 202719299 -1406577713
REM
CELL 1.54180   50.00000   50.00000   50.00000   90.00000   90.00000   90.00000
LATT -1
SFAC C  
C      1  0.4824360000000  0.5136700000000  0.3894990000000 1.0
C      1  0.4133610000000  0.5322690000000  0.4438320000000 1.0
C      1  0.5125290000000  0.5292160000000  0.4470300000000 1.0
C      1  0.4773150000000  0.4409010000000  0.5421990000000 1.0
C      1  0.5812680000000  0.5237330000000  0.4354940000000 1.0
C      1  0.4146520000000  0.5138580000000  0.4220610000000 1.0
C      1  0.4077500000000  0.5009370000000  0.5531150000000 1.0
C      1  0.5671370000000  0.5158200000000  0.5808450000000 1.0
C      1  0.5328480000000  0.5215210000000  0.3780170000000 1.0
C      1  0.6035050000000  0.5194640000000  0.4532940000000 1.0
C      1  0.4734880000000  0.5357140000000  0.4842630000000 1.0
C      1  0.3921870000000  0.5277370000000  0.4628440000000 1.0
C      1  0.5428740000000  0.5124220000000  0.5972640000000 1.0
C      1  0.5502790000000  0.5867150000000  0.5702020000000 1.0
C      1  0.5633450000000  0.5041810000000  0.4232370000000 1.0
C      1  0.5591350000000  0.5148580000000  0.5333890000000 1.0
C      1  0.4398790000000  0.5719140000000  0.4564430000000 1.0
C      1  0.5982610000000  0.5651110000000  0.5240360000000 1.0
C      1  0.4458830000000  0.4951190000000  0.5895150000000 1.0
C      1  0.6105040000000  0.4879900000000  0.5227940000000 1.0
C      1  0.5567450000000  0.4446160000000  0.4215040000000 1.0
C      1  0.5339440000000  0.5487600000000  0.3867580000000 1.0
C      1  0.4566710000000  0.4686540000000  0.5098690000000 1.0
C      1  0.4300350000000  0.4265680000000  0.4657830000000 1.0
C      1  0.5836060000000  0.5396880000000  0.5750950000000 1.0
C      1  0.5237230000000  0.5239660000000  0.5001650000000 1.0
C      1  0.3901450000000  0.4698590000000  0.4868440000000 1.0
C      1  0.3800480000000  0.5028440000000  0.4569500000000 1.0
C      1  0.5394030000000  0.4079840000000  0.5504260000000 1.0
C      1  0.6070790000000  0.5331450000000  0.5566000000000 1.0
C      1  0.5959960000000  0.4413660000000  0.5198060000000 1.0
C      1  0.5224170000000  0.5613540000000  0.6002780000000 1.0
C      1  0.3935320000000  0.4778580000000  0.4602010000000 1.0
C      1  0.5310520000000  0.5366370000000  0.6066560000000 1.0
C      1  0.4913260000000  0.5485280000000  0.5582840000000 1.0
C      1  0.5763870000000  0.4091480000000  0.4821520000000 1.0
C      1  0.4762690000000  0.4849820000000  0.4546310000000 1.0
C      1  0.4426520000000  0.5451570000000  0.5179320000000 1.0
C      1  0.4257740000000  0.5530430000000  0.5403750000000 1.0
C      1  0.3898180000000  0.5295120000000  0.5143800000000 1.0
C      1  0.5228080000000  0.5030660000000  0.4472290000000 1.0
C      1  0.5768560000000  0.4727460000000  0.5546560000000 1.0
C      1  0.5690460000000  0.5639220000000  0.5657370000000 1.0
C      1  0.5105360000000  0.4458320000000  0.4433800000000 1.0
C      1  0.4475320000000  0.4119190000000  0.5617290000000 1.0
C      1  0.5047250000000  0.4399010000000  0.4927900000000 1.0
C      1  0.5154550000000  0.4847840000000  0.4032040000000 1.0
C      1  0.5613780000000  0.4570300000000  0.3962610000000 1.0
C      1  0.4612160000000  0.5605400000000  0.4997170000000 1.0
C      1  0.5061380000000  0.5546660000000  0.4517510000000 1.0
C      1  0.4866600000000  0.4659270000000  0.5009060000000 1.0
C      1  0.4315900000000  0.5439780000000  0.6012310000000 1.0
C      1  0.5356120000000  0.4650140000000  0.5805550000000 1.0
C      1  0.5639170000000  0.5070430000000  0.4801870000000 1.0
C      1  0.4494420000000  0.4062050000000  0.4660500000000 1.0
C      1  0.4947110000000  0.5906320000000  0.5707590000000 1.0
C      1  0.4940910000000  0.5155450000000  0.4972170000000 1.0
C      1  0.3946800000000  0.5692980000000  0.4892440000000 1.0
C      1  0.4196570000000  0.5026650000000  0.5801160000000 1.0
C      1  0.5569080000000  0.4260120000000  0.5617610000000 1.0
C      1  0.5183460000000  0.4852060000000  0.4686920000000 1.0
C      1  0.4848630000000  0.4144730000000  0.5967640000000 1.0
C      1  0.4206690000000  0.4863600000000  0.4188000000000 1.0
C      1  0.5355700000000  0.4941120000000  0.4235000000000 1.0
C      1  0.5958970000000  0.4661890000000  0.5337470000000 1.0
C      1  0.4863720000000  0.5738140000000  0.5101040000000 1.0
C      1  0.3999650000000  0.4741610000000  0.5385220000000 1.0
C      1  0.4142890000000  0.4688940000000  0.4415820000000 1.0
C      1  0.4591350000000  0.4481310000000  0.4310900000000 1.0
C      1  0.4493610000000  0.5464750000000  0.5793110000000 1.0
C      1  0.4685280000000  0.5098000000000  0.4409020000000 1.0
C      1  0.5310850000000  0.5832290000000  0.4253300000000 1.0
C      1  0.4909440000000  0.4028750000000  0.5230720000000 1.0
C      1  0.4397620000000  0.4768630000000  0.3995200000000 1.0
C      1  0.4250430000000  0.4324910000000  0.5566310000000 1.0
C      1  0.5267430000000  0.4303070000000  0.5110730000000 1.0
C      1  0.5167920000000  0.5830860000000  0.4527310000000 1.0
C      1  0.4672770000000  0.5134830000000  0.5419220000000 1.0
C      1  0.4716340000000  0.5227850000000  0.4142650000000 1.0
C      1  0.5597610000000  0.4028540000000  0.4618850000000 1.0
C      1  0.4574040000000  0.4527240000000  0.5857510000000 1.0
C      1  0.4629480000000  0.4611850000000  0.4051550000000 1.0
C      1  0.5598030000000  0.4542000000000  0.5685530000000 1.0
C      1  0.5257900000000  0.4882730000000  0.5949860000000 1.0
C      1  0.4370950000000  0.5446420000000  0.4518060000000 1.0
C      1  0.5548830000000  0.5508140000000  0.4646430000000 1.0
C      1  0.5267640000000  0.5481280000000  0.5196960000000 1.0
C      1  0.5138040000000  0.4487570000000  0.5722050000000 1.0
C      1  0.6124840000000  0.5127120000000  0.5071550000000 1.0
C      1  0.4926340000000  0.3851100000000  0.4568650000000 1.0
C      1  0.4591870000000  0.5289830000000  0.4599810000000 1.0
C      1  0.5460140000000  0.4489790000000  0.5164940000000 1.0
C      1  0.5995740000000  0.4603600000000  0.4502630000000 1.0
C      1  0.4916260000000  0.4669100000000  0.4002260000000 1.0
C      1  0.4161680000000  0.5848010000000  0.4941000000000 1.0
C      1  0.4756790000000  0.4002380000000  0.4732280000000 1.0
C      1  0.4825850000000  0.4572760000000  0.4448700000000 1.0
C      1  0.5687750000000  0.5485440000000  0.4415480000000 1.0
C      1  0.5379110000000  0.4048440000000  0.4436170000000 1.0
C      1  0.4431080000000  0.4935130000000  0.5057960000000 1.0
C      1  0.4917000000000  0.4888680000000  0.4807860000000 1.0
C      1  0.4959560000000  0.4866680000000  0.5994270000000 1.0
C      1  0.4038980000000  0.4302450000000  0.5132720000000 1.0
C      1  0.5145940000000  0.5719540000000  0.5062580000000 1.0
C      1  0.6018770000000  0.5935140000000  0.5263150000000 1.0
C      1  0.4054120000000  0.4436210000000  0.5386510000000 1.0
C      1  0.4691700000000  0.5320880000000  0.5639280000000 1.0
C      1  0.5725350000000  0.5613870000000  0.5370210000000 1.0
C      1  0.4682630000000  0.4778850000000  0.5947540000000 1.0
C      1  0.5323590000000  0.4301820000000  0.4301930000000 1.0
C      1  0.4599010000000  0.4233780000000  0.5875140000000 1.0
C      1  0.5143720000000  0.5405160000000  0.5460280000000 1.0
C      1  0.5621560000000  0.4782720000000  0.3793040000000 1.0
C      1  0.5629930000000  0.6090970000000  0.5568680000000 1.0
C      1  0.4992250000000  0.4767350000000  0.5287960000000 1.0
C      1  0.4870750000000  0.4139640000000  0.4950700000000 1.0
C      1  0.5656910000000  0.4805840000000  0.4807010000000 1.0
C      1  0.4411260000000  0.4566640000000  0.5615570000000 1.0
C      1  0.4920860000000  0.5675540000000  0.4022090000000 1.0
C      1  0.6105120000000  0.5377400000000  0.5261690000000 1.0
C      1  0.5250370000000  0.4557970000000  0.4686620000000 1.0
C      1  0.4125580000000  0.4268830000000  0.4880270000000 1.0
C      1  0.5688710000000  0.5004100000000  0.5562280000000 1.0
C      1  0.5544810000000  0.5035000000000  0.3721400000000 1.0
C      1  0.4050200000000  0.5291520000000  0.5395400000000 1.0
C      1  0.5240040000000  0.5177180000000  0.5575440000000 1.0
C      1  0.4582640000000  0.6084080000000  0.4824160000000 1.0
C      1  0.3897530000000  0.5414150000000  0.4883080000000 1.0
C      1  0.5462800000000  0.5292030000000  0.4803520000000 1.0
C      1  0.4444890000000  0.5823510000000  0.4842140000000 1.0
C      1  0.4672680000000  0.5870980000000  0.5633320000000 1.0
C      1  0.4898900000000  0.5036190000000  0.5276560000000 1.0
C      1  0.4337660000000  0.5582210000000  0.6242930000000 1.0
C      1  0.5892350000000  0.4226100000000  0.5016560000000 1.0
C      1  0.5206440000000  0.5686410000000  0.4025290000000 1.0
C      1  0.4427590000000  0.5684720000000  0.5606100000000 1.0
C      1  0.4113840000000  0.5246470000000  0.5964400000000 1.0
C      1  0.5725280000000  0.4519610000000  0.4446820000000 1.0
C      1  0.5199400000000  0.4089530000000  0.5293990000000 1.0
C      1  0.4476910000000  0.5170680000000  0.5209460000000 1.0
C      1  0.4974350000000  0.6058890000000  0.4520500000000 1.0
C      1  0.6125920000000  0.5053670000000  0.4769800000000 1.0
C      1  0.5002620000000  0.4558670000000  0.5485460000000 1.0
C      1  0.5848610000000  0.6101590000000  0.5402370000000 1.0
C      1  0.5093990000000  0.5070720000000  0.3855550000000 1.0
C      1  0.5394950000000  0.5018860000000  0.5175450000000 1.0
C      1  0.5257600000000  0.5839350000000  0.4825790000000 1.0
C      1  0.3880710000000  0.4778720000000  0.5123130000000 1.0
C      1  0.4777720000000  0.6170530000000  0.4662080000000 1.0
C      1  0.4333220000000  0.4469720000000  0.4456520000000 1.0
C      1  0.5420670000000  0.4749060000000  0.5173210000000 1.0
C      1  0.4726190000000  0.5515470000000  0.4120390000000 1.0
C      1  0.5554160000000  0.4580670000000  0.4671260000000 1.0
C      1  0.4553260000000  0.4582080000000  0.5365860000000 1.0
C      1  0.5556090000000  0.5427930000000  0.5267450000000 1.0
C      1  0.5224870000000  0.5822130000000  0.5802600000000 1.0
C      1  0.4709080000000  0.4125440000000  0.5420530000000 1.0
C      1  0.6132650000000  0.4771770000000  0.4673580000000 1.0
C      1  0.5167200000000  0.3865230000000  0.4454030000000 1.0
C      1  0.5073690000000  0.4267790000000  0.5887280000000 1.0
END
