TITL C-627110-360-1067 1.68176620651242e-07 125000 -578.78131396521 0 0 96 (C1) n - 1
REM
REM in /home/nfs/bkarasulu/CARBON/AIRSS/Generating-Clusters/LCBOP/Only-C1/SD-CG/FIRE-CG
REM
REM
REM
REM
REM
REM ./C.cell (11c1c37f851c82e70ff6c80c92926a4b)
REM AIRSS Version 0.9.1 bugfix July 2018 build 013d7b7c2542+ Fri, 06 Jul 2018 19:26:36 +0100
REM compiler GCC version 9.2.1 20190827 (Red Hat 9.2.1-1)
REM options -cpp -mtune=generic -march=x86-64 -g -O0 -fpre-include=/usr/include/finclude/math-vector-fortran.h
REM seed 1480644378 2038696487 -500688600 -540717815 797813664 238109094 1874313730 -1799416184 954593880 -1280247858 -1199123684 1259193945 1505128034 -2046274086 482272851 -1634164340 1980438892 96566346 -1892170460 -1058213364 1519812913 -306628266 -322440413 346839676 478248315 -1319879137 -1000583091 -67401091 -1286588474 1926538352 -395604006 -215600080 1466033413
REM
CELL 1.54180   50.00000   50.00000   50.00000   90.00000   90.00000   90.00000
LATT -1
SFAC C  
C      1  0.5161950000000  0.5178020000000  0.4500200000000 1.0
C      1  0.5029090000000  0.4302780000000  0.5627510000000 1.0
C      1  0.4529410000000  0.5124560000000  0.4551900000000 1.0
C      1  0.4777570000000  0.6169840000000  0.5192710000000 1.0
C      1  0.5010170000000  0.4906660000000  0.4026820000000 1.0
C      1  0.4835720000000  0.5817900000000  0.5808000000000 1.0
C      1  0.4065270000000  0.4971260000000  0.4194260000000 1.0
C      1  0.5124820000000  0.6175800000000  0.5506870000000 1.0
C      1  0.5076800000000  0.5033990000000  0.5446540000000 1.0
C      1  0.5412530000000  0.5155890000000  0.4632430000000 1.0
C      1  0.5397900000000  0.6128650000000  0.5538770000000 1.0
C      1  0.4693970000000  0.4787030000000  0.5876530000000 1.0
C      1  0.4510530000000  0.5496450000000  0.4895260000000 1.0
C      1  0.5066260000000  0.5375360000000  0.4975740000000 1.0
C      1  0.5692690000000  0.5471010000000  0.5835900000000 1.0
C      1  0.4575080000000  0.5072340000000  0.4249570000000 1.0
C      1  0.4371970000000  0.4927350000000  0.5551840000000 1.0
C      1  0.5236650000000  0.4541190000000  0.4333750000000 1.0
C      1  0.4601750000000  0.5708440000000  0.5411020000000 1.0
C      1  0.4634440000000  0.4533760000000  0.4577180000000 1.0
C      1  0.4803050000000  0.4863180000000  0.4253920000000 1.0
C      1  0.5329790000000  0.4677670000000  0.5275060000000 1.0
C      1  0.5611660000000  0.4300120000000  0.5140940000000 1.0
C      1  0.4222580000000  0.5471170000000  0.4883290000000 1.0
C      1  0.4551520000000  0.4486630000000  0.5488270000000 1.0
C      1  0.5667840000000  0.4548960000000  0.4200060000000 1.0
C      1  0.5468170000000  0.5278360000000  0.4075750000000 1.0
C      1  0.5415770000000  0.5421000000000  0.5859000000000 1.0
C      1  0.5791070000000  0.4864030000000  0.4630980000000 1.0
C      1  0.5128840000000  0.4662300000000  0.4589480000000 1.0
C      1  0.4678540000000  0.5590690000000  0.5697350000000 1.0
C      1  0.5316550000000  0.5178960000000  0.5959680000000 1.0
C      1  0.4703170000000  0.3794890000000  0.4529260000000 1.0
C      1  0.5017240000000  0.4202640000000  0.4703140000000 1.0
C      1  0.5327080000000  0.5006460000000  0.4864750000000 1.0
C      1  0.4726720000000  0.5308000000000  0.4135880000000 1.0
C      1  0.5538350000000  0.4793910000000  0.4094530000000 1.0
C      1  0.4542840000000  0.3608070000000  0.4443530000000 1.0
C      1  0.4602110000000  0.5525020000000  0.5179460000000 1.0
C      1  0.4901410000000  0.6020060000000  0.5615050000000 1.0
C      1  0.5125600000000  0.5511430000000  0.5426220000000 1.0
C      1  0.4465460000000  0.5120990000000  0.5393600000000 1.0
C      1  0.5784100000000  0.5781330000000  0.5485330000000 1.0
C      1  0.4355450000000  0.4935560000000  0.4683430000000 1.0
C      1  0.4430440000000  0.4662800000000  0.4744280000000 1.0
C      1  0.5163870000000  0.4674650000000  0.5880670000000 1.0
C      1  0.5337990000000  0.4223500000000  0.5074460000000 1.0
C      1  0.4977370000000  0.5204110000000  0.3986280000000 1.0
C      1  0.4083120000000  0.5031860000000  0.4682270000000 1.0
C      1  0.3948860000000  0.4979730000000  0.4438530000000 1.0
C      1  0.4919230000000  0.4426940000000  0.5193570000000 1.0
C      1  0.4351850000000  0.4546460000000  0.4992970000000 1.0
C      1  0.4889950000000  0.4876290000000  0.5043470000000 1.0
C      1  0.5071000000000  0.5089840000000  0.4955370000000 1.0
C      1  0.4949650000000  0.5286740000000  0.5433840000000 1.0
C      1  0.4635520000000  0.5392330000000  0.4634410000000 1.0
C      1  0.4718550000000  0.5324450000000  0.5826860000000 1.0
C      1  0.4047950000000  0.5273650000000  0.4824310000000 1.0
C      1  0.5198510000000  0.4434220000000  0.5198440000000 1.0
C      1  0.5278500000000  0.4455300000000  0.5693750000000 1.0
C      1  0.5553390000000  0.4372390000000  0.5487830000000 1.0
C      1  0.4805710000000  0.5465790000000  0.4385460000000 1.0
C      1  0.4701630000000  0.5976210000000  0.5390380000000 1.0
C      1  0.5245450000000  0.4735830000000  0.4096460000000 1.0
C      1  0.4811990000000  0.4371130000000  0.5449560000000 1.0
C      1  0.5339560000000  0.4937900000000  0.5388570000000 1.0
C      1  0.5130650000000  0.4975680000000  0.5910660000000 1.0
C      1  0.5198440000000  0.5368050000000  0.4095000000000 1.0
C      1  0.5602510000000  0.5055650000000  0.4197430000000 1.0
C      1  0.4321140000000  0.5005540000000  0.4114840000000 1.0
C      1  0.5647730000000  0.4671750000000  0.4786930000000 1.0
C      1  0.4384530000000  0.4479990000000  0.5253010000000 1.0
C      1  0.4904650000000  0.4485290000000  0.4708640000000 1.0
C      1  0.5694930000000  0.4395760000000  0.4860240000000 1.0
C      1  0.5525660000000  0.4259110000000  0.4638710000000 1.0
C      1  0.5017840000000  0.6288900000000  0.5260710000000 1.0
C      1  0.5643300000000  0.5065260000000  0.4485960000000 1.0
C      1  0.5750810000000  0.5291330000000  0.5403700000000 1.0
C      1  0.5288450000000  0.4172500000000  0.4794810000000 1.0
C      1  0.4830050000000  0.5056510000000  0.5885820000000 1.0
C      1  0.4880110000000  0.4870380000000  0.5328370000000 1.0
C      1  0.5361460000000  0.4735510000000  0.4785730000000 1.0
C      1  0.5575600000000  0.5089500000000  0.5378240000000 1.0
C      1  0.5493300000000  0.4394610000000  0.4378410000000 1.0
C      1  0.4680320000000  0.5283640000000  0.5313890000000 1.0
C      1  0.5160860000000  0.5563240000000  0.5149600000000 1.0
C      1  0.5001980000000  0.4928960000000  0.4488100000000 1.0
C      1  0.5260830000000  0.5559090000000  0.5665290000000 1.0
C      1  0.5627960000000  0.5998990000000  0.5497060000000 1.0
C      1  0.4863430000000  0.3987280000000  0.4615730000000 1.0
C      1  0.5093650000000  0.5421180000000  0.4370600000000 1.0
C      1  0.4667180000000  0.4603660000000  0.4304060000000 1.0
C      1  0.5794080000000  0.5513770000000  0.5572700000000 1.0
C      1  0.4855480000000  0.4599470000000  0.4977700000000 1.0
C      1  0.4890810000000  0.4595630000000  0.5967620000000 1.0
C      1  0.4512680000000  0.4711960000000  0.5667920000000 1.0
END
