TITL C-627113-6568-2023 0.0978732596323802 125000 -519.251175968976 0 0 87 (C1) n - 1
REM
REM in /home/nfs/bkarasulu/CARBON/AIRSS/Generating-Clusters/LCBOP/Only-C1/SD-CG/FIRE-CG
REM
REM
REM
REM
REM
REM ./C.cell (11c1c37f851c82e70ff6c80c92926a4b)
REM AIRSS Version 0.9.1 bugfix July 2018 build 013d7b7c2542+ Fri, 06 Jul 2018 19:26:36 +0100
REM compiler GCC version 9.2.1 20190827 (Red Hat 9.2.1-1)
REM options -cpp -mtune=generic -march=x86-64 -g -O0 -fpre-include=/usr/include/finclude/math-vector-fortran.h
REM seed -222465505 -1180997415 1722092386 -1980868164 -29452579 -1082677059 643292107 -576274249 2110542808 -1825107699 -659914495 1752758973 67809711 -1791258612 1732348705 -1171073133 -1155004525 845772629 -804227608 332892488 -2112703351 1429017153 -951659090 1516777910 1332303516 1831284456 271075674 -620598857 1605514556 -696966298 -1445066559 135219526 -168925416
REM
CELL 1.54180   50.00000   50.00000   50.00000   90.00000   90.00000   90.00000
LATT -1
SFAC C  
C      1  0.4757650000000  0.4603710000000  0.4175810000000 1.0
C      1  0.5073970000000  0.5568910000000  0.4782120000000 1.0
C      1  0.4617190000000  0.5093960000000  0.5134330000000 1.0
C      1  0.4180270000000  0.5512830000000  0.5211380000000 1.0
C      1  0.5223020000000  0.4307260000000  0.5042940000000 1.0
C      1  0.4333910000000  0.3761810000000  0.4529900000000 1.0
C      1  0.4874110000000  0.4411810000000  0.4353710000000 1.0
C      1  0.5786720000000  0.4449200000000  0.5710280000000 1.0
C      1  0.5119310000000  0.5504050000000  0.4285070000000 1.0
C      1  0.5033850000000  0.5282130000000  0.4794110000000 1.0
C      1  0.5119830000000  0.4467190000000  0.6040010000000 1.0
C      1  0.4798300000000  0.4668690000000  0.5093800000000 1.0
C      1  0.5113010000000  0.4236410000000  0.4801390000000 1.0
C      1  0.5186570000000  0.5639790000000  0.4528500000000 1.0
C      1  0.4318660000000  0.4761370000000  0.5258360000000 1.0
C      1  0.4930070000000  0.4793220000000  0.4046860000000 1.0
C      1  0.4542500000000  0.5020500000000  0.4858590000000 1.0
C      1  0.4310800000000  0.5930060000000  0.5440560000000 1.0
C      1  0.5887830000000  0.5246170000000  0.4758860000000 1.0
C      1  0.4566330000000  0.4508620000000  0.5606620000000 1.0
C      1  0.5922870000000  0.5459810000000  0.4582360000000 1.0
C      1  0.5762510000000  0.4528210000000  0.4778290000000 1.0
C      1  0.5932840000000  0.5290870000000  0.5544090000000 1.0
C      1  0.5936770000000  0.5165790000000  0.5288610000000 1.0
C      1  0.5783060000000  0.5002330000000  0.4662310000000 1.0
C      1  0.5307080000000  0.5021210000000  0.5133950000000 1.0
C      1  0.4024280000000  0.5037310000000  0.4658780000000 1.0
C      1  0.5086970000000  0.4716190000000  0.3836450000000 1.0
C      1  0.4518230000000  0.4584700000000  0.5121700000000 1.0
C      1  0.5645600000000  0.4756150000000  0.4650000000000 1.0
C      1  0.5778680000000  0.4486100000000  0.5056690000000 1.0
C      1  0.5024300000000  0.4412470000000  0.4593750000000 1.0
C      1  0.4189700000000  0.5402310000000  0.4948310000000 1.0
C      1  0.4148870000000  0.5782720000000  0.5282810000000 1.0
C      1  0.4131660000000  0.4935270000000  0.5128500000000 1.0
C      1  0.5864740000000  0.4896030000000  0.5290400000000 1.0
C      1  0.6055250000000  0.5536170000000  0.5590870000000 1.0
C      1  0.4314040000000  0.6192160000000  0.4726460000000 1.0
C      1  0.4587220000000  0.5256710000000  0.5368800000000 1.0
C      1  0.4474740000000  0.4522750000000  0.4695390000000 1.0
C      1  0.4423840000000  0.4266430000000  0.4646490000000 1.0
C      1  0.4703580000000  0.5662340000000  0.5606070000000 1.0
C      1  0.5862520000000  0.4282980000000  0.5232570000000 1.0
C      1  0.4836580000000  0.5248160000000  0.4578220000000 1.0
C      1  0.4845820000000  0.5717210000000  0.4866820000000 1.0
C      1  0.5368840000000  0.4751120000000  0.4593350000000 1.0
C      1  0.5701040000000  0.4677570000000  0.5821310000000 1.0
C      1  0.4577320000000  0.5249250000000  0.4688300000000 1.0
C      1  0.4320200000000  0.5352670000000  0.5400020000000 1.0
C      1  0.4565830000000  0.5722730000000  0.4811430000000 1.0
C      1  0.4960570000000  0.4592730000000  0.5324440000000 1.0
C      1  0.4436240000000  0.5965670000000  0.4767470000000 1.0
C      1  0.5796380000000  0.5150610000000  0.5748610000000 1.0
C      1  0.5679110000000  0.4711970000000  0.5200120000000 1.0
C      1  0.5618790000000  0.4947560000000  0.5833890000000 1.0
C      1  0.4479910000000  0.4657760000000  0.4159800000000 1.0
C      1  0.4072490000000  0.5135280000000  0.4923470000000 1.0
C      1  0.4424020000000  0.5473760000000  0.4783980000000 1.0
C      1  0.5934730000000  0.5657890000000  0.4413400000000 1.0
C      1  0.4849890000000  0.4563190000000  0.5587980000000 1.0
C      1  0.5222390000000  0.4529520000000  0.5227830000000 1.0
C      1  0.5094380000000  0.5052210000000  0.4948160000000 1.0
C      1  0.5039610000000  0.5318370000000  0.5607150000000 1.0
C      1  0.5125390000000  0.5146280000000  0.5812740000000 1.0
C      1  0.4268640000000  0.4789090000000  0.4265320000000 1.0
C      1  0.4378920000000  0.4721420000000  0.5541210000000 1.0
C      1  0.4426030000000  0.4798550000000  0.4710900000000 1.0
C      1  0.5951400000000  0.5279130000000  0.5032190000000 1.0
C      1  0.5385980000000  0.5255380000000  0.5264280000000 1.0
C      1  0.5106370000000  0.4674970000000  0.4667770000000 1.0
C      1  0.4495090000000  0.4265990000000  0.5467980000000 1.0
C      1  0.5008270000000  0.4540030000000  0.5815900000000 1.0
C      1  0.4375430000000  0.4012540000000  0.4587880000000 1.0
C      1  0.4538040000000  0.5869790000000  0.5570900000000 1.0
C      1  0.4478870000000  0.4307390000000  0.5196670000000 1.0
C      1  0.5305020000000  0.5660230000000  0.3804430000000 1.0
C      1  0.6168440000000  0.5767780000000  0.5629090000000 1.0
C      1  0.5401080000000  0.4756380000000  0.5203250000000 1.0
C      1  0.4217420000000  0.4880030000000  0.4526610000000 1.0
C      1  0.5853660000000  0.4291540000000  0.5503130000000 1.0
C      1  0.5213190000000  0.5587930000000  0.4037360000000 1.0
C      1  0.4965830000000  0.4801840000000  0.4883510000000 1.0
C      1  0.4778110000000  0.5397520000000  0.5534070000000 1.0
C      1  0.5249480000000  0.5404630000000  0.5439280000000 1.0
C      1  0.4947090000000  0.5274190000000  0.4317840000000 1.0
C      1  0.4934370000000  0.5058820000000  0.4139970000000 1.0
C      1  0.5350490000000  0.5018630000000  0.5885150000000 1.0
END
