TITL C-627108-131-1897 0.0986854079694465 125000 -707.331936687853 0 0 115 (C1) n - 1
REM
REM in /home/nfs/bkarasulu/CARBON/AIRSS/Generating-Clusters/LCBOP/Only-C1/SD-CG/FIRE-CG
REM
REM
REM
REM
REM
REM ./C.cell (11c1c37f851c82e70ff6c80c92926a4b)
REM AIRSS Version 0.9.1 bugfix July 2018 build 013d7b7c2542+ Fri, 06 Jul 2018 19:26:36 +0100
REM compiler GCC version 9.2.1 20190827 (Red Hat 9.2.1-1)
REM options -cpp -mtune=generic -march=x86-64 -g -O0 -fpre-include=/usr/include/finclude/math-vector-fortran.h
REM seed -844458076 2049156039 -449277614 209874069 30777645 -2089916645 958384376 -901228905 528519153 1981351623 -1262416257 1389240229 -2048722387 -98010656 -1683445381 -665519189 -639656877 1062250317 -1923188574 -438011443 1708472946 1323125228 -1170356609 -1980239525 -653062357 1380365652 -1490702951 847637328 -1926503244 259853205 -986749466 1252416305 -1535597718
REM
CELL 1.54180   50.00000   50.00000   50.00000   90.00000   90.00000   90.00000
LATT -1
SFAC C  
C      1  0.4282610000000  0.4762210000000  0.4320390000000 1.0
C      1  0.4152660000000  0.5213880000000  0.5336630000000 1.0
C      1  0.4714030000000  0.4062300000000  0.5485250000000 1.0
C      1  0.5063320000000  0.5164090000000  0.5640770000000 1.0
C      1  0.4797130000000  0.5132160000000  0.5504690000000 1.0
C      1  0.5495730000000  0.5892980000000  0.5594070000000 1.0
C      1  0.5380230000000  0.3957060000000  0.4802330000000 1.0
C      1  0.4467400000000  0.4053650000000  0.4475540000000 1.0
C      1  0.4484740000000  0.5763630000000  0.5221660000000 1.0
C      1  0.4963640000000  0.4873280000000  0.4463110000000 1.0
C      1  0.5038370000000  0.5497150000000  0.4770530000000 1.0
C      1  0.4935000000000  0.5649400000000  0.5614090000000 1.0
C      1  0.4617560000000  0.5536330000000  0.5263780000000 1.0
C      1  0.4251870000000  0.4993600000000  0.4482710000000 1.0
C      1  0.4147450000000  0.4425540000000  0.5387870000000 1.0
C      1  0.4366320000000  0.5865250000000  0.5004650000000 1.0
C      1  0.5418450000000  0.5920640000000  0.5320540000000 1.0
C      1  0.5400790000000  0.5876270000000  0.4498820000000 1.0
C      1  0.5595590000000  0.4129630000000  0.4723900000000 1.0
C      1  0.4693710000000  0.4848310000000  0.5007480000000 1.0
C      1  0.5445310000000  0.5656700000000  0.4932020000000 1.0
C      1  0.4587550000000  0.5698460000000  0.4328560000000 1.0
C      1  0.4711120000000  0.3980610000000  0.4571390000000 1.0
C      1  0.4249940000000  0.4393840000000  0.4739520000000 1.0
C      1  0.5344130000000  0.5135760000000  0.4599210000000 1.0
C      1  0.4937810000000  0.4122100000000  0.4668930000000 1.0
C      1  0.5759340000000  0.4735190000000  0.5476820000000 1.0
C      1  0.6117980000000  0.4899260000000  0.5105500000000 1.0
C      1  0.5210820000000  0.5505050000000  0.4999750000000 1.0
C      1  0.5466060000000  0.4409180000000  0.5065700000000 1.0
C      1  0.4400710000000  0.4429560000000  0.5517570000000 1.0
C      1  0.4389660000000  0.4500310000000  0.4279380000000 1.0
C      1  0.4618880000000  0.4247770000000  0.5051280000000 1.0
C      1  0.5009870000000  0.5945750000000  0.4975140000000 1.0
C      1  0.4500710000000  0.4428920000000  0.4872500000000 1.0
C      1  0.4051030000000  0.5029040000000  0.4688300000000 1.0
C      1  0.5121890000000  0.4045630000000  0.4879390000000 1.0
C      1  0.5787240000000  0.5593320000000  0.5239290000000 1.0
C      1  0.5134050000000  0.5954970000000  0.5244820000000 1.0
C      1  0.5244280000000  0.4633390000000  0.5694420000000 1.0
C      1  0.5293490000000  0.4312170000000  0.5272670000000 1.0
C      1  0.4740910000000  0.4438030000000  0.6202340000000 1.0
C      1  0.5754260000000  0.5325970000000  0.5259170000000 1.0
C      1  0.4990750000000  0.4797490000000  0.5042830000000 1.0
C      1  0.5081710000000  0.4146120000000  0.5153570000000 1.0
C      1  0.4698380000000  0.5267580000000  0.5257500000000 1.0
C      1  0.5660880000000  0.4472430000000  0.5554310000000 1.0
C      1  0.5081210000000  0.4876160000000  0.5292380000000 1.0
C      1  0.5802950000000  0.5977490000000  0.4215100000000 1.0
C      1  0.5527430000000  0.5678380000000  0.4664010000000 1.0
C      1  0.5119980000000  0.5437850000000  0.5540600000000 1.0
C      1  0.4050730000000  0.5291130000000  0.4825550000000 1.0
C      1  0.5441960000000  0.4667550000000  0.4963440000000 1.0
C      1  0.5720120000000  0.5190630000000  0.5753960000000 1.0
C      1  0.4965320000000  0.5890360000000  0.5466410000000 1.0
C      1  0.4950860000000  0.4389600000000  0.4573370000000 1.0
C      1  0.5567210000000  0.6033030000000  0.4333940000000 1.0
C      1  0.4371100000000  0.5735050000000  0.4755910000000 1.0
C      1  0.5693100000000  0.5465640000000  0.4562530000000 1.0
C      1  0.4036400000000  0.4525620000000  0.4880490000000 1.0
C      1  0.5217970000000  0.4879140000000  0.4610260000000 1.0
C      1  0.5675830000000  0.4818970000000  0.4964890000000 1.0
C      1  0.5377980000000  0.4429780000000  0.5533310000000 1.0
C      1  0.5599890000000  0.5703000000000  0.5755260000000 1.0
C      1  0.5560060000000  0.5138620000000  0.5249210000000 1.0
C      1  0.4854560000000  0.4512100000000  0.5974780000000 1.0
C      1  0.4809990000000  0.4140180000000  0.5232610000000 1.0
C      1  0.5783610000000  0.5032330000000  0.4795130000000 1.0
C      1  0.4010230000000  0.5300730000000  0.5108220000000 1.0
C      1  0.5949570000000  0.5751670000000  0.4235180000000 1.0
C      1  0.5379340000000  0.4296940000000  0.4263400000000 1.0
C      1  0.5109620000000  0.5309230000000  0.4567230000000 1.0
C      1  0.5181940000000  0.5380090000000  0.5254290000000 1.0
C      1  0.4886750000000  0.4394980000000  0.4077500000000 1.0
C      1  0.4514480000000  0.4190360000000  0.5615020000000 1.0
C      1  0.5617080000000  0.5200920000000  0.4638470000000 1.0
C      1  0.5698940000000  0.4278580000000  0.4951530000000 1.0
C      1  0.5922120000000  0.4422300000000  0.5075050000000 1.0
C      1  0.4471530000000  0.5162320000000  0.4527440000000 1.0
C      1  0.4494580000000  0.4801350000000  0.5232740000000 1.0
C      1  0.4623840000000  0.4361710000000  0.6422400000000 1.0
C      1  0.5027420000000  0.5767020000000  0.4205250000000 1.0
C      1  0.4614740000000  0.5760810000000  0.4605380000000 1.0
C      1  0.5277160000000  0.5099790000000  0.5262930000000 1.0
C      1  0.5118190000000  0.5857380000000  0.4461370000000 1.0
C      1  0.4430460000000  0.5489440000000  0.5708800000000 1.0
C      1  0.6057830000000  0.5058550000000  0.4884580000000 1.0
C      1  0.4625290000000  0.4453180000000  0.4121620000000 1.0
C      1  0.4822390000000  0.4644490000000  0.4570360000000 1.0
C      1  0.5898810000000  0.5532000000000  0.4382970000000 1.0
C      1  0.4970730000000  0.4596600000000  0.5739300000000 1.0
C      1  0.5148260000000  0.4343190000000  0.4129060000000 1.0
C      1  0.4314250000000  0.4296050000000  0.4474000000000 1.0
C      1  0.3953370000000  0.4784660000000  0.4796000000000 1.0
C      1  0.4173440000000  0.5529130000000  0.4717100000000 1.0
C      1  0.4013360000000  0.4455120000000  0.5155780000000 1.0
C      1  0.4926440000000  0.5781670000000  0.4706390000000 1.0
C      1  0.4936820000000  0.5155740000000  0.4379380000000 1.0
C      1  0.4276740000000  0.4965060000000  0.5295970000000 1.0
C      1  0.4637310000000  0.4663220000000  0.4786610000000 1.0
C      1  0.5687720000000  0.5453340000000  0.5802820000000 1.0
C      1  0.4236650000000  0.5369290000000  0.5561060000000 1.0
C      1  0.4682080000000  0.5589170000000  0.5737170000000 1.0
C      1  0.5584600000000  0.5767520000000  0.5146340000000 1.0
C      1  0.4801630000000  0.5598020000000  0.4174450000000 1.0
C      1  0.5202750000000  0.4755910000000  0.4860020000000 1.0
C      1  0.5555740000000  0.4236320000000  0.4460710000000 1.0
C      1  0.4835050000000  0.5315510000000  0.4170360000000 1.0
C      1  0.4586990000000  0.4634550000000  0.5438010000000 1.0
C      1  0.4600890000000  0.5241610000000  0.4748660000000 1.0
C      1  0.4680490000000  0.5145120000000  0.4997510000000 1.0
C      1  0.4853530000000  0.4689990000000  0.5505340000000 1.0
C      1  0.5615430000000  0.4951130000000  0.5641870000000 1.0
C      1  0.5888100000000  0.4717370000000  0.5183480000000 1.0
C      1  0.5321680000000  0.4916290000000  0.5687040000000 1.0
END
