TITL C-627112-676-326 3.35380604675902 125000 -862.180958250079 0 0 140 (C1) n - 1
REM
REM in /home/nfs/bkarasulu/CARBON/AIRSS/Generating-Clusters/LCBOP/Only-C1/SD-CG/FIRE-CG
REM
REM
REM
REM
REM
REM ./C.cell (11c1c37f851c82e70ff6c80c92926a4b)
REM AIRSS Version 0.9.1 bugfix July 2018 build 013d7b7c2542+ Fri, 06 Jul 2018 19:26:36 +0100
REM compiler GCC version 9.2.1 20190827 (Red Hat 9.2.1-1)
REM options -cpp -mtune=generic -march=x86-64 -g -O0 -fpre-include=/usr/include/finclude/math-vector-fortran.h
REM seed 234681356 -1852313522 719694710 -713438801 -1320866389 1484279778 -713404722 232649490 -160969725 -1994433806 1966082028 1384882557 -1525261443 -835440550 -2110406556 425730794 1316307977 412307742 2085448791 -515363644 -1417731000 406129558 -1009840269 392630443 823061781 -884842242 -668642678 841128937 2122622981 -518222127 -2067101724 -1235728061 881490881
REM
CELL 1.54180   50.00000   50.00000   50.00000   90.00000   90.00000   90.00000
LATT -1
SFAC C  
C      1  0.6073380000000  0.4906860000000  0.5132010000000 1.0
C      1  0.5265450000000  0.5856430000000  0.5152650000000 1.0
C      1  0.4901090000000  0.4904430000000  0.4304580000000 1.0
C      1  0.4225700000000  0.5585180000000  0.5372620000000 1.0
C      1  0.4394210000000  0.5236890000000  0.5734670000000 1.0
C      1  0.5586380000000  0.3922280000000  0.5028240000000 1.0
C      1  0.5130760000000  0.5356460000000  0.6188400000000 1.0
C      1  0.4588050000000  0.4499040000000  0.5952620000000 1.0
C      1  0.4756010000000  0.4396380000000  0.5067480000000 1.0
C      1  0.6019400000000  0.5177270000000  0.5041260000000 1.0
C      1  0.4957540000000  0.4052500000000  0.5519050000000 1.0
C      1  0.5632860000000  0.5099760000000  0.4212460000000 1.0
C      1  0.5812300000000  0.3987360000000  0.4857250000000 1.0
C      1  0.5728720000000  0.4440140000000  0.4912640000000 1.0
C      1  0.4819980000000  0.4476580000000  0.4578710000000 1.0
C      1  0.5394350000000  0.5305410000000  0.6117670000000 1.0
C      1  0.4729060000000  0.4701360000000  0.5521980000000 1.0
C      1  0.5338020000000  0.6397970000000  0.4886070000000 1.0
C      1  0.5882710000000  0.5862650000000  0.5345810000000 1.0
C      1  0.4309740000000  0.5715600000000  0.5138680000000 1.0
C      1  0.4424240000000  0.4720960000000  0.5917120000000 1.0
C      1  0.5106160000000  0.5036720000000  0.4166650000000 1.0
C      1  0.5679030000000  0.4576710000000  0.4338560000000 1.0
C      1  0.5176240000000  0.4750000000000  0.5111940000000 1.0
C      1  0.5577520000000  0.4315350000000  0.5358580000000 1.0
C      1  0.4804820000000  0.5582850000000  0.5710890000000 1.0
C      1  0.5426330000000  0.5964530000000  0.4673890000000 1.0
C      1  0.5121940000000  0.6030500000000  0.5571950000000 1.0
C      1  0.4372990000000  0.4939670000000  0.5722780000000 1.0
C      1  0.5144770000000  0.5397980000000  0.5285790000000 1.0
C      1  0.5081650000000  0.3953600000000  0.5036990000000 1.0
C      1  0.4794120000000  0.5453030000000  0.4681200000000 1.0
C      1  0.3551700000000  0.4542330000000  0.4226000000000 1.0
C      1  0.4432470000000  0.4887140000000  0.4536470000000 1.0
C      1  0.5418700000000  0.4786260000000  0.4971150000000 1.0
C      1  0.4930660000000  0.4181850000000  0.4944110000000 1.0
C      1  0.4408620000000  0.5979250000000  0.5128130000000 1.0
C      1  0.6032340000000  0.4835510000000  0.5781020000000 1.0
C      1  0.5586780000000  0.6018710000000  0.5747400000000 1.0
C      1  0.3941950000000  0.4867650000000  0.4421370000000 1.0
C      1  0.4654710000000  0.4997480000000  0.4399640000000 1.0
C      1  0.5258210000000  0.6195280000000  0.4696520000000 1.0
C      1  0.5586030000000  0.4038270000000  0.5287010000000 1.0
C      1  0.4815590000000  0.4065630000000  0.5770850000000 1.0
C      1  0.5607790000000  0.4916520000000  0.5133000000000 1.0
C      1  0.4862360000000  0.5076790000000  0.4955690000000 1.0
C      1  0.5341550000000  0.5306430000000  0.5113760000000 1.0
C      1  0.4583170000000  0.5207170000000  0.3810100000000 1.0
C      1  0.5273140000000  0.6341190000000  0.5156750000000 1.0
C      1  0.3738820000000  0.4702920000000  0.4322630000000 1.0
C      1  0.4864070000000  0.4897250000000  0.5710600000000 1.0
C      1  0.4661350000000  0.5335320000000  0.5811030000000 1.0
C      1  0.5489850000000  0.4563940000000  0.4820520000000 1.0
C      1  0.4552480000000  0.3640650000000  0.5972890000000 1.0
C      1  0.5921720000000  0.5779780000000  0.5079000000000 1.0
C      1  0.3847350000000  0.5077120000000  0.4851790000000 1.0
C      1  0.5371030000000  0.3930640000000  0.4600410000000 1.0
C      1  0.4414450000000  0.4388790000000  0.4249500000000 1.0
C      1  0.5253280000000  0.5306150000000  0.4843820000000 1.0
C      1  0.4239350000000  0.5411640000000  0.5576130000000 1.0
C      1  0.3613030000000  0.5135760000000  0.4979320000000 1.0
C      1  0.5087980000000  0.4426860000000  0.5973460000000 1.0
C      1  0.5528880000000  0.4079630000000  0.4428450000000 1.0
C      1  0.5431460000000  0.5388600000000  0.4645660000000 1.0
C      1  0.5765380000000  0.4480830000000  0.5198280000000 1.0
C      1  0.4349310000000  0.5572990000000  0.4899090000000 1.0
C      1  0.4917510000000  0.5531250000000  0.4051790000000 1.0
C      1  0.4820910000000  0.4323600000000  0.5913800000000 1.0
C      1  0.5030640000000  0.4301160000000  0.4701570000000 1.0
C      1  0.5438510000000  0.4542990000000  0.4178780000000 1.0
C      1  0.4817040000000  0.4480050000000  0.5345380000000 1.0
C      1  0.4798710000000  0.5099820000000  0.5919590000000 1.0
C      1  0.5173370000000  0.4521800000000  0.4211390000000 1.0
C      1  0.5309160000000  0.4394850000000  0.5792020000000 1.0
C      1  0.4341070000000  0.4920920000000  0.5016650000000 1.0
C      1  0.5314010000000  0.4911060000000  0.5570920000000 1.0
C      1  0.3365720000000  0.4380740000000  0.4128440000000 1.0
C      1  0.5033690000000  0.4313410000000  0.5436950000000 1.0
C      1  0.5064900000000  0.5039290000000  0.5569350000000 1.0
C      1  0.5700730000000  0.5434330000000  0.4755480000000 1.0
C      1  0.4976350000000  0.5275860000000  0.4797810000000 1.0
C      1  0.4475940000000  0.4787570000000  0.4802450000000 1.0
C      1  0.4453420000000  0.4974040000000  0.3806550000000 1.0
C      1  0.5368110000000  0.5062310000000  0.4117390000000 1.0
C      1  0.5216820000000  0.6107130000000  0.5299730000000 1.0
C      1  0.5275860000000  0.4697740000000  0.5385800000000 1.0
C      1  0.4072250000000  0.4989560000000  0.4992770000000 1.0
C      1  0.5838910000000  0.4759250000000  0.5208950000000 1.0
C      1  0.5332760000000  0.3897900000000  0.4888060000000 1.0
C      1  0.4944890000000  0.4808790000000  0.4953220000000 1.0
C      1  0.5466690000000  0.6625930000000  0.4809630000000 1.0
C      1  0.5112280000000  0.5555670000000  0.4232690000000 1.0
C      1  0.5753640000000  0.4876060000000  0.4372840000000 1.0
C      1  0.2810840000000  0.3898440000000  0.3837240000000 1.0
C      1  0.4348570000000  0.4754940000000  0.3918290000000 1.0
C      1  0.5457100000000  0.5826640000000  0.4930740000000 1.0
C      1  0.4493680000000  0.5002070000000  0.5241420000000 1.0
C      1  0.2993770000000  0.4057450000000  0.3933240000000 1.0
C      1  0.5013480000000  0.3869470000000  0.5305640000000 1.0
C      1  0.3179770000000  0.4219120000000  0.4030860000000 1.0
C      1  0.5838530000000  0.5303700000000  0.5230110000000 1.0
C      1  0.4564710000000  0.6131520000000  0.4972790000000 1.0
C      1  0.4539590000000  0.5525420000000  0.4717920000000 1.0
C      1  0.4958570000000  0.5215480000000  0.5380660000000 1.0
C      1  0.5895250000000  0.4991870000000  0.4594520000000 1.0
C      1  0.4736520000000  0.5405410000000  0.3901440000000 1.0
C      1  0.5176270000000  0.4901760000000  0.6149510000000 1.0
C      1  0.6165240000000  0.5813210000000  0.4958580000000 1.0
C      1  0.5107550000000  0.5666750000000  0.5309140000000 1.0
C      1  0.4980030000000  0.6177320000000  0.4655610000000 1.0
C      1  0.5418980000000  0.5028070000000  0.6034250000000 1.0
C      1  0.4741620000000  0.5142930000000  0.5204120000000 1.0
C      1  0.5702400000000  0.5671370000000  0.4932470000000 1.0
C      1  0.4743030000000  0.6174950000000  0.4779100000000 1.0
C      1  0.4971820000000  0.5116460000000  0.6142790000000 1.0
C      1  0.3833360000000  0.5339880000000  0.4443190000000 1.0
C      1  0.4981860000000  0.5767410000000  0.5554280000000 1.0
C      1  0.5692780000000  0.5648250000000  0.4299460000000 1.0
C      1  0.5830460000000  0.4248180000000  0.4736350000000 1.0
C      1  0.5121490000000  0.4629960000000  0.6164300000000 1.0
C      1  0.5722350000000  0.5381970000000  0.4223730000000 1.0
C      1  0.5778720000000  0.4885480000000  0.5747010000000 1.0
C      1  0.5779770000000  0.5942170000000  0.5578670000000 1.0
C      1  0.4594960000000  0.4333930000000  0.4442080000000 1.0
C      1  0.4959970000000  0.4632580000000  0.4359710000000 1.0
C      1  0.5322140000000  0.6064470000000  0.5769240000000 1.0
C      1  0.4480380000000  0.4841840000000  0.5471680000000 1.0
C      1  0.5903180000000  0.5216220000000  0.4772780000000 1.0
C      1  0.5314880000000  0.4419630000000  0.5490040000000 1.0
C      1  0.5577730000000  0.5854630000000  0.4446810000000 1.0
C      1  0.4212750000000  0.4800580000000  0.4377830000000 1.0
C      1  0.3871470000000  0.5100130000000  0.4569160000000 1.0
C      1  0.5293080000000  0.5480470000000  0.4415090000000 1.0
C      1  0.4728400000000  0.4622720000000  0.4847310000000 1.0
C      1  0.4293470000000  0.4628440000000  0.4162750000000 1.0
C      1  0.5507920000000  0.4943790000000  0.5777950000000 1.0
C      1  0.5728040000000  0.4298170000000  0.4465610000000 1.0
C      1  0.5288300000000  0.4411420000000  0.4703490000000 1.0
C      1  0.4680230000000  0.3845940000000  0.5875700000000 1.0
C      1  0.5580030000000  0.5189560000000  0.5202550000000 1.0
END
