TITL C-627113-6568-833 419860.915651513 125000 -997.033026675617 0 0 165 (C1) n - 1
REM
REM in /home/nfs/bkarasulu/CARBON/AIRSS/Generating-Clusters/LCBOP/Only-C1/SD-CG/FIRE-CG
REM
REM
REM
REM
REM
REM ./C.cell (11c1c37f851c82e70ff6c80c92926a4b)
REM AIRSS Version 0.9.1 bugfix July 2018 build 013d7b7c2542+ Fri, 06 Jul 2018 19:26:36 +0100
REM compiler GCC version 9.2.1 20190827 (Red Hat 9.2.1-1)
REM options -cpp -mtune=generic -march=x86-64 -g -O0 -fpre-include=/usr/include/finclude/math-vector-fortran.h
REM seed -683732299 -397144809 -1110154160 -1513792120 -334766931 1116665842 -2125102349 127478508 -1246520618 -786146880 82314680 -1288130680 -704236974 -723082072 -590996901 -1720814046 -1799996574 -766781429 -2126259747 -1122893924 1421901793 -132161337 -1633742731 -977843667 -1545356607 1359604472 -1054125713 138225009 286944627 1517763510 -995950376 729626197 -1201983413
REM
CELL 1.54180   50.00000   50.00000   50.00000   90.00000   90.00000   90.00000
LATT -1
SFAC C  
C      1  0.5416250000000  0.5180010000000  0.5760160000000 1.0
C      1  0.5964270000000  0.4466600000000  0.5303080000000 1.0
C      1  0.4923580000000  0.3882770000000  0.5090470000000 1.0
C      1  0.4025050000000  0.5672010000000  0.4898220000000 1.0
C      1  0.5937630000000  0.4564090000000  0.4360020000000 1.0
C      1  0.5336760000000  0.4216950000000  0.4619170000000 1.0
C      1  0.5451800000000  0.4639000000000  0.3960890000000 1.0
C      1  0.5850200000000  0.4327160000000  0.5060700000000 1.0
C      1  0.3904960000000  0.5094820000000  0.4443740000000 1.0
C      1  0.4830040000000  0.5855810000000  0.5570320000000 1.0
C      1  0.6074100000000  0.4285700000000  0.5494800000000 1.0
C      1  0.4252500000000  0.3990150000000  0.4878010000000 1.0
C      1  0.5071280000000  0.5725850000000  0.5482060000000 1.0
C      1  0.5467420000000  0.4421580000000  0.4156440000000 1.0
C      1  0.5265100000000  0.4598280000000  0.3753470000000 1.0
C      1  0.4164810000000  0.4204540000000  0.4399550000000 1.0
C      1  0.4918750000000  0.5001310000000  0.4439680000000 1.0
C      1  0.4418560000000  0.3859050000000  0.5064020000000 1.0
C      1  0.3723390000000  0.5310150000000  0.4859480000000 1.0
C      1  0.5250170000000  0.3982690000000  0.4209960000000 1.0
C      1  0.4533640000000  0.4617750000000  0.5472650000000 1.0
C      1  0.5528740000000  0.4765070000000  0.5158770000000 1.0
C      1  0.4097410000000  0.4487700000000  0.5288940000000 1.0
C      1  0.4773070000000  0.5880990000000  0.5836960000000 1.0
C      1  0.4185700000000  0.5007990000000  0.5065310000000 1.0
C      1  0.5349080000000  0.4711570000000  0.5761330000000 1.0
C      1  0.5682190000000  0.5743780000000  0.5910110000000 1.0
C      1  0.5726300000000  0.5770920000000  0.4718450000000 1.0
C      1  0.4921480000000  0.6368900000000  0.4523790000000 1.0
C      1  0.4178710000000  0.4355470000000  0.5782590000000 1.0
C      1  0.5293040000000  0.5613780000000  0.4523210000000 1.0
C      1  0.3674480000000  0.5499850000000  0.5288370000000 1.0
C      1  0.3505990000000  0.5279770000000  0.5269540000000 1.0
C      1  0.5217210000000  0.4857440000000  0.6367660000000 1.0
C      1  0.5016060000000  0.5031470000000  0.6372840000000 1.0
C      1  0.5808070000000  0.4554040000000  0.4600730000000 1.0
C      1  0.5409910000000  0.5558710000000  0.4247980000000 1.0
C      1  0.5260790000000  0.5661910000000  0.5684580000000 1.0
C      1  0.4096790000000  0.4890580000000  0.4500490000000 1.0
C      1  0.5877940000000  0.5522580000000  0.4316930000000 1.0
C      1  0.5384280000000  0.6122140000000  0.5330820000000 1.0
C      1  0.4627400000000  0.4532150000000  0.5221230000000 1.0
C      1  0.4902820000000  0.4419770000000  0.5794110000000 1.0
C      1  0.4608750000000  0.4740390000000  0.5023120000000 1.0
C      1  0.5895760000000  0.5292220000000  0.6081860000000 1.0
C      1  0.4760020000000  0.4033480000000  0.4319030000000 1.0
C      1  0.5745930000000  0.5112840000000  0.4632080000000 1.0
C      1  0.3743680000000  0.5066470000000  0.4223580000000 1.0
C      1  0.5885690000000  0.3843520000000  0.5412050000000 1.0
C      1  0.4049460000000  0.4467490000000  0.5572030000000 1.0
C      1  0.4356870000000  0.6069210000000  0.4696920000000 1.0
C      1  0.5194700000000  0.5110810000000  0.5264590000000 1.0
C      1  0.5796830000000  0.4834580000000  0.5627870000000 1.0
C      1  0.5094460000000  0.4606780000000  0.5667700000000 1.0
C      1  0.6046530000000  0.5483970000000  0.5071950000000 1.0
C      1  0.5657660000000  0.5271500000000  0.5268100000000 1.0
C      1  0.5041690000000  0.4687840000000  0.5395170000000 1.0
C      1  0.4659670000000  0.5971460000000  0.5379870000000 1.0
C      1  0.4924250000000  0.4446480000000  0.4484480000000 1.0
C      1  0.4886740000000  0.5623520000000  0.5056050000000 1.0
C      1  0.4432180000000  0.5962250000000  0.4947240000000 1.0
C      1  0.4291640000000  0.5708920000000  0.4990020000000 1.0
C      1  0.5051410000000  0.4623720000000  0.3598710000000 1.0
C      1  0.5196890000000  0.5605140000000  0.4060770000000 1.0
C      1  0.5941920000000  0.5251090000000  0.5232940000000 1.0
C      1  0.6056120000000  0.5420200000000  0.4783230000000 1.0
C      1  0.4350500000000  0.5207360000000  0.4909750000000 1.0
C      1  0.5277080000000  0.5403830000000  0.5788570000000 1.0
C      1  0.5185420000000  0.3910120000000  0.4973430000000 1.0
C      1  0.4248930000000  0.4369290000000  0.4181430000000 1.0
C      1  0.4455870000000  0.4382750000000  0.4721690000000 1.0
C      1  0.4712520000000  0.5258590000000  0.6066990000000 1.0
C      1  0.4582030000000  0.6267930000000  0.4163410000000 1.0
C      1  0.4343460000000  0.4115690000000  0.4627620000000 1.0
C      1  0.3973180000000  0.5722910000000  0.4155180000000 1.0
C      1  0.5152490000000  0.6183600000000  0.5198490000000 1.0
C      1  0.4934950000000  0.6309840000000  0.4782320000000 1.0
C      1  0.5358870000000  0.5630760000000  0.5050690000000 1.0
C      1  0.5660880000000  0.4095460000000  0.5028000000000 1.0
C      1  0.5273580000000  0.5199040000000  0.4821960000000 1.0
C      1  0.4728190000000  0.5173700000000  0.4556480000000 1.0
C      1  0.5935930000000  0.4431230000000  0.4814520000000 1.0
C      1  0.5641230000000  0.5014170000000  0.4393850000000 1.0
C      1  0.4477090000000  0.5097440000000  0.4669750000000 1.0
C      1  0.4664950000000  0.4234540000000  0.5701570000000 1.0
C      1  0.4834750000000  0.5238640000000  0.6318740000000 1.0
C      1  0.4577980000000  0.5162240000000  0.5325630000000 1.0
C      1  0.5638330000000  0.5129120000000  0.4135830000000 1.0
C      1  0.4475570000000  0.4654780000000  0.4778550000000 1.0
C      1  0.5572930000000  0.4905750000000  0.3962810000000 1.0
C      1  0.4712950000000  0.5520630000000  0.4874620000000 1.0
C      1  0.5533670000000  0.5196070000000  0.4797090000000 1.0
C      1  0.4991730000000  0.3906100000000  0.4225300000000 1.0
C      1  0.4553940000000  0.3943740000000  0.4490010000000 1.0
C      1  0.4980340000000  0.4935940000000  0.5276570000000 1.0
C      1  0.5390100000000  0.4199360000000  0.4330680000000 1.0
C      1  0.4838160000000  0.4345110000000  0.5187470000000 1.0
C      1  0.5115260000000  0.5669650000000  0.5199760000000 1.0
C      1  0.5572130000000  0.5946760000000  0.5467280000000 1.0
C      1  0.5797750000000  0.4801410000000  0.5922280000000 1.0
C      1  0.4619690000000  0.4072990000000  0.5467210000000 1.0
C      1  0.4612680000000  0.5301430000000  0.5824340000000 1.0
C      1  0.4800260000000  0.6359750000000  0.4286840000000 1.0
C      1  0.5161310000000  0.4892130000000  0.4403530000000 1.0
C      1  0.5551620000000  0.4669190000000  0.4654420000000 1.0
C      1  0.3928820000000  0.4585400000000  0.3807830000000 1.0
C      1  0.5955160000000  0.4758280000000  0.5384740000000 1.0
C      1  0.4256580000000  0.5987850000000  0.4444330000000 1.0
C      1  0.5442440000000  0.5690190000000  0.4763440000000 1.0
C      1  0.5425470000000  0.4693750000000  0.4904310000000 1.0
C      1  0.4837400000000  0.4081540000000  0.5278360000000 1.0
C      1  0.5902580000000  0.5023850000000  0.6063520000000 1.0
C      1  0.4911910000000  0.6186320000000  0.5033330000000 1.0
C      1  0.4107250000000  0.4757860000000  0.5163840000000 1.0
C      1  0.3819450000000  0.5535530000000  0.5041860000000 1.0
C      1  0.5096910000000  0.4470710000000  0.5189170000000 1.0
C      1  0.4812670000000  0.5436360000000  0.4626600000000 1.0
C      1  0.4721120000000  0.4975840000000  0.5167450000000 1.0
C      1  0.5477490000000  0.5030370000000  0.5306200000000 1.0
C      1  0.4999450000000  0.5584250000000  0.4474770000000 1.0
C      1  0.4832180000000  0.4687710000000  0.3472910000000 1.0
C      1  0.5727140000000  0.5756710000000  0.5319710000000 1.0
C      1  0.4560360000000  0.4396070000000  0.6121650000000 1.0
C      1  0.5912580000000  0.5588670000000  0.4590180000000 1.0
C      1  0.5492700000000  0.5827530000000  0.5717000000000 1.0
C      1  0.4558740000000  0.5280220000000  0.5564400000000 1.0
C      1  0.5728420000000  0.3874430000000  0.5195800000000 1.0
C      1  0.5500550000000  0.4940120000000  0.5597150000000 1.0
C      1  0.4433040000000  0.4288520000000  0.5885310000000 1.0
C      1  0.5875510000000  0.5916120000000  0.4914400000000 1.0
C      1  0.4380100000000  0.4037960000000  0.5304750000000 1.0
C      1  0.4003490000000  0.5588960000000  0.4614790000000 1.0
C      1  0.6038010000000  0.4023200000000  0.5542800000000 1.0
C      1  0.4446390000000  0.5472940000000  0.4958830000000 1.0
C      1  0.4822960000000  0.4469420000000  0.6073320000000 1.0
C      1  0.4657720000000  0.6057970000000  0.5110400000000 1.0
C      1  0.6108930000000  0.4951520000000  0.4925340000000 1.0
C      1  0.4354420000000  0.4851170000000  0.4609940000000 1.0
C      1  0.5336460000000  0.4349930000000  0.5315190000000 1.0
C      1  0.4943030000000  0.5623780000000  0.4190670000000 1.0
C      1  0.5411550000000  0.4719870000000  0.6246870000000 1.0
C      1  0.4527330000000  0.4426930000000  0.4171580000000 1.0
C      1  0.6008250000000  0.5139560000000  0.4734360000000 1.0
C      1  0.4756990000000  0.4321120000000  0.4296500000000 1.0
C      1  0.4473600000000  0.4775130000000  0.5672660000000 1.0
C      1  0.4779480000000  0.5424950000000  0.6511600000000 1.0
C      1  0.4071510000000  0.4468660000000  0.3992050000000 1.0
C      1  0.5531510000000  0.4691390000000  0.5995220000000 1.0
C      1  0.5174920000000  0.4556190000000  0.4913880000000 1.0
C      1  0.5818480000000  0.5543090000000  0.6025800000000 1.0
C      1  0.5122410000000  0.4405760000000  0.4679180000000 1.0
C      1  0.5950920000000  0.5757660000000  0.5141960000000 1.0
C      1  0.4679220000000  0.3750590000000  0.5011850000000 1.0
C      1  0.5649180000000  0.5417840000000  0.4181220000000 1.0
C      1  0.3530520000000  0.5164570000000  0.5017770000000 1.0
C      1  0.4200190000000  0.4236460000000  0.5190950000000 1.0
C      1  0.4365000000000  0.6123640000000  0.4222900000000 1.0
C      1  0.4078620000000  0.5765020000000  0.4405450000000 1.0
C      1  0.5412970000000  0.4061560000000  0.4859560000000 1.0
C      1  0.5431590000000  0.4829680000000  0.4450490000000 1.0
C      1  0.6038500000000  0.4975540000000  0.5203190000000 1.0
C      1  0.5563050000000  0.5535680000000  0.5226110000000 1.0
C      1  0.3869370000000  0.5324100000000  0.4610520000000 1.0
C      1  0.4701630000000  0.5648180000000  0.4070380000000 1.0
C      1  0.5540930000000  0.4530040000000  0.5328020000000 1.0
END
