TITL C-627113-6568-1679 109966.488290852 125000 -1107.19154722013 0 0 184 (C1) n - 1
REM
REM in /home/nfs/bkarasulu/CARBON/AIRSS/Generating-Clusters/LCBOP/Only-C1/SD-CG/FIRE-CG
REM
REM
REM
REM
REM
REM ./C.cell (11c1c37f851c82e70ff6c80c92926a4b)
REM AIRSS Version 0.9.1 bugfix July 2018 build 013d7b7c2542+ Fri, 06 Jul 2018 19:26:36 +0100
REM compiler GCC version 9.2.1 20190827 (Red Hat 9.2.1-1)
REM options -cpp -mtune=generic -march=x86-64 -g -O0 -fpre-include=/usr/include/finclude/math-vector-fortran.h
REM seed 1305894961 807462737 -207028065 -155982401 226962316 -1308322657 -513742396 -308084155 -2129596973 1313704392 -1335221524 2090018948 790353005 1477178136 -1852853211 660907998 1424057654 1424317737 294256609 3800465 2081359587 1395550765 498246664 -1250483795 -950956544 399332026 -347410550 1258162908 -1553471508 69561491 -348802929 1764558624 2142880818
REM
CELL 1.54180   50.00000   50.00000   50.00000   90.00000   90.00000   90.00000
LATT -1
SFAC C  
C      1  0.3970020000000  0.5703110000000  0.4752240000000 1.0
C      1  0.4851610000000  0.5747070000000  0.4657770000000 1.0
C      1  0.5442970000000  0.6201400000000  0.5007170000000 1.0
C      1  0.5585200000000  0.5032340000000  0.4795250000000 1.0
C      1  0.5626120000000  0.3920450000000  0.4022290000000 1.0
C      1  0.5279630000000  0.5239440000000  0.5579940000000 1.0
C      1  0.4639920000000  0.4985250000000  0.5957130000000 1.0
C      1  0.4281210000000  0.5324710000000  0.4611350000000 1.0
C      1  0.4016850000000  0.4042700000000  0.5731360000000 1.0
C      1  0.4494510000000  0.4269440000000  0.4424340000000 1.0
C      1  0.6152990000000  0.5202370000000  0.4876130000000 1.0
C      1  0.5878800000000  0.5910720000000  0.5045750000000 1.0
C      1  0.5069820000000  0.5067270000000  0.5707520000000 1.0
C      1  0.5284470000000  0.4746780000000  0.3921050000000 1.0
C      1  0.4605470000000  0.4332220000000  0.4670970000000 1.0
C      1  0.5007030000000  0.4072200000000  0.4630710000000 1.0
C      1  0.5303050000000  0.5589630000000  0.6069900000000 1.0
C      1  0.6039850000000  0.4531350000000  0.5150370000000 1.0
C      1  0.3861930000000  0.4658580000000  0.4926030000000 1.0
C      1  0.4376200000000  0.5538070000000  0.4237510000000 1.0
C      1  0.4952110000000  0.5149750000000  0.5087680000000 1.0
C      1  0.4084270000000  0.5526180000000  0.5341080000000 1.0
C      1  0.5436980000000  0.5706730000000  0.4691200000000 1.0
C      1  0.5200260000000  0.4771650000000  0.5029870000000 1.0
C      1  0.5326540000000  0.4980780000000  0.4881230000000 1.0
C      1  0.4624860000000  0.4022220000000  0.5363720000000 1.0
C      1  0.4713140000000  0.4381860000000  0.5139140000000 1.0
C      1  0.5704750000000  0.5698640000000  0.4616950000000 1.0
C      1  0.5085730000000  0.4670240000000  0.4366140000000 1.0
C      1  0.5859560000000  0.5413640000000  0.5589810000000 1.0
C      1  0.4027830000000  0.4424880000000  0.4986090000000 1.0
C      1  0.5318190000000  0.6019560000000  0.4352040000000 1.0
C      1  0.5686290000000  0.5447930000000  0.5811320000000 1.0
C      1  0.5161740000000  0.3994010000000  0.5352800000000 1.0
C      1  0.5424230000000  0.5403870000000  0.3865940000000 1.0
C      1  0.5237350000000  0.4842090000000  0.6255550000000 1.0
C      1  0.6019290000000  0.4944280000000  0.4832480000000 1.0
C      1  0.4539210000000  0.6123020000000  0.4599830000000 1.0
C      1  0.4833290000000  0.4193370000000  0.6350450000000 1.0
C      1  0.6025350000000  0.4875570000000  0.5561090000000 1.0
C      1  0.5365170000000  0.4435030000000  0.4701880000000 1.0
C      1  0.4877990000000  0.5853450000000  0.5882080000000 1.0
C      1  0.5209640000000  0.6125990000000  0.4856440000000 1.0
C      1  0.6228290000000  0.4383580000000  0.5008180000000 1.0
C      1  0.5546850000000  0.5158270000000  0.3935240000000 1.0
C      1  0.6001780000000  0.5162540000000  0.5578250000000 1.0
C      1  0.4638690000000  0.4868610000000  0.5489370000000 1.0
C      1  0.5896470000000  0.4689430000000  0.5737520000000 1.0
C      1  0.4580350000000  0.5632670000000  0.5014590000000 1.0
C      1  0.4259600000000  0.4664080000000  0.4408860000000 1.0
C      1  0.5979210000000  0.5416640000000  0.4345760000000 1.0
C      1  0.5334140000000  0.4653910000000  0.4494360000000 1.0
C      1  0.5159540000000  0.5097480000000  0.6170270000000 1.0
C      1  0.4251470000000  0.4911050000000  0.4881650000000 1.0
C      1  0.4251370000000  0.6092840000000  0.4633440000000 1.0
C      1  0.3849550000000  0.4974620000000  0.4452690000000 1.0
C      1  0.5749800000000  0.4451360000000  0.5684520000000 1.0
C      1  0.4426890000000  0.5094740000000  0.4499670000000 1.0
C      1  0.5078380000000  0.5407510000000  0.4510240000000 1.0
C      1  0.3877880000000  0.4851740000000  0.5150110000000 1.0
C      1  0.5057670000000  0.5402900000000  0.3469930000000 1.0
C      1  0.5914540000000  0.5650260000000  0.4459770000000 1.0
C      1  0.4616900000000  0.5437190000000  0.5220900000000 1.0
C      1  0.4102010000000  0.5941530000000  0.4834010000000 1.0
C      1  0.5773930000000  0.5590470000000  0.5376300000000 1.0
C      1  0.5087900000000  0.4798290000000  0.5629570000000 1.0
C      1  0.4882000000000  0.5359700000000  0.5291310000000 1.0
C      1  0.5178670000000  0.5691480000000  0.5059790000000 1.0
C      1  0.5339200000000  0.4490690000000  0.3805450000000 1.0
C      1  0.4301690000000  0.4664810000000  0.5787040000000 1.0
C      1  0.4777330000000  0.4310190000000  0.6124320000000 1.0
C      1  0.5391260000000  0.5875920000000  0.4135080000000 1.0
C      1  0.5618200000000  0.4266080000000  0.5856400000000 1.0
C      1  0.5536990000000  0.5687320000000  0.5906830000000 1.0
C      1  0.5966370000000  0.4699710000000  0.4586630000000 1.0
C      1  0.5357960000000  0.4424520000000  0.5397700000000 1.0
C      1  0.4036820000000  0.5071610000000  0.5034380000000 1.0
C      1  0.4232660000000  0.5935190000000  0.5095160000000 1.0
C      1  0.3984390000000  0.5345490000000  0.5127440000000 1.0
C      1  0.4594020000000  0.5477510000000  0.5911050000000 1.0
C      1  0.4491070000000  0.5868030000000  0.5547220000000 1.0
C      1  0.4935840000000  0.6152320000000  0.4973620000000 1.0
C      1  0.5316400000000  0.4550480000000  0.5147760000000 1.0
C      1  0.5490890000000  0.5870840000000  0.5691690000000 1.0
C      1  0.5005430000000  0.4238910000000  0.4007920000000 1.0
C      1  0.4572830000000  0.4698070000000  0.5889840000000 1.0
C      1  0.4906490000000  0.4010890000000  0.4132180000000 1.0
C      1  0.5250270000000  0.5402330000000  0.3645510000000 1.0
C      1  0.5299410000000  0.5960610000000  0.4628930000000 1.0
C      1  0.3996160000000  0.4162010000000  0.4888800000000 1.0
C      1  0.5347600000000  0.5295000000000  0.6083730000000 1.0
C      1  0.5243320000000  0.5230480000000  0.5010780000000 1.0
C      1  0.5487110000000  0.4864500000000  0.4408070000000 1.0
C      1  0.4514790000000  0.5914540000000  0.5035390000000 1.0
C      1  0.5372640000000  0.3958760000000  0.4881960000000 1.0
C      1  0.5230360000000  0.4644000000000  0.5816110000000 1.0
C      1  0.4400760000000  0.4471150000000  0.4255140000000 1.0
C      1  0.4448950000000  0.3948260000000  0.4909520000000 1.0
C      1  0.6118830000000  0.4743880000000  0.5325170000000 1.0
C      1  0.4428820000000  0.5243050000000  0.5315730000000 1.0
C      1  0.4443060000000  0.5540500000000  0.4526240000000 1.0
C      1  0.4035470000000  0.5445880000000  0.4692630000000 1.0
C      1  0.5429970000000  0.5166050000000  0.5317820000000 1.0
C      1  0.5061240000000  0.4349990000000  0.4705020000000 1.0
C      1  0.4935100000000  0.4842890000000  0.5132430000000 1.0
C      1  0.5764420000000  0.4457640000000  0.5150900000000 1.0
C      1  0.4269720000000  0.4465570000000  0.5151620000000 1.0
C      1  0.5375130000000  0.4151750000000  0.5798860000000 1.0
C      1  0.5189370000000  0.4214860000000  0.5567040000000 1.0
C      1  0.4307660000000  0.4862810000000  0.4602840000000 1.0
C      1  0.4893270000000  0.4741840000000  0.5417800000000 1.0
C      1  0.5745570000000  0.4703030000000  0.4103460000000 1.0
C      1  0.5807900000000  0.4536200000000  0.4353600000000 1.0
C      1  0.5503220000000  0.4170920000000  0.4622640000000 1.0
C      1  0.5515450000000  0.4154110000000  0.4120520000000 1.0
C      1  0.4904160000000  0.4335350000000  0.5646740000000 1.0
C      1  0.4555940000000  0.4834830000000  0.3980280000000 1.0
C      1  0.5039540000000  0.6068890000000  0.5799330000000 1.0
C      1  0.4895110000000  0.5199670000000  0.4551120000000 1.0
C      1  0.5639090000000  0.4262990000000  0.4368150000000 1.0
C      1  0.4608680000000  0.5744310000000  0.5784140000000 1.0
C      1  0.5531420000000  0.4483070000000  0.4962910000000 1.0
C      1  0.5642380000000  0.5060080000000  0.4522880000000 1.0
C      1  0.4375490000000  0.4201450000000  0.5359610000000 1.0
C      1  0.4620330000000  0.5614770000000  0.4734270000000 1.0
C      1  0.4671510000000  0.6095450000000  0.4858390000000 1.0
C      1  0.5291100000000  0.4265900000000  0.3970080000000 1.0
C      1  0.4910290000000  0.3964600000000  0.4393800000000 1.0
C      1  0.5516730000000  0.5736750000000  0.5434370000000 1.0
C      1  0.5475970000000  0.5251590000000  0.5821280000000 1.0
C      1  0.4895780000000  0.3792370000000  0.5006870000000 1.0
C      1  0.4876790000000  0.6149910000000  0.5261520000000 1.0
C      1  0.4084240000000  0.4709110000000  0.5630640000000 1.0
C      1  0.4819790000000  0.4449580000000  0.5395610000000 1.0
C      1  0.4926160000000  0.5121970000000  0.5975190000000 1.0
C      1  0.5259770000000  0.5662660000000  0.5326440000000 1.0
C      1  0.5102050000000  0.5459420000000  0.5455630000000 1.0
C      1  0.4962260000000  0.5654390000000  0.4411640000000 1.0
C      1  0.5847500000000  0.5188340000000  0.4386980000000 1.0
C      1  0.6078860000000  0.5439790000000  0.4999220000000 1.0
C      1  0.5649670000000  0.4426560000000  0.5419480000000 1.0
C      1  0.4772780000000  0.4960750000000  0.4125100000000 1.0
C      1  0.4558180000000  0.4549690000000  0.4029330000000 1.0
C      1  0.4821590000000  0.5168920000000  0.4821070000000 1.0
C      1  0.6384620000000  0.4226390000000  0.4871160000000 1.0
C      1  0.3924920000000  0.4778490000000  0.5422080000000 1.0
C      1  0.5300080000000  0.6075490000000  0.5727610000000 1.0
C      1  0.5025840000000  0.5644820000000  0.6026100000000 1.0
C      1  0.5282900000000  0.4642660000000  0.6080230000000 1.0
C      1  0.5399490000000  0.3939330000000  0.5174740000000 1.0
C      1  0.4676250000000  0.6060040000000  0.5426000000000 1.0
C      1  0.5448950000000  0.5646930000000  0.4007560000000 1.0
C      1  0.5258770000000  0.5503580000000  0.4830520000000 1.0
C      1  0.4142510000000  0.5358120000000  0.4181280000000 1.0
C      1  0.4170430000000  0.3956150000000  0.4872490000000 1.0
C      1  0.5632910000000  0.3842860000000  0.5283500000000 1.0
C      1  0.5013600000000  0.4745110000000  0.4083630000000 1.0
C      1  0.4847350000000  0.4482110000000  0.4003540000000 1.0
C      1  0.4697650000000  0.5093540000000  0.4372980000000 1.0
C      1  0.4726420000000  0.4658360000000  0.4982670000000 1.0
C      1  0.5923710000000  0.5643820000000  0.5136970000000 1.0
C      1  0.5696010000000  0.6109950000000  0.5039070000000 1.0
C      1  0.4467160000000  0.4963960000000  0.5295540000000 1.0
C      1  0.4209020000000  0.5793530000000  0.5349470000000 1.0
C      1  0.4786390000000  0.5805500000000  0.4225090000000 1.0
C      1  0.4677200000000  0.6050200000000  0.4354610000000 1.0
C      1  0.4854730000000  0.5415170000000  0.6013840000000 1.0
C      1  0.4893130000000  0.3917080000000  0.5270490000000 1.0
C      1  0.4431110000000  0.4759970000000  0.5069830000000 1.0
C      1  0.4578850000000  0.4205570000000  0.4928610000000 1.0
C      1  0.4822100000000  0.4527060000000  0.4719450000000 1.0
C      1  0.4228240000000  0.5336180000000  0.5497780000000 1.0
C      1  0.4221180000000  0.5233140000000  0.5755130000000 1.0
C      1  0.3964960000000  0.5161760000000  0.4278430000000 1.0
C      1  0.4454540000000  0.5222190000000  0.5908730000000 1.0
C      1  0.5672150000000  0.5047310000000  0.5246500000000 1.0
C      1  0.4633640000000  0.3734710000000  0.4912410000000 1.0
C      1  0.5778360000000  0.4983800000000  0.4990790000000 1.0
C      1  0.4754220000000  0.4452160000000  0.5880720000000 1.0
C      1  0.5098540000000  0.3889510000000  0.4824350000000 1.0
C      1  0.4179920000000  0.4131160000000  0.5548320000000 1.0
C      1  0.4583850000000  0.5657490000000  0.4085930000000 1.0
C      1  0.3810030000000  0.4789160000000  0.4659640000000 1.0
C      1  0.5538430000000  0.4878590000000  0.3978320000000 1.0
END
