TITL C-627112-676-233 3.54642404142961e-07 125000 -631.786854617469 0 0 104 (C1) n - 1
REM
REM in /home/nfs/bkarasulu/CARBON/AIRSS/Generating-Clusters/LCBOP/Only-C1/SD-CG/FIRE-CG
REM
REM
REM
REM
REM
REM ./C.cell (11c1c37f851c82e70ff6c80c92926a4b)
REM AIRSS Version 0.9.1 bugfix July 2018 build 013d7b7c2542+ Fri, 06 Jul 2018 19:26:36 +0100
REM compiler GCC version 9.2.1 20190827 (Red Hat 9.2.1-1)
REM options -cpp -mtune=generic -march=x86-64 -g -O0 -fpre-include=/usr/include/finclude/math-vector-fortran.h
REM seed -1739410197 -915274927 -1009207602 857197130 58350146 -2019028738 353214639 -1459754507 -58291557 -1518903895 1640314309 1212560438 1058974723 -123798721 1610275573 712751105 39508546 -954718997 1211246588 217060097 1308904381 348462372 -1833294633 1969221053 1939770441 -1279259133 -539749281 1007263121 -416639176 218510412 1055597912 -1778294280 266320929
REM
CELL 1.54180   50.00000   50.00000   50.00000   90.00000   90.00000   90.00000
LATT -1
SFAC C  
C      1  0.5330370000000  0.4942220000000  0.5248080000000 1.0
C      1  0.5119460000000  0.5516670000000  0.4869110000000 1.0
C      1  0.5787010000000  0.5165660000000  0.5020610000000 1.0
C      1  0.4414330000000  0.4797300000000  0.4281450000000 1.0
C      1  0.5054280000000  0.5627080000000  0.5437580000000 1.0
C      1  0.5381550000000  0.4494870000000  0.5380390000000 1.0
C      1  0.4348050000000  0.4304350000000  0.4488830000000 1.0
C      1  0.5372910000000  0.5438370000000  0.4884920000000 1.0
C      1  0.5938500000000  0.5008920000000  0.5433620000000 1.0
C      1  0.5412870000000  0.4881940000000  0.4778980000000 1.0
C      1  0.5714500000000  0.5711580000000  0.5191180000000 1.0
C      1  0.5828170000000  0.5029850000000  0.4373860000000 1.0
C      1  0.5016930000000  0.4974620000000  0.4163810000000 1.0
C      1  0.5191100000000  0.4532810000000  0.4012090000000 1.0
C      1  0.5845340000000  0.4924840000000  0.4860930000000 1.0
C      1  0.4902890000000  0.5426570000000  0.5017540000000 1.0
C      1  0.4149450000000  0.4909760000000  0.5127220000000 1.0
C      1  0.4365500000000  0.5597650000000  0.5130140000000 1.0
C      1  0.4705440000000  0.5060520000000  0.6123270000000 1.0
C      1  0.4247190000000  0.5161950000000  0.4014860000000 1.0
C      1  0.4720250000000  0.4461640000000  0.5675490000000 1.0
C      1  0.4795150000000  0.4416370000000  0.4612060000000 1.0
C      1  0.5184050000000  0.4479970000000  0.5591020000000 1.0
C      1  0.4353500000000  0.4540650000000  0.4350500000000 1.0
C      1  0.4673110000000  0.5293290000000  0.5403190000000 1.0
C      1  0.4442430000000  0.5071100000000  0.4196590000000 1.0
C      1  0.5536540000000  0.4449380000000  0.4900240000000 1.0
C      1  0.3822530000000  0.4437340000000  0.4748240000000 1.0
C      1  0.4673870000000  0.5007090000000  0.5348500000000 1.0
C      1  0.5397580000000  0.5312640000000  0.4163980000000 1.0
C      1  0.5769010000000  0.4786820000000  0.5489930000000 1.0
C      1  0.4067780000000  0.5250130000000  0.3847680000000 1.0
C      1  0.4918710000000  0.4054190000000  0.5461170000000 1.0
C      1  0.4579570000000  0.5479030000000  0.4454540000000 1.0
C      1  0.4721490000000  0.4678940000000  0.4673430000000 1.0
C      1  0.5282370000000  0.5965150000000  0.4981970000000 1.0
C      1  0.4948670000000  0.4302020000000  0.5591950000000 1.0
C      1  0.5135670000000  0.5434840000000  0.4180700000000 1.0
C      1  0.5040080000000  0.5404470000000  0.5984580000000 1.0
C      1  0.4828200000000  0.4704180000000  0.5806690000000 1.0
C      1  0.5679570000000  0.5447240000000  0.4520840000000 1.0
C      1  0.4732600000000  0.4180720000000  0.4755340000000 1.0
C      1  0.5373160000000  0.4987620000000  0.4519110000000 1.0
C      1  0.4740290000000  0.5925920000000  0.5011410000000 1.0
C      1  0.5816740000000  0.5491060000000  0.5374790000000 1.0
C      1  0.4246970000000  0.5150970000000  0.4998650000000 1.0
C      1  0.5525200000000  0.5294640000000  0.5067590000000 1.0
C      1  0.4457820000000  0.5484980000000  0.5379750000000 1.0
C      1  0.5446140000000  0.5844660000000  0.5200190000000 1.0
C      1  0.5062980000000  0.4768000000000  0.3979940000000 1.0
C      1  0.5683320000000  0.5417600000000  0.5620830000000 1.0
C      1  0.4895450000000  0.4579140000000  0.5167130000000 1.0
C      1  0.5925160000000  0.5236180000000  0.5262820000000 1.0
C      1  0.4927030000000  0.4863420000000  0.4623240000000 1.0
C      1  0.4345200000000  0.4250160000000  0.5417280000000 1.0
C      1  0.4903480000000  0.4139010000000  0.4981050000000 1.0
C      1  0.4915570000000  0.5244290000000  0.4163580000000 1.0
C      1  0.5337250000000  0.5960390000000  0.4703080000000 1.0
C      1  0.5275940000000  0.5461660000000  0.5850810000000 1.0
C      1  0.4242780000000  0.4700480000000  0.4942490000000 1.0
C      1  0.5136210000000  0.5693250000000  0.4295060000000 1.0
C      1  0.5220050000000  0.4930930000000  0.4982230000000 1.0
C      1  0.5520370000000  0.4298690000000  0.4660330000000 1.0
C      1  0.5570740000000  0.5191390000000  0.4381940000000 1.0
C      1  0.4876890000000  0.3969610000000  0.5206220000000 1.0
C      1  0.4147590000000  0.4830580000000  0.5398260000000 1.0
C      1  0.5508190000000  0.4748900000000  0.5371250000000 1.0
C      1  0.4778730000000  0.5199960000000  0.4910310000000 1.0
C      1  0.5276940000000  0.4980550000000  0.5740960000000 1.0
C      1  0.5961180000000  0.4955920000000  0.4601600000000 1.0
C      1  0.5408970000000  0.5269900000000  0.5634100000000 1.0
C      1  0.5417040000000  0.5682670000000  0.5934070000000 1.0
C      1  0.4977970000000  0.5005610000000  0.4860990000000 1.0
C      1  0.4279630000000  0.4114810000000  0.5196810000000 1.0
C      1  0.4645410000000  0.5270020000000  0.4269980000000 1.0
C      1  0.4510780000000  0.5094170000000  0.4881820000000 1.0
C      1  0.5114870000000  0.4738970000000  0.5737210000000 1.0
C      1  0.4533410000000  0.5742180000000  0.4937730000000 1.0
C      1  0.5808250000000  0.5614730000000  0.4685830000000 1.0
C      1  0.5325040000000  0.4369680000000  0.4177240000000 1.0
C      1  0.5837300000000  0.5719480000000  0.4931980000000 1.0
C      1  0.4635550000000  0.4866970000000  0.5937750000000 1.0
C      1  0.4450080000000  0.4460420000000  0.5570550000000 1.0
C      1  0.5632530000000  0.4722720000000  0.4862440000000 1.0
C      1  0.5338160000000  0.4393250000000  0.5111960000000 1.0
C      1  0.4448900000000  0.4143340000000  0.4709170000000 1.0
C      1  0.4173070000000  0.5420360000000  0.5017690000000 1.0
C      1  0.4372860000000  0.4849160000000  0.5834890000000 1.0
C      1  0.4691920000000  0.4770910000000  0.5172040000000 1.0
C      1  0.4295040000000  0.4703870000000  0.5605260000000 1.0
C      1  0.5056950000000  0.4373360000000  0.5054800000000 1.0
C      1  0.5390990000000  0.5209470000000  0.5317830000000 1.0
C      1  0.4536220000000  0.5641860000000  0.4666220000000 1.0
C      1  0.5860070000000  0.4599230000000  0.5669170000000 1.0
C      1  0.5114130000000  0.4915470000000  0.4421290000000 1.0
C      1  0.4896900000000  0.5442370000000  0.5300970000000 1.0
C      1  0.4857300000000  0.5277930000000  0.6127640000000 1.0
C      1  0.4998800000000  0.6004530000000  0.5035510000000 1.0
C      1  0.4049370000000  0.4540320000000  0.4825790000000 1.0
C      1  0.4300500000000  0.4065180000000  0.4934460000000 1.0
C      1  0.5277570000000  0.5774810000000  0.5418240000000 1.0
C      1  0.5244250000000  0.5870080000000  0.4466610000000 1.0
C      1  0.4535540000000  0.4779070000000  0.4897560000000 1.0
C      1  0.5438630000000  0.4288380000000  0.4405420000000 1.0
END
