TITL C-627106-156-29 -133.570146233445 125000 -1183.3453383861 0 0 193 (C1) n - 1
REM
REM in /home/nfs/bkarasulu/CARBON/AIRSS/Generating-Clusters/LCBOP/Only-C1/SD-CG/FIRE-CG
REM
REM
REM
REM
REM
REM ./C.cell (11c1c37f851c82e70ff6c80c92926a4b)
REM AIRSS Version 0.9.1 bugfix July 2018 build 013d7b7c2542+ Fri, 06 Jul 2018 19:26:36 +0100
REM compiler GCC version 9.2.1 20190827 (Red Hat 9.2.1-1)
REM options -cpp -mtune=generic -march=x86-64 -g -O0 -fpre-include=/usr/include/finclude/math-vector-fortran.h
REM seed -196274013 1386314554 1192903403 1352913057 -1166397680 -184793398 -1114309992 641676203 1437020448 1829573384 -1954314392 -1697229255 -199454462 -320895949 1317320357 -636110865 -1216622282 1716942898 -974734777 567936518 -980186750 -1971041183 -661188924 -1322501556 -151587657 154788009 154646225 -1995114871 -1626598505 1465650434 662529469 1990904243 -1355064377
REM
CELL 1.54180   50.00000   50.00000   50.00000   90.00000   90.00000   90.00000
LATT -1
SFAC C  
C      1  0.4205190000000  0.3195490000000  0.5698880000000 1.0
C      1  0.5037350000000  0.4606540000000  0.5473790000000 1.0
C      1  0.4777420000000  0.3999400000000  0.4368320000000 1.0
C      1  0.5918090000000  0.4162250000000  0.5025370000000 1.0
C      1  0.4708320000000  0.5002050000000  0.5853730000000 1.0
C      1  0.4209230000000  0.5335740000000  0.5661900000000 1.0
C      1  0.4462870000000  0.5660580000000  0.4302310000000 1.0
C      1  0.4140120000000  0.5147060000000  0.5235030000000 1.0
C      1  0.5326790000000  0.5421210000000  0.3916020000000 1.0
C      1  0.5634660000000  0.4580260000000  0.3932580000000 1.0
C      1  0.5474220000000  0.3973040000000  0.4778020000000 1.0
C      1  0.5029830000000  0.6005100000000  0.4188660000000 1.0
C      1  0.3601360000000  0.4635450000000  0.5161350000000 1.0
C      1  0.6819590000000  0.5141460000000  0.4500060000000 1.0
C      1  0.5040860000000  0.5280610000000  0.4304250000000 1.0
C      1  0.4020810000000  0.4573140000000  0.4607780000000 1.0
C      1  0.5359490000000  0.4487640000000  0.3913130000000 1.0
C      1  0.4934070000000  0.5028900000000  0.5157640000000 1.0
C      1  0.3268880000000  0.4610350000000  0.5812440000000 1.0
C      1  0.5654820000000  0.4718240000000  0.6206680000000 1.0
C      1  0.4351530000000  0.4566160000000  0.4151340000000 1.0
C      1  0.5117430000000  0.5158010000000  0.4959870000000 1.0
C      1  0.5956980000000  0.4854690000000  0.5275780000000 1.0
C      1  0.4846450000000  0.4430330000000  0.5327580000000 1.0
C      1  0.4972670000000  0.4260100000000  0.5912240000000 1.0
C      1  0.5076980000000  0.5730190000000  0.4191250000000 1.0
C      1  0.4601540000000  0.4399400000000  0.5164820000000 1.0
C      1  0.5601570000000  0.5433550000000  0.6229280000000 1.0
C      1  0.4423300000000  0.5521670000000  0.4043020000000 1.0
C      1  0.4395030000000  0.6292490000000  0.4594160000000 1.0
C      1  0.5359740000000  0.4926360000000  0.4373430000000 1.0
C      1  0.5172900000000  0.5109400000000  0.4471540000000 1.0
C      1  0.5930150000000  0.5722140000000  0.4782940000000 1.0
C      1  0.5179800000000  0.6189280000000  0.4313630000000 1.0
C      1  0.4029830000000  0.5170830000000  0.4079990000000 1.0
C      1  0.5246430000000  0.5547040000000  0.5907920000000 1.0
C      1  0.6114880000000  0.5296230000000  0.4369860000000 1.0
C      1  0.5279900000000  0.4162070000000  0.4693820000000 1.0
C      1  0.4304880000000  0.3425470000000  0.5591610000000 1.0
C      1  0.6178540000000  0.5743980000000  0.5353150000000 1.0
C      1  0.4588230000000  0.5097050000000  0.4625660000000 1.0
C      1  0.4871460000000  0.5239510000000  0.5832760000000 1.0
C      1  0.5105240000000  0.5791450000000  0.5876410000000 1.0
C      1  0.5438860000000  0.4940520000000  0.5659440000000 1.0
C      1  0.4440770000000  0.5437780000000  0.5540060000000 1.0
C      1  0.4957720000000  0.4762820000000  0.4002240000000 1.0
C      1  0.6146200000000  0.5063270000000  0.4774870000000 1.0
C      1  0.4310740000000  0.4165040000000  0.4434560000000 1.0
C      1  0.5975280000000  0.5527410000000  0.4984690000000 1.0
C      1  0.5731840000000  0.4794950000000  0.4095910000000 1.0
C      1  0.5296150000000  0.4266850000000  0.4109950000000 1.0
C      1  0.5267450000000  0.5342070000000  0.5475190000000 1.0
C      1  0.3465060000000  0.4762600000000  0.5368560000000 1.0
C      1  0.4657110000000  0.5859840000000  0.5713950000000 1.0
C      1  0.4245400000000  0.4048090000000  0.5215320000000 1.0
C      1  0.5174680000000  0.4959540000000  0.6256850000000 1.0
C      1  0.4610120000000  0.5584860000000  0.3836160000000 1.0
C      1  0.4553150000000  0.4602410000000  0.4976160000000 1.0
C      1  0.5328900000000  0.5433910000000  0.6159240000000 1.0
C      1  0.4652030000000  0.5069050000000  0.5238500000000 1.0
C      1  0.4063300000000  0.4673290000000  0.4878600000000 1.0
C      1  0.5442820000000  0.4863350000000  0.6291710000000 1.0
C      1  0.5297420000000  0.4676760000000  0.5091110000000 1.0
C      1  0.5187370000000  0.6142610000000  0.4971720000000 1.0
C      1  0.5649850000000  0.4072590000000  0.5454170000000 1.0
C      1  0.5973870000000  0.4634470000000  0.4532850000000 1.0
C      1  0.4968730000000  0.4194840000000  0.4254520000000 1.0
C      1  0.5287890000000  0.5861000000000  0.5422860000000 1.0
C      1  0.5338240000000  0.6050150000000  0.5214330000000 1.0
C      1  0.4933910000000  0.4072320000000  0.5715480000000 1.0
C      1  0.4859140000000  0.5401460000000  0.6081390000000 1.0
C      1  0.6078520000000  0.4775520000000  0.4780050000000 1.0
C      1  0.4988300000000  0.4750620000000  0.6169020000000 1.0
C      1  0.4524390000000  0.4869570000000  0.5690450000000 1.0
C      1  0.4922900000000  0.5530220000000  0.4313930000000 1.0
C      1  0.4416070000000  0.5653060000000  0.5357560000000 1.0
C      1  0.4444170000000  0.4997210000000  0.3947700000000 1.0
C      1  0.3839490000000  0.4636370000000  0.5043880000000 1.0
C      1  0.4463710000000  0.4155540000000  0.5079660000000 1.0
C      1  0.5387130000000  0.6139430000000  0.4492490000000 1.0
C      1  0.4138340000000  0.3625100000000  0.5485960000000 1.0
C      1  0.5585080000000  0.5183890000000  0.5139200000000 1.0
C      1  0.5243010000000  0.4398550000000  0.5086980000000 1.0
C      1  0.6560730000000  0.5158530000000  0.4524890000000 1.0
C      1  0.4048150000000  0.5386810000000  0.4580160000000 1.0
C      1  0.6033740000000  0.5052490000000  0.5731160000000 1.0
C      1  0.5580870000000  0.5100750000000  0.5832460000000 1.0
C      1  0.4339460000000  0.4284530000000  0.4172690000000 1.0
C      1  0.4951010000000  0.5998420000000  0.4903800000000 1.0
C      1  0.3799150000000  0.5077260000000  0.5615650000000 1.0
C      1  0.4635130000000  0.5257080000000  0.5451840000000 1.0
C      1  0.3611080000000  0.4877650000000  0.6051800000000 1.0
C      1  0.4722820000000  0.4662260000000  0.4760650000000 1.0
C      1  0.4369640000000  0.4984270000000  0.5160800000000 1.0
C      1  0.4944220000000  0.3982450000000  0.5210570000000 1.0
C      1  0.5796710000000  0.5734670000000  0.5688440000000 1.0
C      1  0.5129330000000  0.4845400000000  0.5298910000000 1.0
C      1  0.4849260000000  0.5539320000000  0.3722180000000 1.0
C      1  0.4003220000000  0.4884030000000  0.4133230000000 1.0
C      1  0.5417080000000  0.5143950000000  0.3929290000000 1.0
C      1  0.3769350000000  0.5022650000000  0.5890870000000 1.0
C      1  0.5305980000000  0.4954890000000  0.3739410000000 1.0
C      1  0.4350270000000  0.4681280000000  0.5639890000000 1.0
C      1  0.5015540000000  0.4652790000000  0.4258990000000 1.0
C      1  0.4654640000000  0.4544060000000  0.4515360000000 1.0
C      1  0.5946360000000  0.5628960000000  0.5253100000000 1.0
C      1  0.5196700000000  0.5968450000000  0.5675160000000 1.0
C      1  0.5830900000000  0.5422130000000  0.6058080000000 1.0
C      1  0.4580420000000  0.3477320000000  0.5579990000000 1.0
C      1  0.4316370000000  0.4754180000000  0.5001360000000 1.0
C      1  0.4826980000000  0.5735000000000  0.5920020000000 1.0
C      1  0.5531770000000  0.5683320000000  0.4326160000000 1.0
C      1  0.5770780000000  0.5936130000000  0.4688910000000 1.0
C      1  0.5853220000000  0.5344520000000  0.4381700000000 1.0
C      1  0.4338630000000  0.6530420000000  0.4504150000000 1.0
C      1  0.5841540000000  0.4373560000000  0.4538460000000 1.0
C      1  0.4662130000000  0.6049210000000  0.4925740000000 1.0
C      1  0.5341150000000  0.5630200000000  0.4121080000000 1.0
C      1  0.5034740000000  0.4041980000000  0.4743150000000 1.0
C      1  0.5109200000000  0.5470310000000  0.3734180000000 1.0
C      1  0.5725730000000  0.4027150000000  0.5183670000000 1.0
C      1  0.5617540000000  0.5458190000000  0.4477730000000 1.0
C      1  0.3403720000000  0.4709440000000  0.6022710000000 1.0
C      1  0.5203890000000  0.6238160000000  0.5722760000000 1.0
C      1  0.4102990000000  0.5652940000000  0.4600840000000 1.0
C      1  0.4597520000000  0.5375380000000  0.4663020000000 1.0
C      1  0.5044170000000  0.5052010000000  0.4710920000000 1.0
C      1  0.5920090000000  0.4217720000000  0.4760250000000 1.0
C      1  0.5003920000000  0.5722260000000  0.4918980000000 1.0
C      1  0.5387160000000  0.6212050000000  0.4769450000000 1.0
C      1  0.4330180000000  0.5812420000000  0.4522780000000 1.0
C      1  0.4441500000000  0.4694390000000  0.4395440000000 1.0
C      1  0.5498280000000  0.4765590000000  0.4927950000000 1.0
C      1  0.5100160000000  0.5261090000000  0.6239780000000 1.0
C      1  0.4129390000000  0.5388090000000  0.5084230000000 1.0
C      1  0.5384220000000  0.5272380000000  0.4958570000000 1.0
C      1  0.5894570000000  0.5662500000000  0.5927170000000 1.0
C      1  0.4853730000000  0.3941780000000  0.4932990000000 1.0
C      1  0.5942530000000  0.4762400000000  0.4280790000000 1.0
C      1  0.4542510000000  0.4033370000000  0.4556780000000 1.0
C      1  0.4368300000000  0.4965010000000  0.4504320000000 1.0
C      1  0.4247060000000  0.4778830000000  0.3999880000000 1.0
C      1  0.4466800000000  0.6031740000000  0.4688290000000 1.0
C      1  0.5116150000000  0.5360830000000  0.5717130000000 1.0
C      1  0.5483600000000  0.5399970000000  0.4721900000000 1.0
C      1  0.3289250000000  0.4633700000000  0.5545570000000 1.0
C      1  0.4742320000000  0.4863650000000  0.6097380000000 1.0
C      1  0.4795960000000  0.4931370000000  0.4712960000000 1.0
C      1  0.4303400000000  0.5258140000000  0.4013050000000 1.0
C      1  0.5626550000000  0.4881550000000  0.4735750000000 1.0
C      1  0.4103300000000  0.4299330000000  0.4575810000000 1.0
C      1  0.4852970000000  0.4445310000000  0.4340470000000 1.0
C      1  0.5037480000000  0.4250780000000  0.5204240000000 1.0
C      1  0.4834130000000  0.5545880000000  0.5022830000000 1.0
C      1  0.4677980000000  0.5536180000000  0.4442470000000 1.0
C      1  0.4579210000000  0.5489140000000  0.4922340000000 1.0
C      1  0.4895900000000  0.3895060000000  0.5484370000000 1.0
C      1  0.5256030000000  0.4662280000000  0.4420860000000 1.0
C      1  0.5718010000000  0.5631830000000  0.5433580000000 1.0
C      1  0.5589550000000  0.5932030000000  0.4453340000000 1.0
C      1  0.4782190000000  0.3643300000000  0.5531500000000 1.0
C      1  0.4125360000000  0.3855380000000  0.5353320000000 1.0
C      1  0.6285200000000  0.5172580000000  0.4553990000000 1.0
C      1  0.5616750000000  0.6103870000000  0.5152380000000 1.0
C      1  0.5558010000000  0.3876400000000  0.5014700000000 1.0
C      1  0.5853180000000  0.5101750000000  0.5163090000000 1.0
C      1  0.5540920000000  0.4314390000000  0.4363160000000 1.0
C      1  0.5962610000000  0.4821510000000  0.5567320000000 1.0
C      1  0.3929420000000  0.4732390000000  0.4375180000000 1.0
C      1  0.5306560000000  0.4483670000000  0.5573430000000 1.0
C      1  0.4585170000000  0.6063650000000  0.5209340000000 1.0
C      1  0.6051460000000  0.4687470000000  0.5058220000000 1.0
C      1  0.4551830000000  0.5889240000000  0.5437580000000 1.0
C      1  0.5658710000000  0.6131390000000  0.4872140000000 1.0
C      1  0.5423840000000  0.5595430000000  0.5410990000000 1.0
C      1  0.4721150000000  0.4916400000000  0.3941870000000 1.0
C      1  0.5420810000000  0.4227260000000  0.5520860000000 1.0
C      1  0.5840760000000  0.5191020000000  0.5890230000000 1.0
C      1  0.4584940000000  0.4014430000000  0.4855300000000 1.0
C      1  0.5180590000000  0.4711310000000  0.3827810000000 1.0
C      1  0.5806360000000  0.4616500000000  0.6004540000000 1.0
C      1  0.5530370000000  0.4994090000000  0.4152740000000 1.0
C      1  0.4039920000000  0.5170060000000  0.5505290000000 1.0
C      1  0.5293280000000  0.5051840000000  0.5449600000000 1.0
C      1  0.5350580000000  0.4410990000000  0.4555510000000 1.0
C      1  0.4356500000000  0.5558330000000  0.5090210000000 1.0
C      1  0.5507900000000  0.4671220000000  0.5646970000000 1.0
C      1  0.5799870000000  0.3962800000000  0.5655640000000 1.0
C      1  0.3582270000000  0.5004500000000  0.5453140000000 1.0
C      1  0.5783870000000  0.4639650000000  0.5718880000000 1.0
C      1  0.5022470000000  0.4479840000000  0.6069560000000 1.0
C      1  0.4136480000000  0.5133140000000  0.4540750000000 1.0
C      1  0.6020070000000  0.5240210000000  0.4969870000000 1.0
END
