TITL C-627109-622-1012 -5.7178904785932e-07 125000 -481.033942003358 0 0 81 (C1) n - 1
REM
REM in /home/nfs/bkarasulu/CARBON/AIRSS/Generating-Clusters/LCBOP/Only-C1/SD-CG/FIRE-CG
REM
REM
REM
REM
REM
REM ./C.cell (11c1c37f851c82e70ff6c80c92926a4b)
REM AIRSS Version 0.9.1 bugfix July 2018 build 013d7b7c2542+ Fri, 06 Jul 2018 19:26:36 +0100
REM compiler GCC version 9.2.1 20190827 (Red Hat 9.2.1-1)
REM options -cpp -mtune=generic -march=x86-64 -g -O0 -fpre-include=/usr/include/finclude/math-vector-fortran.h
REM seed 1415503402 -175778664 2052462966 542161629 -401229914 1826064756 -836310515 -286961386 -1378759848 1988672928 931394563 -212992753 -52357220 1933172134 -1265717716 2110167783 231225938 836050764 -563108004 -597880630 -475453811 1575991296 -1674265000 1772809831 1993876152 40484026 978774505 824380428 2012786674 805795687 -1757044755 -74419983 738050908
REM
CELL 1.54180   50.00000   50.00000   50.00000   90.00000   90.00000   90.00000
LATT -1
SFAC C  
C      1  0.4840450000000  0.5114600000000  0.5852490000000 1.0
C      1  0.4756570000000  0.4835280000000  0.5804960000000 1.0
C      1  0.5402020000000  0.5094330000000  0.5695100000000 1.0
C      1  0.5111180000000  0.4784510000000  0.4638770000000 1.0
C      1  0.4453300000000  0.4394120000000  0.5094600000000 1.0
C      1  0.5750950000000  0.4913730000000  0.5327090000000 1.0
C      1  0.4495390000000  0.5101320000000  0.5354010000000 1.0
C      1  0.4752540000000  0.4779140000000  0.4982860000000 1.0
C      1  0.4961510000000  0.4715310000000  0.5614210000000 1.0
C      1  0.5036580000000  0.5234990000000  0.5454420000000 1.0
C      1  0.4938830000000  0.4523850000000  0.4338170000000 1.0
C      1  0.4289600000000  0.4864660000000  0.4892930000000 1.0
C      1  0.5167080000000  0.4856240000000  0.5179520000000 1.0
C      1  0.4799360000000  0.5709140000000  0.4589640000000 1.0
C      1  0.4639630000000  0.5589640000000  0.5310750000000 1.0
C      1  0.5805850000000  0.4971870000000  0.4863490000000 1.0
C      1  0.5514620000000  0.4632790000000  0.4363330000000 1.0
C      1  0.5304240000000  0.5096760000000  0.5065490000000 1.0
C      1  0.4828960000000  0.5284120000000  0.4953430000000 1.0
C      1  0.5112580000000  0.5577930000000  0.5483920000000 1.0
C      1  0.4795770000000  0.4374040000000  0.4579250000000 1.0
C      1  0.4514970000000  0.4697290000000  0.5771060000000 1.0
C      1  0.4922970000000  0.5706170000000  0.5307530000000 1.0
C      1  0.4757870000000  0.4768790000000  0.4272930000000 1.0
C      1  0.5116920000000  0.5173950000000  0.5749610000000 1.0
C      1  0.5517130000000  0.4929050000000  0.4382400000000 1.0
C      1  0.4731920000000  0.5771250000000  0.4867120000000 1.0
C      1  0.5514690000000  0.5285680000000  0.5498840000000 1.0
C      1  0.5594900000000  0.5455740000000  0.4470370000000 1.0
C      1  0.5580510000000  0.5139630000000  0.5230570000000 1.0
C      1  0.5116440000000  0.5332320000000  0.4619900000000 1.0
C      1  0.5069740000000  0.5608000000000  0.4581360000000 1.0
C      1  0.5094160000000  0.5311560000000  0.5136130000000 1.0
C      1  0.4649910000000  0.5315260000000  0.5756150000000 1.0
C      1  0.4537450000000  0.5602560000000  0.5024030000000 1.0
C      1  0.4562580000000  0.5356280000000  0.5481830000000 1.0
C      1  0.4996040000000  0.5804860000000  0.5023960000000 1.0
C      1  0.5599730000000  0.4684520000000  0.5406800000000 1.0
C      1  0.4635970000000  0.5693650000000  0.4359770000000 1.0
C      1  0.5598050000000  0.4534560000000  0.4637840000000 1.0
C      1  0.5515110000000  0.5616750000000  0.4708620000000 1.0
C      1  0.5404920000000  0.4288900000000  0.5039250000000 1.0
C      1  0.5403810000000  0.5550950000000  0.5157790000000 1.0
C      1  0.5619510000000  0.5203560000000  0.4349490000000 1.0
C      1  0.5224900000000  0.4652290000000  0.5733010000000 1.0
C      1  0.5322750000000  0.5171940000000  0.4756880000000 1.0
C      1  0.4434630000000  0.5873430000000  0.4317360000000 1.0
C      1  0.4889910000000  0.5185640000000  0.4695990000000 1.0
C      1  0.4609980000000  0.4172170000000  0.4992620000000 1.0
C      1  0.4874860000000  0.4913430000000  0.4719910000000 1.0
C      1  0.4416030000000  0.5053880000000  0.4720880000000 1.0
C      1  0.4543440000000  0.5330820000000  0.4915540000000 1.0
C      1  0.5381240000000  0.4393520000000  0.4766380000000 1.0
C      1  0.5447590000000  0.4798600000000  0.5641450000000 1.0
C      1  0.5327450000000  0.4951620000000  0.4591810000000 1.0
C      1  0.4607070000000  0.4400600000000  0.5558720000000 1.0
C      1  0.4852550000000  0.4194750000000  0.4827070000000 1.0
C      1  0.4127710000000  0.4925580000000  0.5114550000000 1.0
C      1  0.4397440000000  0.4451230000000  0.5370350000000 1.0
C      1  0.4686710000000  0.5487360000000  0.4174220000000 1.0
C      1  0.5741480000000  0.5240640000000  0.4988310000000 1.0
C      1  0.5018140000000  0.4626690000000  0.5059500000000 1.0
C      1  0.4710240000000  0.4949730000000  0.5236050000000 1.0
C      1  0.5604530000000  0.5502420000000  0.4956210000000 1.0
C      1  0.5118280000000  0.4199120000000  0.5085100000000 1.0
C      1  0.5243170000000  0.5747360000000  0.4763330000000 1.0
C      1  0.4803870000000  0.4985770000000  0.4101280000000 1.0
C      1  0.5716050000000  0.4686570000000  0.4871080000000 1.0
C      1  0.5236290000000  0.4525890000000  0.4277980000000 1.0
C      1  0.5581290000000  0.4512760000000  0.5163730000000 1.0
C      1  0.5397280000000  0.5552100000000  0.5437910000000 1.0
C      1  0.4290190000000  0.4698130000000  0.5503360000000 1.0
C      1  0.4542600000000  0.4809230000000  0.4473090000000 1.0
C      1  0.4996920000000  0.4396120000000  0.5247780000000 1.0
C      1  0.4869060000000  0.4456290000000  0.5491850000000 1.0
C      1  0.4487510000000  0.4629780000000  0.4913850000000 1.0
C      1  0.4550760000000  0.4553460000000  0.4625730000000 1.0
C      1  0.5152390000000  0.4559400000000  0.4796250000000 1.0
C      1  0.4256100000000  0.4942880000000  0.5366540000000 1.0
C      1  0.4761040000000  0.5249010000000  0.4080260000000 1.0
C      1  0.4966260000000  0.4940130000000  0.5392320000000 1.0
END
