TITL C-627108-131-1203 0.0078546742615625 125000 -299.190788435215 0 0 51 (C1) n - 1
REM
REM in /home/nfs/bkarasulu/CARBON/AIRSS/Generating-Clusters/LCBOP/Only-C1/SD-CG/FIRE-CG
REM
REM
REM
REM
REM
REM ./C.cell (11c1c37f851c82e70ff6c80c92926a4b)
REM AIRSS Version 0.9.1 bugfix July 2018 build 013d7b7c2542+ Fri, 06 Jul 2018 19:26:36 +0100
REM compiler GCC version 9.2.1 20190827 (Red Hat 9.2.1-1)
REM options -cpp -mtune=generic -march=x86-64 -g -O0 -fpre-include=/usr/include/finclude/math-vector-fortran.h
REM seed 334319858 1710635868 1279888308 -428202871 -1755265784 -672821167 1907194031 -1201571769 -1137319638 1467793674 -461713397 387451660 1401104614 130262403 1201660050 -1847587910 1064632557 1436396566 -1053705517 118774271 -1049478787 -212467921 -419682843 -1675378700 -1959956943 1915680747 2134776330 63835641 165357906 744783814 574630707 1909481348 950678364
REM
CELL 1.54180   50.00000   50.00000   50.00000   90.00000   90.00000   90.00000
LATT -1
SFAC C  
C      1  0.5294410000000  0.5708840000000  0.4971720000000 1.0
C      1  0.4688690000000  0.4278880000000  0.6506070000000 1.0
C      1  0.4802910000000  0.5358220000000  0.5370700000000 1.0
C      1  0.4302690000000  0.4923280000000  0.5744820000000 1.0
C      1  0.5271970000000  0.4387570000000  0.5007770000000 1.0
C      1  0.4592170000000  0.4438470000000  0.6323910000000 1.0
C      1  0.4049100000000  0.5039180000000  0.5760620000000 1.0
C      1  0.4592700000000  0.4299180000000  0.5206350000000 1.0
C      1  0.5790370000000  0.5171060000000  0.4757470000000 1.0
C      1  0.5062790000000  0.4197790000000  0.5005830000000 1.0
C      1  0.5030330000000  0.5685350000000  0.5044400000000 1.0
C      1  0.5348120000000  0.5178680000000  0.3959340000000 1.0
C      1  0.5394940000000  0.4440110000000  0.4538160000000 1.0
C      1  0.5473230000000  0.5489120000000  0.4942960000000 1.0
C      1  0.4817470000000  0.4839370000000  0.4994890000000 1.0
C      1  0.4963110000000  0.4697860000000  0.5191260000000 1.0
C      1  0.4397040000000  0.4761690000000  0.5952080000000 1.0
C      1  0.6112120000000  0.6058450000000  0.4447940000000 1.0
C      1  0.4549310000000  0.4915760000000  0.5046830000000 1.0
C      1  0.5642520000000  0.4670650000000  0.4883520000000 1.0
C      1  0.4617670000000  0.5384940000000  0.4938090000000 1.0
C      1  0.5352760000000  0.5248160000000  0.5042150000000 1.0
C      1  0.4878980000000  0.5427520000000  0.5085430000000 1.0
C      1  0.5168190000000  0.4406620000000  0.4113930000000 1.0
C      1  0.4494060000000  0.4600710000000  0.6138690000000 1.0
C      1  0.5249330000000  0.4555910000000  0.4328080000000 1.0
C      1  0.5261390000000  0.5007050000000  0.4141580000000 1.0
C      1  0.5184370000000  0.4833290000000  0.4346320000000 1.0
C      1  0.3721480000000  0.5167690000000  0.4584420000000 1.0
C      1  0.4977870000000  0.5002710000000  0.4830560000000 1.0
C      1  0.5464480000000  0.4464680000000  0.4807980000000 1.0
C      1  0.6239700000000  0.6257810000000  0.4338660000000 1.0
C      1  0.5226600000000  0.4603080000000  0.5191660000000 1.0
C      1  0.4199110000000  0.5163390000000  0.4803810000000 1.0
C      1  0.5709570000000  0.5445450000000  0.4786620000000 1.0
C      1  0.5078490000000  0.5223200000000  0.4976910000000 1.0
C      1  0.5052280000000  0.4934270000000  0.4571770000000 1.0
C      1  0.5852130000000  0.5653640000000  0.4670120000000 1.0
C      1  0.4807700000000  0.4183220000000  0.5093380000000 1.0
C      1  0.4449260000000  0.4798240000000  0.5287780000000 1.0
C      1  0.5982400000000  0.5855760000000  0.4559050000000 1.0
C      1  0.4464490000000  0.4969270000000  0.5517380000000 1.0
C      1  0.3812940000000  0.5149090000000  0.5768540000000 1.0
C      1  0.5507580000000  0.5024100000000  0.5107220000000 1.0
C      1  0.5435070000000  0.4782690000000  0.5218040000000 1.0
C      1  0.4645170000000  0.5188290000000  0.5507470000000 1.0
C      1  0.3958460000000  0.5165730000000  0.4693030000000 1.0
C      1  0.5692210000000  0.4944950000000  0.4893130000000 1.0
C      1  0.4448610000000  0.5155150000000  0.4926320000000 1.0
C      1  0.5435780000000  0.5349140000000  0.3782650000000 1.0
C      1  0.4455860000000  0.4514750000000  0.5292570000000 1.0
END
