TITL C-627108-131-1143 -0.181429760945839 125000 -223.835841924797 0 0 39 (C1) n - 1
REM
REM in /home/nfs/bkarasulu/CARBON/AIRSS/Generating-Clusters/LCBOP/Only-C1/SD-CG/FIRE-CG
REM
REM
REM
REM
REM
REM ./C.cell (11c1c37f851c82e70ff6c80c92926a4b)
REM AIRSS Version 0.9.1 bugfix July 2018 build 013d7b7c2542+ Fri, 06 Jul 2018 19:26:36 +0100
REM compiler GCC version 9.2.1 20190827 (Red Hat 9.2.1-1)
REM options -cpp -mtune=generic -march=x86-64 -g -O0 -fpre-include=/usr/include/finclude/math-vector-fortran.h
REM seed -597602533 -221700017 -1137508753 -1581174628 1738323172 -426983648 407603828 -19732453 1859263374 -1960250195 -527444258 -298490951 -1445788258 -8908275 1803206209 -212780226 -797333016 -971211451 -1331653047 -1036867388 618581475 -1326150458 1708770336 -806758125 -187780133 576628263 -1973899299 113122217 2144822302 -1144137021 -2096042468 1577038156 1325877322
REM
CELL 1.54180   50.00000   50.00000   50.00000   90.00000   90.00000   90.00000
LATT -1
SFAC C  
C      1  0.4706450000000  0.4525430000000  0.5582960000000 1.0
C      1  0.5913400000000  0.5147090000000  0.5309560000000 1.0
C      1  0.5010000000000  0.5468830000000  0.5149610000000 1.0
C      1  0.4409220000000  0.4511250000000  0.5153770000000 1.0
C      1  0.5483500000000  0.5259510000000  0.5509330000000 1.0
C      1  0.4490530000000  0.4487800000000  0.5406720000000 1.0
C      1  0.4712760000000  0.4851510000000  0.4603570000000 1.0
C      1  0.4424350000000  0.4579580000000  0.4897110000000 1.0
C      1  0.6155930000000  0.5053720000000  0.5328980000000 1.0
C      1  0.5093370000000  0.4974900000000  0.5157380000000 1.0
C      1  0.4284230000000  0.4680840000000  0.4444580000000 1.0
C      1  0.5594050000000  0.5595210000000  0.4946940000000 1.0
C      1  0.5587360000000  0.4899880000000  0.4786020000000 1.0
C      1  0.5204140000000  0.5235810000000  0.5534750000000 1.0
C      1  0.5367440000000  0.5251710000000  0.4105700000000 1.0
C      1  0.5652690000000  0.5243650000000  0.5279490000000 1.0
C      1  0.5150730000000  0.4715070000000  0.5171950000000 1.0
C      1  0.5247890000000  0.5207260000000  0.4630930000000 1.0
C      1  0.5086050000000  0.5230180000000  0.5276360000000 1.0
C      1  0.4111440000000  0.4663390000000  0.4244510000000 1.0
C      1  0.5612790000000  0.5846180000000  0.4879330000000 1.0
C      1  0.4528890000000  0.5162940000000  0.5232200000000 1.0
C      1  0.4764110000000  0.5031170000000  0.5688030000000 1.0
C      1  0.4592700000000  0.5144760000000  0.5492020000000 1.0
C      1  0.3942340000000  0.4646440000000  0.4046830000000 1.0
C      1  0.5123670000000  0.4491620000000  0.5315940000000 1.0
C      1  0.5308190000000  0.5226540000000  0.4358220000000 1.0
C      1  0.5060680000000  0.4624680000000  0.4261090000000 1.0
C      1  0.4719230000000  0.4757890000000  0.5742590000000 1.0
C      1  0.4756650000000  0.5091660000000  0.4748870000000 1.0
C      1  0.4967120000000  0.5499020000000  0.4885250000000 1.0
C      1  0.4981730000000  0.5270110000000  0.4717850000000 1.0
C      1  0.4901340000000  0.4751760000000  0.4423560000000 1.0
C      1  0.5462390000000  0.5143620000000  0.4815370000000 1.0
C      1  0.5020000000000  0.5151330000000  0.5732070000000 1.0
C      1  0.4473100000000  0.4701960000000  0.4649440000000 1.0
C      1  0.4951160000000  0.4408640000000  0.5504320000000 1.0
C      1  0.5563730000000  0.5325070000000  0.5015800000000 1.0
C      1  0.4584670000000  0.5141990000000  0.4971000000000 1.0
END
