TITL C-627107-135-1929 5.20159214551164e-07 125000 -754.836895251486 0 0 124 (C1) n - 1
REM
REM in /home/nfs/bkarasulu/CARBON/AIRSS/Generating-Clusters/LCBOP/Only-C1/SD-CG/FIRE-CG
REM
REM
REM
REM
REM
REM ./C.cell (11c1c37f851c82e70ff6c80c92926a4b)
REM AIRSS Version 0.9.1 bugfix July 2018 build 013d7b7c2542+ Fri, 06 Jul 2018 19:26:36 +0100
REM compiler GCC version 9.2.1 20190827 (Red Hat 9.2.1-1)
REM options -cpp -mtune=generic -march=x86-64 -g -O0 -fpre-include=/usr/include/finclude/math-vector-fortran.h
REM seed -1181928411 2117307362 -183196221 209229083 2034698816 1911868398 -538989318 -353305289 -993944213 -1521426345 455608268 1099785390 987589527 1870424732 -635741163 -1769115546 1835821534 -373254291 1525660650 1457973104 -944481262 -1927450425 597145665 1312565233 274561535 2096981281 958555006 799821149 -347853086 447365188 -1443821171 1199678769 269355350
REM
CELL 1.54180   50.00000   50.00000   50.00000   90.00000   90.00000   90.00000
LATT -1
SFAC C  
C      1  0.5635740000000  0.5002820000000  0.5941370000000 1.0
C      1  0.5917120000000  0.4287780000000  0.5250030000000 1.0
C      1  0.4597250000000  0.4202110000000  0.5513350000000 1.0
C      1  0.5172180000000  0.5984990000000  0.4546900000000 1.0
C      1  0.5994350000000  0.4622590000000  0.4881020000000 1.0
C      1  0.4423510000000  0.4620380000000  0.5696520000000 1.0
C      1  0.5003640000000  0.6140390000000  0.5171140000000 1.0
C      1  0.4077640000000  0.5153900000000  0.5483920000000 1.0
C      1  0.4850420000000  0.4640140000000  0.4789890000000 1.0
C      1  0.4710880000000  0.6048690000000  0.4589330000000 1.0
C      1  0.3962740000000  0.4824860000000  0.4950010000000 1.0
C      1  0.5114590000000  0.5118350000000  0.5965340000000 1.0
C      1  0.6013530000000  0.4385190000000  0.5015090000000 1.0
C      1  0.5628230000000  0.5524390000000  0.5777930000000 1.0
C      1  0.5420100000000  0.6089380000000  0.4647920000000 1.0
C      1  0.4262130000000  0.5751150000000  0.5087230000000 1.0
C      1  0.4084490000000  0.5377920000000  0.5308020000000 1.0
C      1  0.4896810000000  0.4115800000000  0.4996130000000 1.0
C      1  0.4769040000000  0.4952310000000  0.5730020000000 1.0
C      1  0.5538490000000  0.4510210000000  0.5866060000000 1.0
C      1  0.4894300000000  0.4856350000000  0.4354450000000 1.0
C      1  0.4082260000000  0.5337150000000  0.5011880000000 1.0
C      1  0.5224750000000  0.4433320000000  0.4246830000000 1.0
C      1  0.3842000000000  0.4473300000000  0.5271500000000 1.0
C      1  0.4876400000000  0.4135220000000  0.4402500000000 1.0
C      1  0.5200410000000  0.5746930000000  0.5782040000000 1.0
C      1  0.5165030000000  0.5223040000000  0.5501100000000 1.0
C      1  0.5435800000000  0.4926120000000  0.4704170000000 1.0
C      1  0.5587800000000  0.5389460000000  0.5266040000000 1.0
C      1  0.5356270000000  0.4960220000000  0.4441760000000 1.0
C      1  0.5119350000000  0.4118720000000  0.4580790000000 1.0
C      1  0.4499170000000  0.5214260000000  0.4651610000000 1.0
C      1  0.4839690000000  0.5337160000000  0.4095150000000 1.0
C      1  0.5104690000000  0.4951490000000  0.5053450000000 1.0
C      1  0.5774430000000  0.5551340000000  0.4293280000000 1.0
C      1  0.6029560000000  0.4897940000000  0.5546100000000 1.0
C      1  0.4528470000000  0.4595420000000  0.4231530000000 1.0
C      1  0.5183330000000  0.4835150000000  0.5923230000000 1.0
C      1  0.5507190000000  0.5142790000000  0.5149160000000 1.0
C      1  0.5076670000000  0.5105070000000  0.5274690000000 1.0
C      1  0.4767740000000  0.5144130000000  0.4724870000000 1.0
C      1  0.4843150000000  0.5187510000000  0.5893990000000 1.0
C      1  0.4444080000000  0.5131250000000  0.4371890000000 1.0
C      1  0.5385920000000  0.5297970000000  0.4073970000000 1.0
C      1  0.4491770000000  0.4895030000000  0.5712750000000 1.0
C      1  0.4380670000000  0.4032740000000  0.5452400000000 1.0
C      1  0.5884670000000  0.5352360000000  0.4479210000000 1.0
C      1  0.4825350000000  0.4731950000000  0.3882880000000 1.0
C      1  0.5027770000000  0.4785610000000  0.5670510000000 1.0
C      1  0.5113360000000  0.4092470000000  0.5632470000000 1.0
C      1  0.5819970000000  0.5041440000000  0.4114790000000 1.0
C      1  0.4951880000000  0.5475120000000  0.5059950000000 1.0
C      1  0.5641950000000  0.5072080000000  0.4863790000000 1.0
C      1  0.5142170000000  0.5494990000000  0.4613170000000 1.0
C      1  0.5821970000000  0.4399390000000  0.5494050000000 1.0
C      1  0.5416210000000  0.5437380000000  0.4553660000000 1.0
C      1  0.5371410000000  0.6254090000000  0.4865050000000 1.0
C      1  0.3979300000000  0.5101900000000  0.4902640000000 1.0
C      1  0.5176590000000  0.4444650000000  0.5334230000000 1.0
C      1  0.5565400000000  0.4354050000000  0.5627120000000 1.0
C      1  0.4588580000000  0.4640700000000  0.5237980000000 1.0
C      1  0.4717920000000  0.5389020000000  0.5197330000000 1.0
C      1  0.4123920000000  0.4055630000000  0.5380980000000 1.0
C      1  0.4177210000000  0.5651160000000  0.5331980000000 1.0
C      1  0.4511090000000  0.4909220000000  0.5214140000000 1.0
C      1  0.4539910000000  0.4482730000000  0.5475670000000 1.0
C      1  0.4993720000000  0.4267130000000  0.4170660000000 1.0
C      1  0.5230650000000  0.4389970000000  0.4542920000000 1.0
C      1  0.5445520000000  0.4815540000000  0.3902990000000 1.0
C      1  0.5372930000000  0.4600720000000  0.4076600000000 1.0
C      1  0.4567710000000  0.5169640000000  0.5224520000000 1.0
C      1  0.5853110000000  0.5360870000000  0.5371110000000 1.0
C      1  0.4968820000000  0.5356470000000  0.4795080000000 1.0
C      1  0.4811760000000  0.4874430000000  0.4630300000000 1.0
C      1  0.5450550000000  0.4882270000000  0.5305810000000 1.0
C      1  0.5395640000000  0.5597190000000  0.5343570000000 1.0
C      1  0.4332140000000  0.4875860000000  0.4341640000000 1.0
C      1  0.5132040000000  0.5657490000000  0.5205910000000 1.0
C      1  0.5671700000000  0.5319930000000  0.4685170000000 1.0
C      1  0.5811960000000  0.4822730000000  0.4960660000000 1.0
C      1  0.4745760000000  0.5787810000000  0.4469430000000 1.0
C      1  0.4458350000000  0.4418930000000  0.4455020000000 1.0
C      1  0.4796780000000  0.5464840000000  0.5853100000000 1.0
C      1  0.5310480000000  0.4260680000000  0.5513930000000 1.0
C      1  0.4411940000000  0.5489790000000  0.4666060000000 1.0
C      1  0.4842340000000  0.4103350000000  0.5617410000000 1.0
C      1  0.5998910000000  0.5154490000000  0.5469390000000 1.0
C      1  0.4958560000000  0.6157400000000  0.4683610000000 1.0
C      1  0.5253350000000  0.4793940000000  0.4864560000000 1.0
C      1  0.5965790000000  0.4637370000000  0.5574080000000 1.0
C      1  0.5462160000000  0.4769600000000  0.5944560000000 1.0
C      1  0.5104180000000  0.5230210000000  0.4118670000000 1.0
C      1  0.5121810000000  0.5004300000000  0.4294670000000 1.0
C      1  0.5430830000000  0.5677050000000  0.5628930000000 1.0
C      1  0.5413290000000  0.4786580000000  0.3632070000000 1.0
C      1  0.4633210000000  0.4208600000000  0.4549720000000 1.0
C      1  0.4265300000000  0.4592160000000  0.4577420000000 1.0
C      1  0.5660670000000  0.4723200000000  0.5193260000000 1.0
C      1  0.5105130000000  0.4006430000000  0.4837880000000 1.0
C      1  0.4288790000000  0.5087160000000  0.5661930000000 1.0
C      1  0.5035150000000  0.5734860000000  0.4496760000000 1.0
C      1  0.4238330000000  0.5552230000000  0.4877440000000 1.0
C      1  0.5087570000000  0.6251930000000  0.4929040000000 1.0
C      1  0.4585620000000  0.5363080000000  0.4230440000000 1.0
C      1  0.5557390000000  0.5062390000000  0.4004570000000 1.0
C      1  0.5132090000000  0.4574130000000  0.4736840000000 1.0
C      1  0.5553940000000  0.5255980000000  0.5837290000000 1.0
C      1  0.4759700000000  0.4717170000000  0.4147300000000 1.0
C      1  0.4985300000000  0.5892760000000  0.5299670000000 1.0
C      1  0.4651440000000  0.4132470000000  0.4832120000000 1.0
C      1  0.3904570000000  0.4940410000000  0.5413190000000 1.0
C      1  0.4082230000000  0.4648360000000  0.4769510000000 1.0
C      1  0.4780760000000  0.4555340000000  0.5052660000000 1.0
C      1  0.5207890000000  0.4721600000000  0.5432430000000 1.0
C      1  0.5962910000000  0.5123430000000  0.4330560000000 1.0
C      1  0.5277960000000  0.5239100000000  0.5760980000000 1.0
C      1  0.4920560000000  0.5701230000000  0.5752030000000 1.0
C      1  0.3927720000000  0.4225980000000  0.5320710000000 1.0
C      1  0.5493590000000  0.5487170000000  0.4265490000000 1.0
C      1  0.4547010000000  0.5594070000000  0.4425100000000 1.0
C      1  0.4823660000000  0.5846330000000  0.5529140000000 1.0
C      1  0.4260140000000  0.4500800000000  0.5879280000000 1.0
C      1  0.3883350000000  0.4743270000000  0.5212180000000 1.0
C      1  0.4964840000000  0.4353410000000  0.5152780000000 1.0
END
