TITL C-627112-676-1494 0.00709633797879457 125000 -586.131815517405 0 0 98 (C1) n - 1
REM
REM in /home/nfs/bkarasulu/CARBON/AIRSS/Generating-Clusters/LCBOP/Only-C1/SD-CG/FIRE-CG
REM
REM
REM
REM
REM
REM ./C.cell (11c1c37f851c82e70ff6c80c92926a4b)
REM AIRSS Version 0.9.1 bugfix July 2018 build 013d7b7c2542+ Fri, 06 Jul 2018 19:26:36 +0100
REM compiler GCC version 9.2.1 20190827 (Red Hat 9.2.1-1)
REM options -cpp -mtune=generic -march=x86-64 -g -O0 -fpre-include=/usr/include/finclude/math-vector-fortran.h
REM seed -2106750937 1242695641 1568991500 668452518 1119325829 1883416382 1037636312 -341382179 949202990 2036144326 -1766730006 -393061905 1786013216 -1838154208 116364516 -1706669712 2034518200 1396725587 -2101031308 632561837 850534290 -274303236 1973295750 525217018 -138790435 -1891258363 -982830358 1616726882 1340020875 -632813536 1533599949 73322983 80694160
REM
CELL 1.54180   50.00000   50.00000   50.00000   90.00000   90.00000   90.00000
LATT -1
SFAC C  
C      1  0.5097680000000  0.5180240000000  0.5956060000000 1.0
C      1  0.4004070000000  0.5114870000000  0.5470660000000 1.0
C      1  0.5091640000000  0.4777140000000  0.5703920000000 1.0
C      1  0.5260060000000  0.4810970000000  0.5190680000000 1.0
C      1  0.5131790000000  0.5268420000000  0.6216950000000 1.0
C      1  0.5223710000000  0.5524970000000  0.6959110000000 1.0
C      1  0.5300660000000  0.4374330000000  0.4448850000000 1.0
C      1  0.5102940000000  0.4223570000000  0.4548590000000 1.0
C      1  0.4067640000000  0.5199410000000  0.4224960000000 1.0
C      1  0.5498810000000  0.5011520000000  0.5718900000000 1.0
C      1  0.4206930000000  0.4645500000000  0.4575990000000 1.0
C      1  0.5678170000000  0.5551960000000  0.4826840000000 1.0
C      1  0.4146880000000  0.4997060000000  0.5661970000000 1.0
C      1  0.5358560000000  0.5899460000000  0.4727890000000 1.0
C      1  0.4973160000000  0.5245940000000  0.5495680000000 1.0
C      1  0.5497660000000  0.5436470000000  0.3950650000000 1.0
C      1  0.5312070000000  0.4227650000000  0.5370830000000 1.0
C      1  0.5503090000000  0.5584130000000  0.5070000000000 1.0
C      1  0.4576910000000  0.4891570000000  0.3802120000000 1.0
C      1  0.5506030000000  0.4955320000000  0.4185590000000 1.0
C      1  0.4323900000000  0.3924500000000  0.5201080000000 1.0
C      1  0.5004130000000  0.5435600000000  0.4035650000000 1.0
C      1  0.3966840000000  0.5224290000000  0.4711780000000 1.0
C      1  0.5299480000000  0.5345860000000  0.5125780000000 1.0
C      1  0.5239100000000  0.5336580000000  0.5425220000000 1.0
C      1  0.3921820000000  0.5203800000000  0.5233520000000 1.0
C      1  0.3908940000000  0.5245690000000  0.4970840000000 1.0
C      1  0.4964190000000  0.4208370000000  0.4793100000000 1.0
C      1  0.5104160000000  0.4409980000000  0.5417660000000 1.0
C      1  0.4759660000000  0.4405230000000  0.4855460000000 1.0
C      1  0.5894500000000  0.5016100000000  0.4756940000000 1.0
C      1  0.4702400000000  0.3279670000000  0.4919980000000 1.0
C      1  0.4823890000000  0.5058710000000  0.5328630000000 1.0
C      1  0.5888200000000  0.5101730000000  0.5302590000000 1.0
C      1  0.4832720000000  0.4701280000000  0.4921090000000 1.0
C      1  0.5100420000000  0.5890150000000  0.5132860000000 1.0
C      1  0.4822400000000  0.3510380000000  0.4938150000000 1.0
C      1  0.4665190000000  0.5500720000000  0.4699190000000 1.0
C      1  0.4616720000000  0.6040710000000  0.4665570000000 1.0
C      1  0.5706970000000  0.5574140000000  0.5288960000000 1.0
C      1  0.4414610000000  0.4103860000000  0.5035150000000 1.0
C      1  0.5193520000000  0.5440230000000  0.6714420000000 1.0
C      1  0.5246270000000  0.5302090000000  0.3965820000000 1.0
C      1  0.5301640000000  0.5732900000000  0.4523450000000 1.0
C      1  0.5139420000000  0.4708790000000  0.4952620000000 1.0
C      1  0.5130990000000  0.5283270000000  0.4662260000000 1.0
C      1  0.4805110000000  0.4900950000000  0.4679540000000 1.0
C      1  0.5258580000000  0.4052480000000  0.5158230000000 1.0
C      1  0.5382320000000  0.4616600000000  0.4530520000000 1.0
C      1  0.4626550000000  0.5890510000000  0.4440550000000 1.0
C      1  0.4296070000000  0.4426550000000  0.4697380000000 1.0
C      1  0.5071100000000  0.5010280000000  0.4616290000000 1.0
C      1  0.4563530000000  0.4958430000000  0.4556410000000 1.0
C      1  0.5051620000000  0.4002600000000  0.4972490000000 1.0
C      1  0.5720310000000  0.5357680000000  0.4088460000000 1.0
C      1  0.4932930000000  0.5523080000000  0.4294150000000 1.0
C      1  0.4682900000000  0.4819430000000  0.5175970000000 1.0
C      1  0.5793840000000  0.5444640000000  0.4614800000000 1.0
C      1  0.5714260000000  0.5132310000000  0.4269080000000 1.0
C      1  0.4527670000000  0.6169440000000  0.5124720000000 1.0
C      1  0.5735260000000  0.5322950000000  0.5413610000000 1.0
C      1  0.4838700000000  0.4718960000000  0.5814420000000 1.0
C      1  0.4660680000000  0.6012790000000  0.4944520000000 1.0
C      1  0.4488820000000  0.4311060000000  0.4862960000000 1.0
C      1  0.4936640000000  0.3748570000000  0.4958170000000 1.0
C      1  0.5815630000000  0.5175450000000  0.4533610000000 1.0
C      1  0.5347190000000  0.5836100000000  0.5006200000000 1.0
C      1  0.4834040000000  0.5544780000000  0.4927940000000 1.0
C      1  0.4340970000000  0.4872980000000  0.5795360000000 1.0
C      1  0.5394850000000  0.5053690000000  0.5108190000000 1.0
C      1  0.5073190000000  0.4846100000000  0.3946760000000 1.0
C      1  0.5494610000000  0.5250020000000  0.5558410000000 1.0
C      1  0.5155580000000  0.5496770000000  0.4474320000000 1.0
C      1  0.4825300000000  0.4372590000000  0.5412350000000 1.0
C      1  0.4410440000000  0.4926090000000  0.5096920000000 1.0
C      1  0.5931290000000  0.5048680000000  0.5024840000000 1.0
C      1  0.5175500000000  0.4685950000000  0.5442360000000 1.0
C      1  0.5274540000000  0.5020060000000  0.4029650000000 1.0
C      1  0.5249520000000  0.4965360000000  0.5842090000000 1.0
C      1  0.4350830000000  0.5027770000000  0.3834840000000 1.0
C      1  0.5554810000000  0.4266240000000  0.5518440000000 1.0
C      1  0.5071070000000  0.5380430000000  0.4928920000000 1.0
C      1  0.5728550000000  0.4057150000000  0.5552530000000 1.0
C      1  0.4166950000000  0.5152310000000  0.3981740000000 1.0
C      1  0.4579600000000  0.4769510000000  0.5852800000000 1.0
C      1  0.5617020000000  0.4520210000000  0.5632110000000 1.0
C      1  0.5899390000000  0.4883220000000  0.5483210000000 1.0
C      1  0.4288810000000  0.4909440000000  0.4533400000000 1.0
C      1  0.5680070000000  0.4796410000000  0.5641950000000 1.0
C      1  0.4691750000000  0.5440560000000  0.5848540000000 1.0
C      1  0.4846730000000  0.5812890000000  0.5032230000000 1.0
C      1  0.5252770000000  0.4798140000000  0.4697170000000 1.0
C      1  0.4702080000000  0.5617520000000  0.4436730000000 1.0
C      1  0.4908590000000  0.5294430000000  0.5771300000000 1.0
C      1  0.5162810000000  0.5354080000000  0.6465640000000 1.0
C      1  0.4825180000000  0.4813110000000  0.3856110000000 1.0
C      1  0.4101010000000  0.5117890000000  0.4490720000000 1.0
C      1  0.4651890000000  0.4569630000000  0.5346360000000 1.0
END
