TITL C-627106-156-1717 -2.99103090199591e-07 125000 -1020.64187609592 0 0 166 (C1) n - 1
REM
REM in /home/nfs/bkarasulu/CARBON/AIRSS/Generating-Clusters/LCBOP/Only-C1/SD-CG/FIRE-CG
REM
REM
REM
REM
REM
REM ./C.cell (11c1c37f851c82e70ff6c80c92926a4b)
REM AIRSS Version 0.9.1 bugfix July 2018 build 013d7b7c2542+ Fri, 06 Jul 2018 19:26:36 +0100
REM compiler GCC version 9.2.1 20190827 (Red Hat 9.2.1-1)
REM options -cpp -mtune=generic -march=x86-64 -g -O0 -fpre-include=/usr/include/finclude/math-vector-fortran.h
REM seed 944606363 2072640366 1668896109 -1873210804 -2073905639 -1186738644 -201711029 606793998 1516457476 1195295821 -1081371514 1205889117 -1764303083 1403816253 -2097858491 1199036246 660041287 -1674238948 1628877494 2070975540 1265416031 237189780 -1677309844 -2046935127 -94818638 1732027738 682765392 -766331638 -97569865 -512689191 1952517681 -1358377662 -1044824118
REM
CELL 1.54180   50.00000   50.00000   50.00000   90.00000   90.00000   90.00000
LATT -1
SFAC C  
C      1  0.5143540000000  0.5190160000000  0.6249290000000 1.0
C      1  0.5747040000000  0.4318880000000  0.5272780000000 1.0
C      1  0.5778920000000  0.6147120000000  0.4872800000000 1.0
C      1  0.5042940000000  0.4432480000000  0.5371680000000 1.0
C      1  0.5695010000000  0.5870800000000  0.4862280000000 1.0
C      1  0.5518330000000  0.4583290000000  0.4651170000000 1.0
C      1  0.5218670000000  0.5572910000000  0.4679840000000 1.0
C      1  0.5549660000000  0.4411530000000  0.6504780000000 1.0
C      1  0.4612610000000  0.4173500000000  0.4309720000000 1.0
C      1  0.5473730000000  0.5662500000000  0.4832010000000 1.0
C      1  0.5746070000000  0.5358070000000  0.4171310000000 1.0
C      1  0.4258410000000  0.5072300000000  0.5636660000000 1.0
C      1  0.4321620000000  0.4434290000000  0.4651240000000 1.0
C      1  0.4803440000000  0.4382060000000  0.6022340000000 1.0
C      1  0.5067830000000  0.3681860000000  0.5589300000000 1.0
C      1  0.5225300000000  0.5216690000000  0.5714380000000 1.0
C      1  0.4943080000000  0.4094420000000  0.3987510000000 1.0
C      1  0.5905850000000  0.5425820000000  0.4879190000000 1.0
C      1  0.4139700000000  0.5591350000000  0.5448940000000 1.0
C      1  0.4987120000000  0.5047030000000  0.5676520000000 1.0
C      1  0.4108010000000  0.4613750000000  0.5397440000000 1.0
C      1  0.4771910000000  0.5560780000000  0.5593180000000 1.0
C      1  0.5079650000000  0.5614380000000  0.5197650000000 1.0
C      1  0.5295240000000  0.3734550000000  0.5460940000000 1.0
C      1  0.5464540000000  0.4207170000000  0.5277880000000 1.0
C      1  0.4758650000000  0.5047930000000  0.3703640000000 1.0
C      1  0.4415630000000  0.5006100000000  0.5392880000000 1.0
C      1  0.4222030000000  0.5240060000000  0.4734660000000 1.0
C      1  0.4283410000000  0.4241990000000  0.4858450000000 1.0
C      1  0.4994120000000  0.5202410000000  0.4172050000000 1.0
C      1  0.4757430000000  0.4292370000000  0.4076480000000 1.0
C      1  0.4195200000000  0.5430600000000  0.4516640000000 1.0
C      1  0.5517080000000  0.4796590000000  0.4868960000000 1.0
C      1  0.4418790000000  0.5028890000000  0.5891850000000 1.0
C      1  0.6054720000000  0.4580200000000  0.5034440000000 1.0
C      1  0.3744210000000  0.5067570000000  0.5088370000000 1.0
C      1  0.4318620000000  0.4765790000000  0.5252530000000 1.0
C      1  0.5468270000000  0.5432720000000  0.4145310000000 1.0
C      1  0.5272060000000  0.4732780000000  0.4010550000000 1.0
C      1  0.4737470000000  0.5324390000000  0.5740210000000 1.0
C      1  0.5028300000000  0.5559690000000  0.5472970000000 1.0
C      1  0.3969260000000  0.5045280000000  0.5542580000000 1.0
C      1  0.6170090000000  0.4707880000000  0.4810270000000 1.0
C      1  0.4347670000000  0.4715490000000  0.4749450000000 1.0
C      1  0.6154510000000  0.5910020000000  0.4974210000000 1.0
C      1  0.6049240000000  0.4677100000000  0.5320520000000 1.0
C      1  0.4990470000000  0.4802650000000  0.5863430000000 1.0
C      1  0.5953560000000  0.5706440000000  0.4926650000000 1.0
C      1  0.4045120000000  0.5404110000000  0.5240000000000 1.0
C      1  0.5445380000000  0.3919980000000  0.5342000000000 1.0
C      1  0.5077170000000  0.6058780000000  0.5513930000000 1.0
C      1  0.5617910000000  0.4349450000000  0.4813210000000 1.0
C      1  0.3875700000000  0.5193050000000  0.5310720000000 1.0
C      1  0.4656480000000  0.4949130000000  0.3485150000000 1.0
C      1  0.4688340000000  0.4687560000000  0.4324630000000 1.0
C      1  0.4781720000000  0.3819480000000  0.4631080000000 1.0
C      1  0.5388020000000  0.5042180000000  0.6156640000000 1.0
C      1  0.4231200000000  0.5915920000000  0.4949790000000 1.0
C      1  0.6164870000000  0.4865720000000  0.4592480000000 1.0
C      1  0.5862450000000  0.5099930000000  0.4218580000000 1.0
C      1  0.6037400000000  0.5018980000000  0.5702260000000 1.0
C      1  0.4861550000000  0.4545840000000  0.4145290000000 1.0
C      1  0.3896710000000  0.4772960000000  0.5498540000000 1.0
C      1  0.4973130000000  0.5890720000000  0.3979840000000 1.0
C      1  0.4207030000000  0.5351590000000  0.4998430000000 1.0
C      1  0.4937440000000  0.5599260000000  0.4730120000000 1.0
C      1  0.4795900000000  0.6104010000000  0.5113440000000 1.0
C      1  0.6103250000000  0.4939230000000  0.5429750000000 1.0
C      1  0.4913200000000  0.4926670000000  0.5403070000000 1.0
C      1  0.4232130000000  0.5020790000000  0.4238110000000 1.0
C      1  0.5396060000000  0.4554300000000  0.5668290000000 1.0
C      1  0.6065500000000  0.5025310000000  0.4400080000000 1.0
C      1  0.3745530000000  0.4979980000000  0.4832300000000 1.0
C      1  0.4797870000000  0.6131110000000  0.4824710000000 1.0
C      1  0.4381880000000  0.5764370000000  0.5127860000000 1.0
C      1  0.4744090000000  0.4244330000000  0.5775390000000 1.0
C      1  0.5469970000000  0.5851320000000  0.5304080000000 1.0
C      1  0.4861270000000  0.4993550000000  0.4806230000000 1.0
C      1  0.4153150000000  0.4291120000000  0.4221240000000 1.0
C      1  0.5337650000000  0.5937020000000  0.5544260000000 1.0
C      1  0.4467170000000  0.4717030000000  0.5016300000000 1.0
C      1  0.4681220000000  0.5358790000000  0.5118040000000 1.0
C      1  0.4887320000000  0.5531170000000  0.5008200000000 1.0
C      1  0.5224200000000  0.5154260000000  0.5088220000000 1.0
C      1  0.5430390000000  0.5324120000000  0.5194230000000 1.0
C      1  0.4423180000000  0.4567790000000  0.5725220000000 1.0
C      1  0.4454410000000  0.5504870000000  0.4132720000000 1.0
C      1  0.5371890000000  0.4755200000000  0.6131000000000 1.0
C      1  0.5829570000000  0.4532770000000  0.5446020000000 1.0
C      1  0.4634180000000  0.5213580000000  0.5972000000000 1.0
C      1  0.5261030000000  0.4553200000000  0.4479050000000 1.0
C      1  0.5232960000000  0.5491550000000  0.5662920000000 1.0
C      1  0.4200780000000  0.4163650000000  0.5615560000000 1.0
C      1  0.5463630000000  0.4579390000000  0.6324990000000 1.0
C      1  0.4792790000000  0.4592180000000  0.4582830000000 1.0
C      1  0.5249560000000  0.4673680000000  0.5887690000000 1.0
C      1  0.5323100000000  0.3989010000000  0.4263630000000 1.0
C      1  0.4341860000000  0.4043450000000  0.5025830000000 1.0
C      1  0.5283870000000  0.4717420000000  0.5043910000000 1.0
C      1  0.5869650000000  0.5098670000000  0.5904580000000 1.0
C      1  0.5698440000000  0.4888540000000  0.4120640000000 1.0
C      1  0.4204330000000  0.4443980000000  0.5601510000000 1.0
C      1  0.6106230000000  0.5136850000000  0.5227240000000 1.0
C      1  0.4442150000000  0.5496250000000  0.5053840000000 1.0
C      1  0.4839180000000  0.4608700000000  0.5440850000000 1.0
C      1  0.5379430000000  0.5618130000000  0.5130990000000 1.0
C      1  0.5132530000000  0.6048500000000  0.4418600000000 1.0
C      1  0.5761250000000  0.4611110000000  0.4125880000000 1.0
C      1  0.5143420000000  0.4582360000000  0.4206180000000 1.0
C      1  0.4810100000000  0.3972050000000  0.4407230000000 1.0
C      1  0.5737040000000  0.4969000000000  0.4936530000000 1.0
C      1  0.4660060000000  0.4469180000000  0.5604370000000 1.0
C      1  0.4325280000000  0.5697730000000  0.4535190000000 1.0
C      1  0.4265030000000  0.5310090000000  0.4246390000000 1.0
C      1  0.5168280000000  0.5891710000000  0.4184290000000 1.0
C      1  0.4397270000000  0.5008770000000  0.4667440000000 1.0
C      1  0.4783400000000  0.5531540000000  0.4495890000000 1.0
C      1  0.5843740000000  0.4375310000000  0.4996800000000 1.0
C      1  0.4856180000000  0.5177470000000  0.6167050000000 1.0
C      1  0.5521250000000  0.5233390000000  0.4596530000000 1.0
C      1  0.5694870000000  0.4351760000000  0.4157470000000 1.0
C      1  0.5642820000000  0.5138780000000  0.6053650000000 1.0
C      1  0.4816430000000  0.6014490000000  0.5391520000000 1.0
C      1  0.4366070000000  0.5771180000000  0.5411640000000 1.0
C      1  0.5629100000000  0.4688790000000  0.5575100000000 1.0
C      1  0.5543630000000  0.4136320000000  0.4214640000000 1.0
C      1  0.4410130000000  0.3989260000000  0.5533390000000 1.0
C      1  0.5378150000000  0.4268370000000  0.4980740000000 1.0
C      1  0.4558720000000  0.5605800000000  0.3893330000000 1.0
C      1  0.5047710000000  0.4506540000000  0.4678570000000 1.0
C      1  0.5025360000000  0.6126130000000  0.4653830000000 1.0
C      1  0.5935930000000  0.5174390000000  0.5006100000000 1.0
C      1  0.4833990000000  0.3774710000000  0.5676680000000 1.0
C      1  0.4766820000000  0.5773010000000  0.3855860000000 1.0
C      1  0.5666790000000  0.5429290000000  0.4727350000000 1.0
C      1  0.4738290000000  0.4805080000000  0.4983000000000 1.0
C      1  0.4551370000000  0.6112610000000  0.4681450000000 1.0
C      1  0.5288350000000  0.5205100000000  0.4131140000000 1.0
C      1  0.5295970000000  0.4370940000000  0.5469880000000 1.0
C      1  0.4631680000000  0.5805440000000  0.5516890000000 1.0
C      1  0.3986750000000  0.4929860000000  0.4360660000000 1.0
C      1  0.5425600000000  0.4957710000000  0.4063170000000 1.0
C      1  0.5158510000000  0.4910260000000  0.5217170000000 1.0
C      1  0.4820820000000  0.5255870000000  0.4407680000000 1.0
C      1  0.5166690000000  0.4469270000000  0.4937590000000 1.0
C      1  0.5361450000000  0.5729960000000  0.5743250000000 1.0
C      1  0.4771260000000  0.4673820000000  0.6004960000000 1.0
C      1  0.5371030000000  0.5695590000000  0.4163110000000 1.0
C      1  0.6047660000000  0.6164090000000  0.4940080000000 1.0
C      1  0.4461280000000  0.4840350000000  0.4231340000000 1.0
C      1  0.4683980000000  0.5078920000000  0.4597830000000 1.0
C      1  0.5608670000000  0.4962740000000  0.5512100000000 1.0
C      1  0.4673740000000  0.5114790000000  0.5298850000000 1.0
C      1  0.5045690000000  0.3959950000000  0.4224180000000 1.0
C      1  0.3825600000000  0.4929850000000  0.4578830000000 1.0
C      1  0.4853090000000  0.5135910000000  0.3935150000000 1.0
C      1  0.4329990000000  0.5936070000000  0.4688700000000 1.0
C      1  0.4656540000000  0.3990180000000  0.5683470000000 1.0
C      1  0.4495780000000  0.4754230000000  0.5929210000000 1.0
C      1  0.5194090000000  0.5375390000000  0.6451340000000 1.0
C      1  0.4367600000000  0.4303150000000  0.4394560000000 1.0
C      1  0.4405960000000  0.3929350000000  0.5258600000000 1.0
C      1  0.5247990000000  0.5280480000000  0.4633920000000 1.0
C      1  0.5589400000000  0.5199630000000  0.5387990000000 1.0
C      1  0.4558850000000  0.5648990000000  0.4371000000000 1.0
C      1  0.5108350000000  0.5132790000000  0.4827240000000 1.0
END
