TITL C-627110-360-124 12.44724140758 125000 -165.265552273843 0 0 30 (C1) n - 1
REM
REM in /home/nfs/bkarasulu/CARBON/AIRSS/Generating-Clusters/LCBOP/Only-C1/SD-CG/FIRE-CG
REM
REM
REM
REM
REM
REM ./C.cell (11c1c37f851c82e70ff6c80c92926a4b)
REM AIRSS Version 0.9.1 bugfix July 2018 build 013d7b7c2542+ Fri, 06 Jul 2018 19:26:36 +0100
REM compiler GCC version 9.2.1 20190827 (Red Hat 9.2.1-1)
REM options -cpp -mtune=generic -march=x86-64 -g -O0 -fpre-include=/usr/include/finclude/math-vector-fortran.h
REM seed -460827006 -1649462917 -1484986165 -1345525302 1523349490 -1282454701 408389148 -184246172 100671160 -2001586793 -1099089458 385520557 -626012922 533674616 2095292923 -246568692 -106972385 -1593007430 -67276921 723100116 734348559 -2031011020 -701933292 -776294688 -702512570 1212792680 -96065390 1363051059 66271213 -1269040064 1499778725 -607923753 -192973385
REM
CELL 1.54180   50.00000   50.00000   50.00000   90.00000   90.00000   90.00000
LATT -1
SFAC C  
C      1  0.4856580000000  0.4815190000000  0.3941850000000 1.0
C      1  0.5031350000000  0.4486810000000  0.6624760000000 1.0
C      1  0.5541980000000  0.4049210000000  0.6370170000000 1.0
C      1  0.4810940000000  0.5193750000000  0.4803880000000 1.0
C      1  0.4991550000000  0.4846700000000  0.5716180000000 1.0
C      1  0.4566220000000  0.5042200000000  0.4342220000000 1.0
C      1  0.4291500000000  0.5081440000000  0.4310490000000 1.0
C      1  0.5364160000000  0.5505690000000  0.5076720000000 1.0
C      1  0.5101870000000  0.4576860000000  0.6158650000000 1.0
C      1  0.4691840000000  0.5119460000000  0.4579410000000 1.0
C      1  0.4997900000000  0.4704620000000  0.3746850000000 1.0
C      1  0.5278300000000  0.4485230000000  0.3359970000000 1.0
C      1  0.4962070000000  0.5760310000000  0.5009090000000 1.0
C      1  0.4945250000000  0.4983150000000  0.5493800000000 1.0
C      1  0.5358800000000  0.4234290000000  0.6381030000000 1.0
C      1  0.4937650000000  0.5277560000000  0.5038110000000 1.0
C      1  0.5838550000000  0.5594700000000  0.5042130000000 1.0
C      1  0.3513910000000  0.5192440000000  0.4220280000000 1.0
C      1  0.5705810000000  0.5046980000000  0.5503040000000 1.0
C      1  0.5087480000000  0.5519200000000  0.5039990000000 1.0
C      1  0.5678060000000  0.5241720000000  0.5332060000000 1.0
C      1  0.4715310000000  0.4925700000000  0.4136760000000 1.0
C      1  0.5162520000000  0.4433260000000  0.6390780000000 1.0
C      1  0.5627160000000  0.5447590000000  0.5150130000000 1.0
C      1  0.4920950000000  0.5123640000000  0.5270570000000 1.0
C      1  0.6035740000000  0.5732110000000  0.4941350000000 1.0
C      1  0.3770310000000  0.5155830000000  0.4250030000000 1.0
C      1  0.4030990000000  0.5118620000000  0.4280270000000 1.0
C      1  0.5045990000000  0.4711710000000  0.5937620000000 1.0
C      1  0.5139270000000  0.4594020000000  0.3551810000000 1.0
END
