TITL C-627108-131-118 0.0473411042146801 125000 -236.3280399374 0 0 40 (C1) n - 1
REM
REM in /home/nfs/bkarasulu/CARBON/AIRSS/Generating-Clusters/LCBOP/Only-C1/SD-CG/FIRE-CG
REM
REM
REM
REM
REM
REM ./C.cell (11c1c37f851c82e70ff6c80c92926a4b)
REM AIRSS Version 0.9.1 bugfix July 2018 build 013d7b7c2542+ Fri, 06 Jul 2018 19:26:36 +0100
REM compiler GCC version 9.2.1 20190827 (Red Hat 9.2.1-1)
REM options -cpp -mtune=generic -march=x86-64 -g -O0 -fpre-include=/usr/include/finclude/math-vector-fortran.h
REM seed -1138728101 -688615684 2123054223 -133033337 27069194 1184295478 363706525 2054351235 -1955419038 -688686211 1687894998 -1450664062 153492390 392317980 789565275 179201619 -1515758612 -615077991 -1742747305 -1552751479 2056429672 -118349654 -4787479 -466496406 -1392581201 -901335220 -373543294 613353413 189964160 -2133048056 730761265 -1425326008 311046454
REM
CELL 1.54180   50.00000   50.00000   50.00000   90.00000   90.00000   90.00000
LATT -1
SFAC C  
C      1  0.4352390000000  0.5511100000000  0.4326520000000 1.0
C      1  0.4935160000000  0.5231440000000  0.5121360000000 1.0
C      1  0.4693700000000  0.5679720000000  0.5030700000000 1.0
C      1  0.4679720000000  0.4847690000000  0.5499760000000 1.0
C      1  0.4927850000000  0.4688670000000  0.5496440000000 1.0
C      1  0.5665580000000  0.4604710000000  0.4893210000000 1.0
C      1  0.4864910000000  0.4433360000000  0.4708840000000 1.0
C      1  0.5416990000000  0.4815480000000  0.5471930000000 1.0
C      1  0.4968850000000  0.6393800000000  0.5280380000000 1.0
C      1  0.4747300000000  0.5451670000000  0.5183300000000 1.0
C      1  0.4879110000000  0.6163390000000  0.5197800000000 1.0
C      1  0.5025100000000  0.5127870000000  0.5385060000000 1.0
C      1  0.5627610000000  0.4655970000000  0.5378720000000 1.0
C      1  0.4593510000000  0.4904010000000  0.5024050000000 1.0
C      1  0.5898300000000  0.4516210000000  0.4781540000000 1.0
C      1  0.4434170000000  0.5607770000000  0.4559410000000 1.0
C      1  0.5147870000000  0.4878210000000  0.5456950000000 1.0
C      1  0.4837160000000  0.5030110000000  0.4939060000000 1.0
C      1  0.4546850000000  0.5658610000000  0.4793820000000 1.0
C      1  0.4757540000000  0.5130010000000  0.5537540000000 1.0
C      1  0.5572890000000  0.4505320000000  0.5143200000000 1.0
C      1  0.4937830000000  0.4295260000000  0.4925410000000 1.0
C      1  0.4572270000000  0.4888600000000  0.4190820000000 1.0
C      1  0.4158920000000  0.5432330000000  0.3892770000000 1.0
C      1  0.4430260000000  0.5094170000000  0.4101930000000 1.0
C      1  0.4311060000000  0.5347400000000  0.4103170000000 1.0
C      1  0.4988940000000  0.4898580000000  0.4739030000000 1.0
C      1  0.6112790000000  0.4628720000000  0.5620740000000 1.0
C      1  0.5080890000000  0.4314940000000  0.5166090000000 1.0
C      1  0.4721700000000  0.4746440000000  0.4357500000000 1.0
C      1  0.4957650000000  0.4430000000000  0.5392800000000 1.0
C      1  0.4860150000000  0.4688610000000  0.4591960000000 1.0
C      1  0.5362300000000  0.4319140000000  0.5153180000000 1.0
C      1  0.4633380000000  0.5370810000000  0.5437810000000 1.0
C      1  0.4788030000000  0.5929050000000  0.5114260000000 1.0
C      1  0.5504380000000  0.4797850000000  0.4768530000000 1.0
C      1  0.5873870000000  0.4643400000000  0.5507200000000 1.0
C      1  0.5268090000000  0.4912990000000  0.4727110000000 1.0
C      1  0.6348320000000  0.4613980000000  0.5731510000000 1.0
C      1  0.4516600000000  0.4812590000000  0.5268590000000 1.0
END
