TITL C-627110-360-2010 0.000120629641523509 125000 -458.696267268688 0 0 75 (C1) n - 1
REM
REM in /home/nfs/bkarasulu/CARBON/AIRSS/Generating-Clusters/LCBOP/Only-C1/SD-CG/FIRE-CG
REM
REM
REM
REM
REM
REM ./C.cell (11c1c37f851c82e70ff6c80c92926a4b)
REM AIRSS Version 0.9.1 bugfix July 2018 build 013d7b7c2542+ Fri, 06 Jul 2018 19:26:36 +0100
REM compiler GCC version 9.2.1 20190827 (Red Hat 9.2.1-1)
REM options -cpp -mtune=generic -march=x86-64 -g -O0 -fpre-include=/usr/include/finclude/math-vector-fortran.h
REM seed 2032997473 -913695917 1941284595 -117279877 428039518 -1985409339 847287428 1244255712 -1871432780 -1496043440 -847363400 -516033011 99858993 250319591 -2046439110 947211966 317493233 1892174339 -958195887 -600573432 1952251725 -1809106277 -265955896 -1244631015 -1181783209 -871916765 -1061511718 -1886509909 845078336 963304168 -296973810 -242615461 -1252334553
REM
CELL 1.54180   50.00000   50.00000   50.00000   90.00000   90.00000   90.00000
LATT -1
SFAC C  
C      1  0.5883910000000  0.4708490000000  0.4364100000000 1.0
C      1  0.4904920000000  0.4089020000000  0.4682020000000 1.0
C      1  0.4595490000000  0.5731480000000  0.5461660000000 1.0
C      1  0.3504730000000  0.5024890000000  0.4873640000000 1.0
C      1  0.4241180000000  0.5803500000000  0.5102360000000 1.0
C      1  0.5481230000000  0.4388070000000  0.5749170000000 1.0
C      1  0.4737350000000  0.4829130000000  0.5115810000000 1.0
C      1  0.5259130000000  0.4233920000000  0.4983900000000 1.0
C      1  0.4579130000000  0.5120320000000  0.4488810000000 1.0
C      1  0.5372290000000  0.5765590000000  0.5553400000000 1.0
C      1  0.4997040000000  0.5380500000000  0.5179980000000 1.0
C      1  0.4678220000000  0.5367630000000  0.4515360000000 1.0
C      1  0.3033110000000  0.4934800000000  0.4659410000000 1.0
C      1  0.5285910000000  0.5234630000000  0.4799670000000 1.0
C      1  0.4468430000000  0.4886870000000  0.5067740000000 1.0
C      1  0.4986370000000  0.5725130000000  0.4679040000000 1.0
C      1  0.5086310000000  0.5653870000000  0.5143740000000 1.0
C      1  0.6046660000000  0.4888160000000  0.5008390000000 1.0
C      1  0.5180250000000  0.5727690000000  0.4884470000000 1.0
C      1  0.5162230000000  0.4125110000000  0.5451360000000 1.0
C      1  0.4423740000000  0.5867730000000  0.5307520000000 1.0
C      1  0.4974030000000  0.4715480000000  0.5559600000000 1.0
C      1  0.4946580000000  0.4919660000000  0.4944260000000 1.0
C      1  0.5068050000000  0.4176990000000  0.5193750000000 1.0
C      1  0.3742240000000  0.5070700000000  0.4981540000000 1.0
C      1  0.5072030000000  0.4730000000000  0.4247130000000 1.0
C      1  0.5548130000000  0.5583800000000  0.5638990000000 1.0
C      1  0.5726810000000  0.4531550000000  0.5010690000000 1.0
C      1  0.5793810000000  0.4783260000000  0.5145100000000 1.0
C      1  0.5932500000000  0.4971220000000  0.4397160000000 1.0
C      1  0.5955850000000  0.5134270000000  0.4879270000000 1.0
C      1  0.4319540000000  0.5854120000000  0.4838450000000 1.0
C      1  0.4165580000000  0.5294460000000  0.5509370000000 1.0
C      1  0.5628100000000  0.5331370000000  0.5608620000000 1.0
C      1  0.5029980000000  0.5179000000000  0.5621780000000 1.0
C      1  0.5205010000000  0.5188420000000  0.4265220000000 1.0
C      1  0.5070320000000  0.5176390000000  0.4982750000000 1.0
C      1  0.5875730000000  0.4492290000000  0.4526230000000 1.0
C      1  0.3991370000000  0.5123420000000  0.5093350000000 1.0
C      1  0.4505680000000  0.4863470000000  0.4509840000000 1.0
C      1  0.4214340000000  0.4960520000000  0.5045590000000 1.0
C      1  0.5662140000000  0.5028030000000  0.5228300000000 1.0
C      1  0.5421020000000  0.4278480000000  0.4309950000000 1.0
C      1  0.5499330000000  0.4371230000000  0.5036620000000 1.0
C      1  0.5183070000000  0.5795280000000  0.5366740000000 1.0
C      1  0.4791890000000  0.4189180000000  0.5119830000000 1.0
C      1  0.4480030000000  0.4611170000000  0.4597240000000 1.0
C      1  0.5515410000000  0.5379840000000  0.4895900000000 1.0
C      1  0.4417290000000  0.5313610000000  0.5600030000000 1.0
C      1  0.4507520000000  0.5793140000000  0.4659580000000 1.0
C      1  0.4883900000000  0.5332560000000  0.5439140000000 1.0
C      1  0.5329610000000  0.4193910000000  0.5646980000000 1.0
C      1  0.5976090000000  0.5144780000000  0.4598400000000 1.0
C      1  0.3266970000000  0.4979470000000  0.4765640000000 1.0
C      1  0.5529070000000  0.4650490000000  0.5740080000000 1.0
C      1  0.4035220000000  0.5345850000000  0.5264500000000 1.0
C      1  0.5457320000000  0.5656620000000  0.4856450000000 1.0
C      1  0.5255300000000  0.5240940000000  0.4521280000000 1.0
C      1  0.5253080000000  0.4364080000000  0.4507130000000 1.0
C      1  0.5931410000000  0.4481490000000  0.4802090000000 1.0
C      1  0.5117820000000  0.4969870000000  0.4137240000000 1.0
C      1  0.5717650000000  0.5229160000000  0.5019160000000 1.0
C      1  0.5426180000000  0.4889660000000  0.5637270000000 1.0
C      1  0.5168240000000  0.4192030000000  0.4713940000000 1.0
C      1  0.4644000000000  0.5459940000000  0.5519800000000 1.0
C      1  0.4701730000000  0.4196890000000  0.4849680000000 1.0
C      1  0.4047430000000  0.5607420000000  0.5160960000000 1.0
C      1  0.4528140000000  0.4386720000000  0.4736180000000 1.0
C      1  0.5120690000000  0.4615930000000  0.4499230000000 1.0
C      1  0.5144530000000  0.4924370000000  0.5637880000000 1.0
C      1  0.5582430000000  0.5079390000000  0.5494000000000 1.0
C      1  0.4730280000000  0.5632090000000  0.4600600000000 1.0
C      1  0.5041280000000  0.4750930000000  0.4735760000000 1.0
C      1  0.4808840000000  0.4694170000000  0.5350830000000 1.0
C      1  0.6151810000000  0.4654390000000  0.4881310000000 1.0
END
