TITL C-627111-6168-871 0.0080240241558368 125000 -450.58175723359 0 0 75 (C1) n - 1
REM
REM in /home/nfs/bkarasulu/CARBON/AIRSS/Generating-Clusters/LCBOP/Only-C1/SD-CG/FIRE-CG
REM
REM
REM
REM
REM
REM ./C.cell (11c1c37f851c82e70ff6c80c92926a4b)
REM AIRSS Version 0.9.1 bugfix July 2018 build 013d7b7c2542+ Fri, 06 Jul 2018 19:26:36 +0100
REM compiler GCC version 9.2.1 20190827 (Red Hat 9.2.1-1)
REM options -cpp -mtune=generic -march=x86-64 -g -O0 -fpre-include=/usr/include/finclude/math-vector-fortran.h
REM seed -276630616 1588734153 -1931761117 -1796242874 -993947244 -1103725395 1450568985 -790008191 1313972141 2045039802 -867699437 1776831187 927843191 -2063483656 452466037 -1978595487 1248609214 1148063740 1270492223 -488880437 2011095126 1097842163 -1916822340 -810911055 -1629556369 -848472543 -1205168623 443583097 -275013844 299297369 -1459378858 -72354791 767000554
REM
CELL 1.54180   50.00000   50.00000   50.00000   90.00000   90.00000   90.00000
LATT -1
SFAC C  
C      1  0.5091980000000  0.4952770000000  0.5330810000000 1.0
C      1  0.4989230000000  0.5796580000000  0.4699450000000 1.0
C      1  0.4950970000000  0.4273670000000  0.4537560000000 1.0
C      1  0.4517680000000  0.4774260000000  0.4041850000000 1.0
C      1  0.5187740000000  0.5089870000000  0.5113250000000 1.0
C      1  0.4874640000000  0.5551580000000  0.4590540000000 1.0
C      1  0.5102380000000  0.4407780000000  0.5141820000000 1.0
C      1  0.6696990000000  0.4528300000000  0.4251960000000 1.0
C      1  0.5010690000000  0.5345870000000  0.4122370000000 1.0
C      1  0.5667690000000  0.4899190000000  0.5009950000000 1.0
C      1  0.5473570000000  0.4222260000000  0.4894170000000 1.0
C      1  0.4204530000000  0.4591620000000  0.4928890000000 1.0
C      1  0.4853740000000  0.4548110000000  0.5855290000000 1.0
C      1  0.4440660000000  0.5292270000000  0.5916190000000 1.0
C      1  0.4234580000000  0.4661480000000  0.5636900000000 1.0
C      1  0.5430630000000  0.5497700000000  0.4288000000000 1.0
C      1  0.4462120000000  0.4627490000000  0.5016450000000 1.0
C      1  0.5187000000000  0.4433740000000  0.4586960000000 1.0
C      1  0.5457150000000  0.4378510000000  0.4655380000000 1.0
C      1  0.4244970000000  0.5438090000000  0.6781820000000 1.0
C      1  0.5327230000000  0.4234620000000  0.5137790000000 1.0
C      1  0.4684220000000  0.4356920000000  0.4625800000000 1.0
C      1  0.4533170000000  0.6032790000000  0.5350320000000 1.0
C      1  0.5297080000000  0.5274750000000  0.4156210000000 1.0
C      1  0.5745790000000  0.4731480000000  0.4389610000000 1.0
C      1  0.4343510000000  0.5287710000000  0.6587230000000 1.0
C      1  0.5223390000000  0.5712490000000  0.4320880000000 1.0
C      1  0.4147570000000  0.5586280000000  0.6972910000000 1.0
C      1  0.5399720000000  0.4088300000000  0.5356320000000 1.0
C      1  0.4828290000000  0.4779770000000  0.6311990000000 1.0
C      1  0.4502010000000  0.4420700000000  0.4421530000000 1.0
C      1  0.5010670000000  0.5523950000000  0.5170150000000 1.0
C      1  0.4899500000000  0.4628680000000  0.6104760000000 1.0
C      1  0.4987790000000  0.4872750000000  0.4570200000000 1.0
C      1  0.4677140000000  0.4491020000000  0.4887850000000 1.0
C      1  0.5751180000000  0.4693640000000  0.4862130000000 1.0
C      1  0.6237430000000  0.4761540000000  0.4355350000000 1.0
C      1  0.4268550000000  0.5086680000000  0.4557560000000 1.0
C      1  0.5563800000000  0.4839920000000  0.4205060000000 1.0
C      1  0.4944430000000  0.4561580000000  0.4966310000000 1.0
C      1  0.5250420000000  0.5840670000000  0.4583350000000 1.0
C      1  0.4523010000000  0.5043400000000  0.4594530000000 1.0
C      1  0.4459610000000  0.4571850000000  0.4205490000000 1.0
C      1  0.4760530000000  0.5544980000000  0.5302940000000 1.0
C      1  0.4138730000000  0.4944560000000  0.6042220000000 1.0
C      1  0.5333920000000  0.4997470000000  0.4200000000000 1.0
C      1  0.5247660000000  0.5679640000000  0.5171810000000 1.0
C      1  0.5991950000000  0.4878490000000  0.4413880000000 1.0
C      1  0.4704030000000  0.4556720000000  0.5635560000000 1.0
C      1  0.4506870000000  0.4790850000000  0.5249770000000 1.0
C      1  0.4563390000000  0.5070540000000  0.5261560000000 1.0
C      1  0.5031720000000  0.5297860000000  0.4997630000000 1.0
C      1  0.4894600000000  0.5311320000000  0.4746850000000 1.0
C      1  0.5478170000000  0.5715090000000  0.4715570000000 1.0
C      1  0.5663530000000  0.4577570000000  0.4618220000000 1.0
C      1  0.5453690000000  0.5710440000000  0.4997250000000 1.0
C      1  0.5078370000000  0.4663220000000  0.4733800000000 1.0
C      1  0.4326710000000  0.5138000000000  0.6120690000000 1.0
C      1  0.4621200000000  0.5312190000000  0.5403040000000 1.0
C      1  0.4479820000000  0.4656320000000  0.5500600000000 1.0
C      1  0.4796690000000  0.5068280000000  0.4640430000000 1.0
C      1  0.4963100000000  0.5560330000000  0.4306770000000 1.0
C      1  0.6469170000000  0.4644260000000  0.4303060000000 1.0
C      1  0.5968870000000  0.5146330000000  0.4498480000000 1.0
C      1  0.4535840000000  0.5328190000000  0.5671020000000 1.0
C      1  0.4816150000000  0.5198420000000  0.3988780000000 1.0
C      1  0.4663180000000  0.4961110000000  0.6415390000000 1.0
C      1  0.5457680000000  0.5056240000000  0.5051040000000 1.0
C      1  0.4107120000000  0.4764590000000  0.5847320000000 1.0
C      1  0.4443420000000  0.5131580000000  0.6379550000000 1.0
C      1  0.5599280000000  0.5524460000000  0.4526490000000 1.0
C      1  0.5108330000000  0.4879990000000  0.4318660000000 1.0
C      1  0.4643820000000  0.4996340000000  0.3965330000000 1.0
C      1  0.4641160000000  0.5796470000000  0.5330260000000 1.0
C      1  0.5826870000000  0.5365510000000  0.4553060000000 1.0
END
