TITL C-627111-6168-96 128.362409858203 125000 -1084.78319361242 0 0 176 (C1) n - 1
REM
REM in /home/nfs/bkarasulu/CARBON/AIRSS/Generating-Clusters/LCBOP/Only-C1/SD-CG/FIRE-CG
REM
REM
REM
REM
REM
REM ./C.cell (11c1c37f851c82e70ff6c80c92926a4b)
REM AIRSS Version 0.9.1 bugfix July 2018 build 013d7b7c2542+ Fri, 06 Jul 2018 19:26:36 +0100
REM compiler GCC version 9.2.1 20190827 (Red Hat 9.2.1-1)
REM options -cpp -mtune=generic -march=x86-64 -g -O0 -fpre-include=/usr/include/finclude/math-vector-fortran.h
REM seed -1336201926 192948523 -5361661 767573140 -2076237228 -2022378360 -1831563630 984905520 -1740164787 -945247758 1933640385 -760213879 1094456639 1260179618 -1487729094 1015374384 -1341525164 584682551 -1538546991 326581480 369165758 -1850168759 -194879252 383101364 -677234415 1898376918 196775853 87524254 229294011 -88239443 1807388425 -649328806 2119273581
REM
CELL 1.54180   50.00000   50.00000   50.00000   90.00000   90.00000   90.00000
LATT -1
SFAC C  
C      1  0.4481090000000  0.3863540000000  0.4410890000000 1.0
C      1  0.4673050000000  0.5178550000000  0.5078200000000 1.0
C      1  0.5939070000000  0.5937920000000  0.4980600000000 1.0
C      1  0.5610460000000  0.5735360000000  0.5592030000000 1.0
C      1  0.5045180000000  0.4362520000000  0.5415550000000 1.0
C      1  0.5625680000000  0.5148230000000  0.5207290000000 1.0
C      1  0.4919760000000  0.4272120000000  0.4852940000000 1.0
C      1  0.5426090000000  0.4679200000000  0.3740030000000 1.0
C      1  0.4132380000000  0.5067440000000  0.4262690000000 1.0
C      1  0.5996790000000  0.5442400000000  0.5697690000000 1.0
C      1  0.4373760000000  0.4973350000000  0.5470920000000 1.0
C      1  0.5184980000000  0.4596570000000  0.5534420000000 1.0
C      1  0.4332870000000  0.6205910000000  0.5197350000000 1.0
C      1  0.5553470000000  0.4587180000000  0.5226520000000 1.0
C      1  0.4491710000000  0.5881370000000  0.5898650000000 1.0
C      1  0.4093480000000  0.6012810000000  0.4793550000000 1.0
C      1  0.4663680000000  0.4911810000000  0.3955590000000 1.0
C      1  0.5103690000000  0.4128670000000  0.5241690000000 1.0
C      1  0.3917570000000  0.5259290000000  0.5178280000000 1.0
C      1  0.4941380000000  0.3881600000000  0.5260630000000 1.0
C      1  0.4726050000000  0.4545400000000  0.5711810000000 1.0
C      1  0.4010680000000  0.5365560000000  0.4930520000000 1.0
C      1  0.6020050000000  0.3806060000000  0.4641180000000 1.0
C      1  0.5323340000000  0.5373660000000  0.5885170000000 1.0
C      1  0.4582750000000  0.5612830000000  0.5973720000000 1.0
C      1  0.5518440000000  0.4827880000000  0.4443340000000 1.0
C      1  0.5670720000000  0.5641410000000  0.4059400000000 1.0
C      1  0.4753600000000  0.3745980000000  0.4802970000000 1.0
C      1  0.4707980000000  0.5514990000000  0.4021080000000 1.0
C      1  0.3896190000000  0.4635310000000  0.5794080000000 1.0
C      1  0.6393250000000  0.4138930000000  0.4751670000000 1.0
C      1  0.4222920000000  0.4092610000000  0.5277040000000 1.0
C      1  0.5748980000000  0.5448550000000  0.4250520000000 1.0
C      1  0.4371510000000  0.4734050000000  0.5317380000000 1.0
C      1  0.4965650000000  0.4691150000000  0.6100850000000 1.0
C      1  0.4161250000000  0.4557010000000  0.4359530000000 1.0
C      1  0.4705890000000  0.4831630000000  0.5762670000000 1.0
C      1  0.5557970000000  0.4571410000000  0.4559800000000 1.0
C      1  0.5108800000000  0.5218010000000  0.4855300000000 1.0
C      1  0.5412540000000  0.4327830000000  0.4516600000000 1.0
C      1  0.5890970000000  0.5691070000000  0.5610620000000 1.0
C      1  0.6378890000000  0.4806630000000  0.5461140000000 1.0
C      1  0.4611780000000  0.4573110000000  0.4664160000000 1.0
C      1  0.4684690000000  0.5369700000000  0.3778440000000 1.0
C      1  0.4810790000000  0.5489610000000  0.5795750000000 1.0
C      1  0.4890600000000  0.4939260000000  0.4119110000000 1.0
C      1  0.4765880000000  0.4452290000000  0.5443320000000 1.0
C      1  0.5937700000000  0.5665560000000  0.4910030000000 1.0
C      1  0.4316930000000  0.4094800000000  0.4431850000000 1.0
C      1  0.4221120000000  0.5656110000000  0.5553530000000 1.0
C      1  0.4545740000000  0.4833740000000  0.4598280000000 1.0
C      1  0.4134420000000  0.5052520000000  0.5889180000000 1.0
C      1  0.5745570000000  0.6092660000000  0.4842390000000 1.0
C      1  0.4394420000000  0.5433540000000  0.6082520000000 1.0
C      1  0.5754060000000  0.4177480000000  0.5054220000000 1.0
C      1  0.4998600000000  0.4692610000000  0.5052870000000 1.0
C      1  0.4449910000000  0.5100270000000  0.4967710000000 1.0
C      1  0.5389010000000  0.5578700000000  0.5692940000000 1.0
C      1  0.3967010000000  0.4835970000000  0.5959400000000 1.0
C      1  0.4902530000000  0.5716570000000  0.5610760000000 1.0
C      1  0.4339280000000  0.4334280000000  0.4273600000000 1.0
C      1  0.5165780000000  0.4184120000000  0.4957620000000 1.0
C      1  0.4128020000000  0.4334080000000  0.5152280000000 1.0
C      1  0.5613640000000  0.5309130000000  0.4974280000000 1.0
C      1  0.6255300000000  0.3930920000000  0.4658880000000 1.0
C      1  0.5081920000000  0.5710550000000  0.4816830000000 1.0
C      1  0.5485170000000  0.6043890000000  0.4739540000000 1.0
C      1  0.5275650000000  0.5214670000000  0.4027560000000 1.0
C      1  0.4655730000000  0.4194660000000  0.4932870000000 1.0
C      1  0.5404120000000  0.5051020000000  0.5363540000000 1.0
C      1  0.3987460000000  0.5095150000000  0.4519400000000 1.0
C      1  0.4864530000000  0.4280760000000  0.4408210000000 1.0
C      1  0.3868650000000  0.5603920000000  0.4551510000000 1.0
C      1  0.4426300000000  0.5841770000000  0.5620890000000 1.0
C      1  0.6055650000000  0.4997190000000  0.4825270000000 1.0
C      1  0.6376980000000  0.4580490000000  0.5034950000000 1.0
C      1  0.6054110000000  0.5875790000000  0.5470420000000 1.0
C      1  0.5988640000000  0.5227640000000  0.5517090000000 1.0
C      1  0.5311630000000  0.5881340000000  0.4896680000000 1.0
C      1  0.5402730000000  0.6097270000000  0.4476550000000 1.0
C      1  0.6077130000000  0.4962120000000  0.5105430000000 1.0
C      1  0.4923050000000  0.5742720000000  0.4586370000000 1.0
C      1  0.4373120000000  0.6319390000000  0.5439670000000 1.0
C      1  0.4940220000000  0.3707150000000  0.5021890000000 1.0
C      1  0.4758600000000  0.4882220000000  0.6042990000000 1.0
C      1  0.4468250000000  0.4728110000000  0.4040550000000 1.0
C      1  0.4463710000000  0.5659810000000  0.4414660000000 1.0
C      1  0.5552370000000  0.6199010000000  0.5424800000000 1.0
C      1  0.6101360000000  0.5413490000000  0.5948320000000 1.0
C      1  0.5257030000000  0.4682230000000  0.6097690000000 1.0
C      1  0.5187480000000  0.3971210000000  0.4296980000000 1.0
C      1  0.5133840000000  0.5043440000000  0.4202950000000 1.0
C      1  0.4087500000000  0.4604510000000  0.4644950000000 1.0
C      1  0.5754440000000  0.4981430000000  0.4383490000000 1.0
C      1  0.4565360000000  0.3933050000000  0.4915720000000 1.0
C      1  0.4841490000000  0.4390310000000  0.4144960000000 1.0
C      1  0.4627200000000  0.5036300000000  0.5587970000000 1.0
C      1  0.4414390000000  0.5745010000000  0.5023200000000 1.0
C      1  0.5383610000000  0.5818640000000  0.5164940000000 1.0
C      1  0.5430940000000  0.5655870000000  0.3934270000000 1.0
C      1  0.4790530000000  0.5406970000000  0.5203970000000 1.0
C      1  0.4183140000000  0.4137740000000  0.4683710000000 1.0
C      1  0.6475950000000  0.4810440000000  0.5703000000000 1.0
C      1  0.4472880000000  0.5495380000000  0.4189190000000 1.0
C      1  0.5043410000000  0.5477830000000  0.5035440000000 1.0
C      1  0.4426640000000  0.6325140000000  0.5705910000000 1.0
C      1  0.5727970000000  0.5497280000000  0.4524700000000 1.0
C      1  0.5045270000000  0.5390200000000  0.5959430000000 1.0
C      1  0.4275230000000  0.5293180000000  0.4165880000000 1.0
C      1  0.4873340000000  0.4440680000000  0.5947090000000 1.0
C      1  0.5130140000000  0.4390920000000  0.4067330000000 1.0
C      1  0.4637130000000  0.5105090000000  0.3753040000000 1.0
C      1  0.5334700000000  0.4389940000000  0.6062720000000 1.0
C      1  0.4373350000000  0.5478250000000  0.5383690000000 1.0
C      1  0.5650490000000  0.4631610000000  0.5494790000000 1.0
C      1  0.4675570000000  0.5814000000000  0.5459670000000 1.0
C      1  0.5089540000000  0.4255410000000  0.5993770000000 1.0
C      1  0.4089830000000  0.4886760000000  0.4697350000000 1.0
C      1  0.4971630000000  0.5604360000000  0.4106890000000 1.0
C      1  0.4331900000000  0.5159930000000  0.6070200000000 1.0
C      1  0.5898150000000  0.5095850000000  0.5286800000000 1.0
C      1  0.6277750000000  0.4783010000000  0.5201770000000 1.0
C      1  0.4558620000000  0.4454380000000  0.4101770000000 1.0
C      1  0.4480590000000  0.6165160000000  0.5922470000000 1.0
C      1  0.5539930000000  0.5117760000000  0.3965920000000 1.0
C      1  0.4892040000000  0.4479580000000  0.4634930000000 1.0
C      1  0.4594840000000  0.5629430000000  0.5232750000000 1.0
C      1  0.5216060000000  0.5603970000000  0.5252500000000 1.0
C      1  0.5764720000000  0.3831910000000  0.4717210000000 1.0
C      1  0.5207590000000  0.5488650000000  0.3988660000000 1.0
C      1  0.4223400000000  0.4797820000000  0.4191500000000 1.0
C      1  0.5248980000000  0.4864690000000  0.5493450000000 1.0
C      1  0.5015530000000  0.4727000000000  0.4770140000000 1.0
C      1  0.3960580000000  0.4564200000000  0.5544290000000 1.0
C      1  0.4356160000000  0.4966630000000  0.4752910000000 1.0
C      1  0.3944400000000  0.5854090000000  0.4630360000000 1.0
C      1  0.5557810000000  0.4908030000000  0.3782030000000 1.0
C      1  0.3961150000000  0.5270020000000  0.5462210000000 1.0
C      1  0.4539060000000  0.4994410000000  0.6174440000000 1.0
C      1  0.4202910000000  0.4389420000000  0.4861500000000 1.0
C      1  0.4431550000000  0.3963410000000  0.5391850000000 1.0
C      1  0.4145010000000  0.5092020000000  0.5599370000000 1.0
C      1  0.5530590000000  0.5929160000000  0.5384110000000 1.0
C      1  0.5619270000000  0.4648320000000  0.5777730000000 1.0
C      1  0.4234760000000  0.5539570000000  0.4937750000000 1.0
C      1  0.5031180000000  0.5784100000000  0.4324640000000 1.0
C      1  0.4296690000000  0.6007100000000  0.4997480000000 1.0
C      1  0.5756470000000  0.5481500000000  0.4801780000000 1.0
C      1  0.4743080000000  0.3811230000000  0.4518760000000 1.0
C      1  0.4755280000000  0.5275370000000  0.5559880000000 1.0
C      1  0.5455030000000  0.4841550000000  0.5943330000000 1.0
C      1  0.5249470000000  0.4509330000000  0.3844570000000 1.0
C      1  0.5263500000000  0.4961860000000  0.4442650000000 1.0
C      1  0.5381190000000  0.4157310000000  0.4764440000000 1.0
C      1  0.5121380000000  0.4979790000000  0.4687930000000 1.0
C      1  0.5734320000000  0.4564490000000  0.4781800000000 1.0
C      1  0.4932420000000  0.3993540000000  0.4417130000000 1.0
C      1  0.5221670000000  0.5991540000000  0.4308550000000 1.0
C      1  0.5961950000000  0.4988690000000  0.4574600000000 1.0
C      1  0.3967680000000  0.5536170000000  0.5575820000000 1.0
C      1  0.6060450000000  0.5994010000000  0.5228280000000 1.0
C      1  0.5726040000000  0.4458210000000  0.5042430000000 1.0
C      1  0.4138470000000  0.4561540000000  0.5326500000000 1.0
C      1  0.3913840000000  0.5340970000000  0.4656750000000 1.0
C      1  0.4505240000000  0.4448690000000  0.4911930000000 1.0
C      1  0.5581070000000  0.4395160000000  0.5918090000000 1.0
C      1  0.5300290000000  0.4235430000000  0.4262310000000 1.0
C      1  0.5618010000000  0.4023730000000  0.4857410000000 1.0
C      1  0.5451680000000  0.5124660000000  0.5930130000000 1.0
C      1  0.4657740000000  0.4606760000000  0.5190010000000 1.0
C      1  0.5160050000000  0.5632410000000  0.5523750000000 1.0
C      1  0.5728550000000  0.5173390000000  0.4173640000000 1.0
C      1  0.6425440000000  0.4366510000000  0.4885330000000 1.0
C      1  0.4644750000000  0.5740970000000  0.4592290000000 1.0
C      1  0.5286580000000  0.4649570000000  0.5119340000000 1.0
C      1  0.4692720000000  0.3891900000000  0.5404100000000 1.0
END
