TITL C-627109-622-1171 -7.18719475395304e-09 125000 -175.238165891018 0 0 30 (C1) n - 1
REM
REM in /home/nfs/bkarasulu/CARBON/AIRSS/Generating-Clusters/LCBOP/Only-C1/SD-CG/FIRE-CG
REM
REM
REM
REM
REM
REM ./C.cell (11c1c37f851c82e70ff6c80c92926a4b)
REM AIRSS Version 0.9.1 bugfix July 2018 build 013d7b7c2542+ Fri, 06 Jul 2018 19:26:36 +0100
REM compiler GCC version 9.2.1 20190827 (Red Hat 9.2.1-1)
REM options -cpp -mtune=generic -march=x86-64 -g -O0 -fpre-include=/usr/include/finclude/math-vector-fortran.h
REM seed 1109793159 1057579211 -1259257599 236140187 1981653885 -483021512 73886012 847999213 1954918037 -1996961278 -421177600 2099412078 65865057 1029481314 -630451870 983537155 -1536204358 640461863 -1504665829 -1699065011 -175693168 1033308504 1820019148 1480383113 1362003491 1305976452 1877478180 -275436535 879262687 -802126722 1138883856 426664183 -951857432
REM
CELL 1.54180   50.00000   50.00000   50.00000   90.00000   90.00000   90.00000
LATT -1
SFAC C  
C      1  0.5322040000000  0.4335860000000  0.5243450000000 1.0
C      1  0.4752200000000  0.4809900000000  0.5064640000000 1.0
C      1  0.5130980000000  0.5638400000000  0.4943680000000 1.0
C      1  0.4694470000000  0.5522290000000  0.4742630000000 1.0
C      1  0.5395750000000  0.5541960000000  0.5001530000000 1.0
C      1  0.4888820000000  0.5135480000000  0.5454380000000 1.0
C      1  0.4645880000000  0.4343100000000  0.5135990000000 1.0
C      1  0.4565870000000  0.4595980000000  0.5044410000000 1.0
C      1  0.4750090000000  0.4984840000000  0.5283900000000 1.0
C      1  0.5215510000000  0.4708660000000  0.4962270000000 1.0
C      1  0.4437110000000  0.5550650000000  0.4713080000000 1.0
C      1  0.5537090000000  0.4772610000000  0.5315860000000 1.0
C      1  0.5126650000000  0.5235900000000  0.5521970000000 1.0
C      1  0.5461360000000  0.5467820000000  0.5263610000000 1.0
C      1  0.5107310000000  0.4177550000000  0.5263660000000 1.0
C      1  0.5367990000000  0.5263380000000  0.4613210000000 1.0
C      1  0.5088270000000  0.5239900000000  0.4655250000000 1.0
C      1  0.4965700000000  0.5469060000000  0.4779200000000 1.0
C      1  0.4819560000000  0.4901490000000  0.4425540000000 1.0
C      1  0.5378810000000  0.4598800000000  0.5163740000000 1.0
C      1  0.4958750000000  0.4988200000000  0.4650850000000 1.0
C      1  0.4973290000000  0.4827060000000  0.4884360000000 1.0
C      1  0.4313760000000  0.4636980000000  0.4933050000000 1.0
C      1  0.5043890000000  0.5879730000000  0.5037940000000 1.0
C      1  0.5392890000000  0.5254190000000  0.5432870000000 1.0
C      1  0.5542990000000  0.5016830000000  0.5423990000000 1.0
C      1  0.5520170000000  0.5412610000000  0.4781540000000 1.0
C      1  0.4673850000000  0.4819310000000  0.4225730000000 1.0
C      1  0.4084970000000  0.4686230000000  0.4818400000000 1.0
C      1  0.4843990000000  0.4185240000000  0.5219260000000 1.0
END
