TITL C-627106-156-1072 5.00552594414667e-08 125000 -502.495312128904 0 0 86 (C1) n - 1
REM
REM in /home/nfs/bkarasulu/CARBON/AIRSS/Generating-Clusters/LCBOP/Only-C1/SD-CG/FIRE-CG
REM
REM
REM
REM
REM
REM ./C.cell (11c1c37f851c82e70ff6c80c92926a4b)
REM AIRSS Version 0.9.1 bugfix July 2018 build 013d7b7c2542+ Fri, 06 Jul 2018 19:26:36 +0100
REM compiler GCC version 9.2.1 20190827 (Red Hat 9.2.1-1)
REM options -cpp -mtune=generic -march=x86-64 -g -O0 -fpre-include=/usr/include/finclude/math-vector-fortran.h
REM seed 1270151076 -1797473145 -354963007 -1419941857 -1897569189 1051644336 -566744539 384167801 -1807103317 -617325315 944191345 -839391634 1946280424 -2017480910 -1606493098 -1590816917 1186087915 -1322034150 1115325310 229051925 2116918763 -275662199 2050066516 110273755 1300067387 417436776 944723556 851759553 -1010854917 -892999342 -1891394817 409664753 -1648098577
REM
CELL 1.54180   50.00000   50.00000   50.00000   90.00000   90.00000   90.00000
LATT -1
SFAC C  
C      1  0.5672790000000  0.5585620000000  0.4373020000000 1.0
C      1  0.3999810000000  0.4727100000000  0.4687090000000 1.0
C      1  0.5189420000000  0.4731250000000  0.5285550000000 1.0
C      1  0.5602930000000  0.5599700000000  0.5178690000000 1.0
C      1  0.4431040000000  0.5290970000000  0.5217790000000 1.0
C      1  0.4863400000000  0.5182150000000  0.4012690000000 1.0
C      1  0.5361170000000  0.5798350000000  0.4986900000000 1.0
C      1  0.4171230000000  0.4360500000000  0.4461090000000 1.0
C      1  0.4477400000000  0.3977750000000  0.4823850000000 1.0
C      1  0.5026470000000  0.5411430000000  0.4098820000000 1.0
C      1  0.4980790000000  0.4746920000000  0.4728520000000 1.0
C      1  0.5424480000000  0.5004210000000  0.4728250000000 1.0
C      1  0.5021140000000  0.3965840000000  0.4863170000000 1.0
C      1  0.5266550000000  0.5808850000000  0.4634580000000 1.0
C      1  0.5572660000000  0.5410750000000  0.4784730000000 1.0
C      1  0.5089440000000  0.5479160000000  0.5195720000000 1.0
C      1  0.5757340000000  0.5526480000000  0.4960820000000 1.0
C      1  0.5516380000000  0.4885900000000  0.4262730000000 1.0
C      1  0.5133570000000  0.4978000000000  0.4663950000000 1.0
C      1  0.5343650000000  0.4062460000000  0.5553250000000 1.0
C      1  0.4770150000000  0.5641970000000  0.4764560000000 1.0
C      1  0.3937720000000  0.4481830000000  0.4547980000000 1.0
C      1  0.4567620000000  0.5536780000000  0.5230650000000 1.0
C      1  0.4284650000000  0.4768900000000  0.4627710000000 1.0
C      1  0.5141380000000  0.5760850000000  0.5151770000000 1.0
C      1  0.5518790000000  0.5367550000000  0.5335850000000 1.0
C      1  0.4931250000000  0.5002200000000  0.5961110000000 1.0
C      1  0.5048760000000  0.5251880000000  0.4702980000000 1.0
C      1  0.4404070000000  0.4515710000000  0.4545830000000 1.0
C      1  0.5473590000000  0.5176260000000  0.4214770000000 1.0
C      1  0.5940740000000  0.4901290000000  0.5142470000000 1.0
C      1  0.3890080000000  0.4835380000000  0.4917190000000 1.0
C      1  0.4897500000000  0.5614700000000  0.5659260000000 1.0
C      1  0.4671900000000  0.4624070000000  0.5510580000000 1.0
C      1  0.5455370000000  0.5098620000000  0.5732160000000 1.0
C      1  0.4462890000000  0.4193370000000  0.5278890000000 1.0
C      1  0.4713200000000  0.5972580000000  0.5106600000000 1.0
C      1  0.4629410000000  0.4424420000000  0.5313890000000 1.0
C      1  0.5270830000000  0.5410620000000  0.4229990000000 1.0
C      1  0.5357140000000  0.4832030000000  0.5814770000000 1.0
C      1  0.5836800000000  0.5003240000000  0.5372850000000 1.0
C      1  0.5643270000000  0.4721210000000  0.4451750000000 1.0
C      1  0.5414410000000  0.5018260000000  0.5017630000000 1.0
C      1  0.5125170000000  0.5523790000000  0.5773850000000 1.0
C      1  0.4976210000000  0.5811060000000  0.4649300000000 1.0
C      1  0.5929030000000  0.4793600000000  0.4890740000000 1.0
C      1  0.4629940000000  0.5716780000000  0.5009630000000 1.0
C      1  0.5529510000000  0.4568120000000  0.4924420000000 1.0
C      1  0.5098650000000  0.4465980000000  0.5291360000000 1.0
C      1  0.5636040000000  0.5157980000000  0.5506500000000 1.0
C      1  0.4402090000000  0.5017420000000  0.4606880000000 1.0
C      1  0.5261020000000  0.5225910000000  0.5222770000000 1.0
C      1  0.5636940000000  0.5181590000000  0.4630990000000 1.0
C      1  0.4616590000000  0.4895210000000  0.5429140000000 1.0
C      1  0.4638130000000  0.4395170000000  0.4645280000000 1.0
C      1  0.4882860000000  0.4601150000000  0.5717810000000 1.0
C      1  0.5410370000000  0.4750620000000  0.5109400000000 1.0
C      1  0.4823550000000  0.5153970000000  0.5763510000000 1.0
C      1  0.4866400000000  0.4077470000000  0.5075730000000 1.0
C      1  0.4869490000000  0.4389040000000  0.5114990000000 1.0
C      1  0.4839640000000  0.5061190000000  0.5494460000000 1.0
C      1  0.5385270000000  0.5653590000000  0.4395800000000 1.0
C      1  0.4645190000000  0.4106260000000  0.4624650000000 1.0
C      1  0.5277250000000  0.5406880000000  0.4788450000000 1.0
C      1  0.4791780000000  0.5367600000000  0.4690350000000 1.0
C      1  0.4123680000000  0.4943740000000  0.5381240000000 1.0
C      1  0.3947690000000  0.4906880000000  0.5166700000000 1.0
C      1  0.4388500000000  0.5033120000000  0.5329320000000 1.0
C      1  0.5232840000000  0.4267510000000  0.5436640000000 1.0
C      1  0.4041250000000  0.4897500000000  0.5638010000000 1.0
C      1  0.4625300000000  0.5549360000000  0.3893940000000 1.0
C      1  0.4905640000000  0.3987800000000  0.4615340000000 1.0
C      1  0.4692070000000  0.5601920000000  0.5483490000000 1.0
C      1  0.5085600000000  0.5003150000000  0.5358050000000 1.0
C      1  0.4575230000000  0.4007750000000  0.5091000000000 1.0
C      1  0.5545900000000  0.4631060000000  0.5864560000000 1.0
C      1  0.5725720000000  0.4660790000000  0.4729050000000 1.0
C      1  0.4829750000000  0.4524770000000  0.4830300000000 1.0
C      1  0.4967690000000  0.5977980000000  0.5201760000000 1.0
C      1  0.4860940000000  0.5639480000000  0.4014790000000 1.0
C      1  0.5741180000000  0.4465940000000  0.5914700000000 1.0
C      1  0.4626790000000  0.5270790000000  0.3892600000000 1.0
C      1  0.5311190000000  0.5332660000000  0.5819980000000 1.0
C      1  0.5072060000000  0.4774430000000  0.5861880000000 1.0
C      1  0.5697210000000  0.5295100000000  0.4372550000000 1.0
C      1  0.4569450000000  0.5220810000000  0.4615610000000 1.0
END
