TITL C-627111-6168-1109 -3.16684827957682e-07 125000 -464.760179664316 0 0 77 (C1) n - 1
REM
REM in /home/nfs/bkarasulu/CARBON/AIRSS/Generating-Clusters/LCBOP/Only-C1/SD-CG/FIRE-CG
REM
REM
REM
REM
REM
REM ./C.cell (11c1c37f851c82e70ff6c80c92926a4b)
REM AIRSS Version 0.9.1 bugfix July 2018 build 013d7b7c2542+ Fri, 06 Jul 2018 19:26:36 +0100
REM compiler GCC version 9.2.1 20190827 (Red Hat 9.2.1-1)
REM options -cpp -mtune=generic -march=x86-64 -g -O0 -fpre-include=/usr/include/finclude/math-vector-fortran.h
REM seed 838938380 2067689651 -1820550661 -1584992245 -735413748 1486279355 -1186961370 -2136487556 1464052751 -566801992 1955229478 -1373838726 -1719685466 -1734009845 -283078523 -898107603 1109096898 -929512535 238702110 -2053085369 1797709330 -204531318 1771863562 -1535013493 494256010 -710013058 1279567676 -24093759 1805171044 -259168937 -588406538 -1349327797 761214643
REM
CELL 1.54180   50.00000   50.00000   50.00000   90.00000   90.00000   90.00000
LATT -1
SFAC C  
C      1  0.5743790000000  0.4484110000000  0.4764490000000 1.0
C      1  0.5441710000000  0.4681400000000  0.4231120000000 1.0
C      1  0.4936390000000  0.4582260000000  0.4985210000000 1.0
C      1  0.4423720000000  0.5572270000000  0.4964120000000 1.0
C      1  0.5935560000000  0.5130800000000  0.5057110000000 1.0
C      1  0.4601700000000  0.4189850000000  0.5063970000000 1.0
C      1  0.5391700000000  0.5136700000000  0.4658720000000 1.0
C      1  0.5866360000000  0.4869080000000  0.5038440000000 1.0
C      1  0.5474750000000  0.5841970000000  0.4587560000000 1.0
C      1  0.5311420000000  0.4941870000000  0.5080700000000 1.0
C      1  0.5407620000000  0.4672250000000  0.5065990000000 1.0
C      1  0.3937320000000  0.5635170000000  0.5002750000000 1.0
C      1  0.5480230000000  0.4627150000000  0.5744560000000 1.0
C      1  0.5076680000000  0.5647040000000  0.4405350000000 1.0
C      1  0.4860690000000  0.4123110000000  0.5105140000000 1.0
C      1  0.5063370000000  0.4765690000000  0.4513980000000 1.0
C      1  0.5128500000000  0.5023630000000  0.4618090000000 1.0
C      1  0.4582250000000  0.5340940000000  0.4974330000000 1.0
C      1  0.4722760000000  0.5090330000000  0.5711340000000 1.0
C      1  0.4695460000000  0.5206150000000  0.4758950000000 1.0
C      1  0.4767840000000  0.4634790000000  0.5210830000000 1.0
C      1  0.4973140000000  0.4662180000000  0.3798590000000 1.0
C      1  0.4222080000000  0.5421040000000  0.5557750000000 1.0
C      1  0.4969660000000  0.5097290000000  0.5567250000000 1.0
C      1  0.5227630000000  0.5730330000000  0.4626690000000 1.0
C      1  0.4924190000000  0.5157070000000  0.5298410000000 1.0
C      1  0.4698130000000  0.5300070000000  0.5225870000000 1.0
C      1  0.4207100000000  0.4835570000000  0.5070100000000 1.0
C      1  0.5512180000000  0.5283470000000  0.5425930000000 1.0
C      1  0.4645750000000  0.5354360000000  0.5791020000000 1.0
C      1  0.5326210000000  0.3992540000000  0.5012110000000 1.0
C      1  0.5043830000000  0.5033230000000  0.5083430000000 1.0
C      1  0.4737900000000  0.4654610000000  0.5495810000000 1.0
C      1  0.5663190000000  0.4321160000000  0.4549320000000 1.0
C      1  0.4915040000000  0.4610650000000  0.4701600000000 1.0
C      1  0.5203050000000  0.4978130000000  0.5657090000000 1.0
C      1  0.5290160000000  0.5609090000000  0.5129120000000 1.0
C      1  0.4373010000000  0.5436330000000  0.5795910000000 1.0
C      1  0.4259080000000  0.5526050000000  0.6027700000000 1.0
C      1  0.5441730000000  0.5160670000000  0.4939860000000 1.0
C      1  0.5197980000000  0.4470390000000  0.5062630000000 1.0
C      1  0.5818710000000  0.5378980000000  0.5084470000000 1.0
C      1  0.5616370000000  0.4051310000000  0.4610570000000 1.0
C      1  0.4353330000000  0.4308520000000  0.4987490000000 1.0
C      1  0.4205420000000  0.5024110000000  0.5282750000000 1.0
C      1  0.5141260000000  0.5723840000000  0.5367470000000 1.0
C      1  0.5637420000000  0.4847930000000  0.5683000000000 1.0
C      1  0.4596220000000  0.5797540000000  0.4922550000000 1.0
C      1  0.4168690000000  0.5514800000000  0.5083650000000 1.0
C      1  0.5157080000000  0.4713060000000  0.4251800000000 1.0
C      1  0.4858340000000  0.5545080000000  0.5772320000000 1.0
C      1  0.5683000000000  0.4657920000000  0.4976140000000 1.0
C      1  0.5516820000000  0.5387590000000  0.5132740000000 1.0
C      1  0.5473390000000  0.5074200000000  0.5605780000000 1.0
C      1  0.4958150000000  0.4560680000000  0.5652960000000 1.0
C      1  0.4838450000000  0.5036610000000  0.4084370000000 1.0
C      1  0.5141120000000  0.4186620000000  0.5089960000000 1.0
C      1  0.4571410000000  0.4862700000000  0.5616950000000 1.0
C      1  0.4927670000000  0.5487120000000  0.4252950000000 1.0
C      1  0.4772870000000  0.5252220000000  0.4252490000000 1.0
C      1  0.4158810000000  0.4139720000000  0.4890390000000 1.0
C      1  0.4311310000000  0.4908650000000  0.5522510000000 1.0
C      1  0.4945750000000  0.5095140000000  0.4821300000000 1.0
C      1  0.4172980000000  0.5315280000000  0.5297230000000 1.0
C      1  0.5126580000000  0.5702760000000  0.4890450000000 1.0
C      1  0.4620760000000  0.5212000000000  0.4488200000000 1.0
C      1  0.4874110000000  0.5834400000000  0.4981420000000 1.0
C      1  0.4945230000000  0.5905630000000  0.5251770000000 1.0
C      1  0.5572930000000  0.5113240000000  0.4446340000000 1.0
C      1  0.5491500000000  0.3927430000000  0.4812570000000 1.0
C      1  0.4963750000000  0.4528780000000  0.3574910000000 1.0
C      1  0.5565980000000  0.4444040000000  0.4316180000000 1.0
C      1  0.5589740000000  0.4922610000000  0.4255780000000 1.0
C      1  0.4989090000000  0.4801670000000  0.4038870000000 1.0
C      1  0.5199800000000  0.4688920000000  0.5716950000000 1.0
C      1  0.4288480000000  0.4586350000000  0.5002410000000 1.0
C      1  0.5066640000000  0.5631770000000  0.5623300000000 1.0
END
