TITL C-627108-131-1641 407.529783224858 125000 -858.02548888946 0 0 140 (C1) n - 1
REM
REM in /home/nfs/bkarasulu/CARBON/AIRSS/Generating-Clusters/LCBOP/Only-C1/SD-CG/FIRE-CG
REM
REM
REM
REM
REM
REM ./C.cell (11c1c37f851c82e70ff6c80c92926a4b)
REM AIRSS Version 0.9.1 bugfix July 2018 build 013d7b7c2542+ Fri, 06 Jul 2018 19:26:36 +0100
REM compiler GCC version 9.2.1 20190827 (Red Hat 9.2.1-1)
REM options -cpp -mtune=generic -march=x86-64 -g -O0 -fpre-include=/usr/include/finclude/math-vector-fortran.h
REM seed -2145091452 1588131001 472021198 -1078376585 -1784359698 2022225892 1886486693 1211435093 2036937274 -1625907448 -127248413 775479569 -239484702 -88529303 -9024717 -683437388 -1163160649 -1563666814 -4898113 -273709330 1522345196 -950800247 -156489720 -1832340227 455006865 1240906867 638685839 1224301317 524438935 -1189756921 -1128234587 384895135 -514757282
REM
CELL 1.54180   50.00000   50.00000   50.00000   90.00000   90.00000   90.00000
LATT -1
SFAC C  
C      1  0.4771780000000  0.4929130000000  0.5748230000000 1.0
C      1  0.4946400000000  0.4800950000000  0.4299020000000 1.0
C      1  0.6084890000000  0.4908360000000  0.5562840000000 1.0
C      1  0.3811580000000  0.4886350000000  0.5068040000000 1.0
C      1  0.5576460000000  0.4333370000000  0.5756200000000 1.0
C      1  0.5226890000000  0.5967950000000  0.4443130000000 1.0
C      1  0.5113510000000  0.5673730000000  0.5820420000000 1.0
C      1  0.6348060000000  0.4892380000000  0.5632760000000 1.0
C      1  0.5886830000000  0.4299800000000  0.5177370000000 1.0
C      1  0.5172440000000  0.5869180000000  0.5582170000000 1.0
C      1  0.4285150000000  0.5086140000000  0.5391590000000 1.0
C      1  0.4804120000000  0.4595900000000  0.5015810000000 1.0
C      1  0.5129900000000  0.4074340000000  0.4483340000000 1.0
C      1  0.5280760000000  0.4607710000000  0.4894510000000 1.0
C      1  0.4155700000000  0.4536530000000  0.4368860000000 1.0
C      1  0.3860020000000  0.4762540000000  0.4800360000000 1.0
C      1  0.4991830000000  0.5004100000000  0.5146360000000 1.0
C      1  0.4637970000000  0.6055540000000  0.5076320000000 1.0
C      1  0.4806650000000  0.4713740000000  0.5532810000000 1.0
C      1  0.5618850000000  0.4325560000000  0.4427620000000 1.0
C      1  0.5329130000000  0.5250190000000  0.5761440000000 1.0
C      1  0.4801880000000  0.5994930000000  0.4852430000000 1.0
C      1  0.4421020000000  0.5697230000000  0.4287740000000 1.0
C      1  0.5015350000000  0.5825330000000  0.4915780000000 1.0
C      1  0.4036380000000  0.4496110000000  0.5284750000000 1.0
C      1  0.4457230000000  0.4233950000000  0.5288420000000 1.0
C      1  0.5062330000000  0.5359860000000  0.5853200000000 1.0
C      1  0.5119580000000  0.5424380000000  0.5407050000000 1.0
C      1  0.3888550000000  0.5170100000000  0.5085090000000 1.0
C      1  0.4209480000000  0.5524590000000  0.5318960000000 1.0
C      1  0.5022640000000  0.4029590000000  0.4741480000000 1.0
C      1  0.4467160000000  0.4994040000000  0.4983900000000 1.0
C      1  0.5433270000000  0.5909330000000  0.4630700000000 1.0
C      1  0.5060110000000  0.3962460000000  0.5012320000000 1.0
C      1  0.5913150000000  0.4645800000000  0.4695390000000 1.0
C      1  0.5314410000000  0.4244320000000  0.5810330000000 1.0
C      1  0.4531600000000  0.5757800000000  0.4539240000000 1.0
C      1  0.4967610000000  0.4116270000000  0.5238540000000 1.0
C      1  0.5867750000000  0.5201080000000  0.4228990000000 1.0
C      1  0.5765200000000  0.4065640000000  0.5137940000000 1.0
C      1  0.4952150000000  0.5030680000000  0.4869570000000 1.0
C      1  0.4305840000000  0.4179220000000  0.4751020000000 1.0
C      1  0.5846350000000  0.4693730000000  0.4211470000000 1.0
C      1  0.4735030000000  0.4729710000000  0.4493620000000 1.0
C      1  0.5311020000000  0.4715690000000  0.5886030000000 1.0
C      1  0.4915660000000  0.5212740000000  0.4656170000000 1.0
C      1  0.5144410000000  0.5226330000000  0.5210760000000 1.0
C      1  0.5399430000000  0.4152310000000  0.4443680000000 1.0
C      1  0.4282590000000  0.4877430000000  0.5579520000000 1.0
C      1  0.5675430000000  0.5094830000000  0.5435130000000 1.0
C      1  0.4647100000000  0.5315600000000  0.4673520000000 1.0
C      1  0.5273080000000  0.4503410000000  0.5390780000000 1.0
C      1  0.5549960000000  0.5389310000000  0.5039730000000 1.0
C      1  0.4258350000000  0.4397700000000  0.5443210000000 1.0
C      1  0.4127510000000  0.4359820000000  0.4600340000000 1.0
C      1  0.5138680000000  0.5175970000000  0.4489820000000 1.0
C      1  0.4967130000000  0.4043420000000  0.4264930000000 1.0
C      1  0.5444950000000  0.4700210000000  0.4693560000000 1.0
C      1  0.4218440000000  0.4799520000000  0.4472430000000 1.0
C      1  0.4520410000000  0.5153950000000  0.5219580000000 1.0
C      1  0.5527640000000  0.4973800000000  0.4735930000000 1.0
C      1  0.4731620000000  0.5960270000000  0.4577780000000 1.0
C      1  0.5525270000000  0.5424130000000  0.4471970000000 1.0
C      1  0.5518710000000  0.5048250000000  0.5678870000000 1.0
C      1  0.4044520000000  0.4580470000000  0.4106310000000 1.0
C      1  0.5893610000000  0.5422480000000  0.5636900000000 1.0
C      1  0.3848440000000  0.5245900000000  0.4305670000000 1.0
C      1  0.5717840000000  0.4969850000000  0.4961530000000 1.0
C      1  0.4800260000000  0.5229660000000  0.5768510000000 1.0
C      1  0.4494300000000  0.5082580000000  0.4718640000000 1.0
C      1  0.5332080000000  0.4626440000000  0.5153980000000 1.0
C      1  0.4403420000000  0.5899840000000  0.5088630000000 1.0
C      1  0.5899680000000  0.4745670000000  0.4972950000000 1.0
C      1  0.5659650000000  0.5156820000000  0.5159710000000 1.0
C      1  0.5389940000000  0.6077360000000  0.5145500000000 1.0
C      1  0.5685250000000  0.5579390000000  0.4883090000000 1.0
C      1  0.4357610000000  0.5526800000000  0.5585000000000 1.0
C      1  0.4861230000000  0.4770480000000  0.5247660000000 1.0
C      1  0.4777170000000  0.6066570000000  0.5322960000000 1.0
C      1  0.5945000000000  0.5642870000000  0.4979290000000 1.0
C      1  0.5216730000000  0.4648850000000  0.5624390000000 1.0
C      1  0.3891850000000  0.5185300000000  0.4576300000000 1.0
C      1  0.3927250000000  0.4172490000000  0.3774900000000 1.0
C      1  0.4396310000000  0.4147790000000  0.5011830000000 1.0
C      1  0.4001000000000  0.4857860000000  0.4033570000000 1.0
C      1  0.5648250000000  0.5564140000000  0.5564470000000 1.0
C      1  0.5572930000000  0.4807390000000  0.5820180000000 1.0
C      1  0.4312630000000  0.4611200000000  0.5625660000000 1.0
C      1  0.4916490000000  0.4735420000000  0.6186080000000 1.0
C      1  0.5664930000000  0.4875060000000  0.4099250000000 1.0
C      1  0.6021850000000  0.5090630000000  0.4443660000000 1.0
C      1  0.5896080000000  0.5798080000000  0.5222350000000 1.0
C      1  0.4958830000000  0.5991450000000  0.4407530000000 1.0
C      1  0.3989970000000  0.4922230000000  0.4603300000000 1.0
C      1  0.5308660000000  0.3829760000000  0.5061260000000 1.0
C      1  0.4360050000000  0.4737200000000  0.5020280000000 1.0
C      1  0.4729640000000  0.4816770000000  0.6009880000000 1.0
C      1  0.4419920000000  0.5602330000000  0.5089600000000 1.0
C      1  0.5988560000000  0.4798710000000  0.4454620000000 1.0
C      1  0.4074850000000  0.5264890000000  0.5283630000000 1.0
C      1  0.4484060000000  0.4880980000000  0.4517870000000 1.0
C      1  0.3983240000000  0.4371420000000  0.3933670000000 1.0
C      1  0.3826720000000  0.4696080000000  0.5288440000000 1.0
C      1  0.5135080000000  0.5591410000000  0.4899220000000 1.0
C      1  0.4562840000000  0.5398740000000  0.5721460000000 1.0
C      1  0.5200610000000  0.4235250000000  0.5356450000000 1.0
C      1  0.6124730000000  0.5268210000000  0.4648230000000 1.0
C      1  0.5567150000000  0.3890600000000  0.5099400000000 1.0
C      1  0.5163650000000  0.4997910000000  0.4260580000000 1.0
C      1  0.5036500000000  0.4285620000000  0.5776990000000 1.0
C      1  0.5274950000000  0.5377480000000  0.5005050000000 1.0
C      1  0.4918000000000  0.5849990000000  0.5431800000000 1.0
C      1  0.4203830000000  0.5317600000000  0.4002520000000 1.0
C      1  0.5725210000000  0.4586340000000  0.5700910000000 1.0
C      1  0.4160570000000  0.4542760000000  0.5032530000000 1.0
C      1  0.4822820000000  0.4409130000000  0.5599420000000 1.0
C      1  0.5655890000000  0.4520370000000  0.4630990000000 1.0
C      1  0.5918970000000  0.4579250000000  0.5215710000000 1.0
C      1  0.5378640000000  0.5451350000000  0.5555470000000 1.0
C      1  0.6127990000000  0.5470320000000  0.4835530000000 1.0
C      1  0.5571390000000  0.5654110000000  0.4631970000000 1.0
C      1  0.4873550000000  0.5572800000000  0.5360250000000 1.0
C      1  0.5600910000000  0.5300090000000  0.4227290000000 1.0
C      1  0.5398730000000  0.5199950000000  0.4610330000000 1.0
C      1  0.5177340000000  0.4704880000000  0.6128970000000 1.0
C      1  0.4001080000000  0.5140070000000  0.4086750000000 1.0
C      1  0.5773060000000  0.4416400000000  0.4205850000000 1.0
C      1  0.5416350000000  0.5945970000000  0.5401070000000 1.0
C      1  0.5437590000000  0.6059430000000  0.4878240000000 1.0
C      1  0.4519570000000  0.5556110000000  0.4742570000000 1.0
C      1  0.4652360000000  0.5431910000000  0.5215860000000 1.0
C      1  0.4337620000000  0.5530740000000  0.4095760000000 1.0
C      1  0.5441680000000  0.5048920000000  0.4144900000000 1.0
C      1  0.5939880000000  0.5153650000000  0.5546980000000 1.0
C      1  0.4793460000000  0.4585820000000  0.4740500000000 1.0
C      1  0.3989490000000  0.4505860000000  0.4810450000000 1.0
C      1  0.5673860000000  0.5803150000000  0.5415290000000 1.0
C      1  0.3855570000000  0.5307350000000  0.4831670000000 1.0
C      1  0.5924890000000  0.4670210000000  0.5496460000000 1.0
C      1  0.4733020000000  0.4226740000000  0.5376660000000 1.0
END
