TITL C-627110-360-7 32765.1876031604 125000 -1124.96535676684 0 0 181 (C1) n - 1
REM
REM in /home/nfs/bkarasulu/CARBON/AIRSS/Generating-Clusters/LCBOP/Only-C1/SD-CG/FIRE-CG
REM
REM
REM
REM
REM
REM ./C.cell (11c1c37f851c82e70ff6c80c92926a4b)
REM AIRSS Version 0.9.1 bugfix July 2018 build 013d7b7c2542+ Fri, 06 Jul 2018 19:26:36 +0100
REM compiler GCC version 9.2.1 20190827 (Red Hat 9.2.1-1)
REM options -cpp -mtune=generic -march=x86-64 -g -O0 -fpre-include=/usr/include/finclude/math-vector-fortran.h
REM seed 1654039990 -38858255 278121812 1073505060 -1030017097 676164929 -2061048787 -1878344419 -223343323 -710588923 1344286249 1798350462 616977245 1770868956 -1113743074 -72180950 1105502051 -673258987 -894405866 -1423789952 -566550786 929349958 1334899224 1986663084 -611046266 365075373 539016933 1760237401 1266302008 1311226709 -1744201299 -1391268153 -840804084
REM
CELL 1.54180   50.00000   50.00000   50.00000   90.00000   90.00000   90.00000
LATT -1
SFAC C  
C      1  0.5769180000000  0.6122600000000  0.5017110000000 1.0
C      1  0.4734260000000  0.3368430000000  0.4165320000000 1.0
C      1  0.5898030000000  0.5481510000000  0.5293620000000 1.0
C      1  0.5450850000000  0.4645770000000  0.5421930000000 1.0
C      1  0.5838730000000  0.4407840000000  0.5793740000000 1.0
C      1  0.4947740000000  0.4475380000000  0.5372360000000 1.0
C      1  0.6038710000000  0.5375460000000  0.5059300000000 1.0
C      1  0.5104110000000  0.5766950000000  0.5024850000000 1.0
C      1  0.4953520000000  0.4872000000000  0.5085520000000 1.0
C      1  0.4372430000000  0.5460300000000  0.5736940000000 1.0
C      1  0.4478750000000  0.5619600000000  0.5032960000000 1.0
C      1  0.3184090000000  0.4963650000000  0.4442470000000 1.0
C      1  0.5363590000000  0.5854820000000  0.4028230000000 1.0
C      1  0.5826430000000  0.5902200000000  0.4853220000000 1.0
C      1  0.5146920000000  0.3805150000000  0.4643290000000 1.0
C      1  0.4277630000000  0.4020650000000  0.4653860000000 1.0
C      1  0.4225370000000  0.6629840000000  0.5052580000000 1.0
C      1  0.4950400000000  0.6187720000000  0.5184720000000 1.0
C      1  0.4941870000000  0.5799300000000  0.4212470000000 1.0
C      1  0.4193320000000  0.4833470000000  0.5935830000000 1.0
C      1  0.4475070000000  0.3471340000000  0.4197070000000 1.0
C      1  0.4439990000000  0.3874360000000  0.4469770000000 1.0
C      1  0.6161760000000  0.4385620000000  0.5116610000000 1.0
C      1  0.4127230000000  0.6218260000000  0.5322260000000 1.0
C      1  0.4804100000000  0.5687640000000  0.4426380000000 1.0
C      1  0.5736470000000  0.5657660000000  0.4744550000000 1.0
C      1  0.5583630000000  0.6325780000000  0.4946350000000 1.0
C      1  0.5497820000000  0.5668860000000  0.4588610000000 1.0
C      1  0.5824120000000  0.5401180000000  0.4849240000000 1.0
C      1  0.5159400000000  0.5040580000000  0.4989290000000 1.0
C      1  0.4648990000000  0.4299140000000  0.5008420000000 1.0
C      1  0.5640020000000  0.5319470000000  0.5273010000000 1.0
C      1  0.4581340000000  0.5328650000000  0.4027400000000 1.0
C      1  0.4317890000000  0.3679930000000  0.4299680000000 1.0
C      1  0.5471500000000  0.4994210000000  0.4317950000000 1.0
C      1  0.4611980000000  0.4543820000000  0.5918940000000 1.0
C      1  0.5368280000000  0.6412870000000  0.5085780000000 1.0
C      1  0.5526560000000  0.4477650000000  0.6175800000000 1.0
C      1  0.3855830000000  0.5008790000000  0.5093740000000 1.0
C      1  0.4786610000000  0.3140750000000  0.4025440000000 1.0
C      1  0.4705050000000  0.5210830000000  0.4478590000000 1.0
C      1  0.4381690000000  0.5826010000000  0.4594800000000 1.0
C      1  0.5247100000000  0.4913450000000  0.4452620000000 1.0
C      1  0.5602230000000  0.4333070000000  0.5945280000000 1.0
C      1  0.4220090000000  0.4200290000000  0.4848050000000 1.0
C      1  0.5133780000000  0.5368580000000  0.4625360000000 1.0
C      1  0.4641800000000  0.4969310000000  0.5215890000000 1.0
C      1  0.4798090000000  0.4204170000000  0.4491500000000 1.0
C      1  0.5881160000000  0.5000040000000  0.5836380000000 1.0
C      1  0.4679870000000  0.5123940000000  0.4207620000000 1.0
C      1  0.5028780000000  0.3902650000000  0.4897340000000 1.0
C      1  0.4622790000000  0.4822820000000  0.5486870000000 1.0
C      1  0.3231400000000  0.4914430000000  0.4924810000000 1.0
C      1  0.5228350000000  0.4436320000000  0.4453430000000 1.0
C      1  0.5585260000000  0.5681670000000  0.4034920000000 1.0
C      1  0.4559550000000  0.5184980000000  0.4722180000000 1.0
C      1  0.4095530000000  0.6458160000000  0.5210820000000 1.0
C      1  0.4524960000000  0.5520890000000  0.6173520000000 1.0
C      1  0.5805340000000  0.6107280000000  0.5297520000000 1.0
C      1  0.5511040000000  0.4370800000000  0.5406180000000 1.0
C      1  0.4721590000000  0.3933950000000  0.4446700000000 1.0
C      1  0.5615980000000  0.5224670000000  0.4967760000000 1.0
C      1  0.4743220000000  0.4307290000000  0.4746220000000 1.0
C      1  0.5295610000000  0.5485600000000  0.5842100000000 1.0
C      1  0.6006620000000  0.4339800000000  0.4616650000000 1.0
C      1  0.5049870000000  0.4620900000000  0.6139050000000 1.0
C      1  0.6004690000000  0.4618110000000  0.4541300000000 1.0
C      1  0.5461420000000  0.4001990000000  0.4931610000000 1.0
C      1  0.6220460000000  0.4660280000000  0.5178340000000 1.0
C      1  0.5613250000000  0.3983700000000  0.5164570000000 1.0
C      1  0.4879310000000  0.5332740000000  0.3640790000000 1.0
C      1  0.5618610000000  0.6144450000000  0.5488250000000 1.0
C      1  0.4406330000000  0.5937890000000  0.5608980000000 1.0
C      1  0.3849280000000  0.5062400000000  0.4810970000000 1.0
C      1  0.5008880000000  0.4322020000000  0.4349060000000 1.0
C      1  0.4089110000000  0.4964400000000  0.5725580000000 1.0
C      1  0.5369940000000  0.5208080000000  0.3614700000000 1.0
C      1  0.5981490000000  0.4981950000000  0.5434040000000 1.0
C      1  0.5193320000000  0.5511760000000  0.5087600000000 1.0
C      1  0.5197790000000  0.4126960000000  0.4978070000000 1.0
C      1  0.5156700000000  0.4055030000000  0.5969220000000 1.0
C      1  0.5216820000000  0.5954330000000  0.5668600000000 1.0
C      1  0.5845020000000  0.4142140000000  0.4494800000000 1.0
C      1  0.4361090000000  0.5302360000000  0.5506010000000 1.0
C      1  0.4306060000000  0.5378080000000  0.4054550000000 1.0
C      1  0.4660780000000  0.5875850000000  0.4589160000000 1.0
C      1  0.5435450000000  0.3882360000000  0.4665230000000 1.0
C      1  0.5386420000000  0.5422600000000  0.4501950000000 1.0
C      1  0.4578190000000  0.5253820000000  0.5320380000000 1.0
C      1  0.4405310000000  0.4697840000000  0.6031970000000 1.0
C      1  0.5715990000000  0.5045680000000  0.5382350000000 1.0
C      1  0.5380470000000  0.5462800000000  0.5295700000000 1.0
C      1  0.5623610000000  0.4984860000000  0.5876270000000 1.0
C      1  0.5334840000000  0.6148790000000  0.5499630000000 1.0
C      1  0.4466160000000  0.4573120000000  0.5468840000000 1.0
C      1  0.5387480000000  0.4166500000000  0.5835030000000 1.0
C      1  0.4915880000000  0.5157970000000  0.5783390000000 1.0
C      1  0.4889360000000  0.4071170000000  0.5866010000000 1.0
C      1  0.6127160000000  0.4802530000000  0.4721370000000 1.0
C      1  0.5299250000000  0.5876240000000  0.4552230000000 1.0
C      1  0.4287560000000  0.5993590000000  0.5362200000000 1.0
C      1  0.4732860000000  0.4983290000000  0.5694900000000 1.0
C      1  0.5626180000000  0.4793500000000  0.4189750000000 1.0
C      1  0.5442780000000  0.4982110000000  0.5013650000000 1.0
C      1  0.5195850000000  0.3919010000000  0.6204900000000 1.0
C      1  0.5858290000000  0.4702670000000  0.4317010000000 1.0
C      1  0.3614990000000  0.4949590000000  0.5226020000000 1.0
C      1  0.5573530000000  0.5526140000000  0.5875710000000 1.0
C      1  0.4866920000000  0.3751100000000  0.5066790000000 1.0
C      1  0.5042830000000  0.4602430000000  0.5129850000000 1.0
C      1  0.4338450000000  0.5020740000000  0.4793730000000 1.0
C      1  0.4914040000000  0.5706350000000  0.3940250000000 1.0
C      1  0.4111820000000  0.5365220000000  0.4502930000000 1.0
C      1  0.5994330000000  0.4479910000000  0.5563290000000 1.0
C      1  0.5144400000000  0.5732550000000  0.5830900000000 1.0
C      1  0.4347390000000  0.5815830000000  0.5154580000000 1.0
C      1  0.4574600000000  0.5415380000000  0.4890970000000 1.0
C      1  0.4152650000000  0.5105250000000  0.5489350000000 1.0
C      1  0.4336900000000  0.4581430000000  0.5197640000000 1.0
C      1  0.5211470000000  0.5901710000000  0.4276220000000 1.0
C      1  0.5544270000000  0.4850070000000  0.5253520000000 1.0
C      1  0.4053000000000  0.3698490000000  0.4233630000000 1.0
C      1  0.5027730000000  0.4589510000000  0.5640540000000 1.0
C      1  0.5487680000000  0.4667510000000  0.3978030000000 1.0
C      1  0.5111690000000  0.5234970000000  0.3551450000000 1.0
C      1  0.4198050000000  0.5627360000000  0.4578330000000 1.0
C      1  0.5289260000000  0.4504840000000  0.4706270000000 1.0
C      1  0.5275230000000  0.4740250000000  0.5629650000000 1.0
C      1  0.4951020000000  0.5905370000000  0.5218900000000 1.0
C      1  0.5191130000000  0.5214390000000  0.5806930000000 1.0
C      1  0.5642660000000  0.3963550000000  0.4492890000000 1.0
C      1  0.4370420000000  0.4359430000000  0.5026340000000 1.0
C      1  0.6101620000000  0.4727520000000  0.5442270000000 1.0
C      1  0.4922300000000  0.5768240000000  0.5997780000000 1.0
C      1  0.4780550000000  0.4263540000000  0.5260240000000 1.0
C      1  0.5228530000000  0.4667830000000  0.3904320000000 1.0
C      1  0.5581900000000  0.5398300000000  0.4047610000000 1.0
C      1  0.4714970000000  0.4042350000000  0.5422940000000 1.0
C      1  0.4888880000000  0.5427200000000  0.4500670000000 1.0
C      1  0.4679230000000  0.6490410000000  0.4888260000000 1.0
C      1  0.3357580000000  0.4907950000000  0.5162480000000 1.0
C      1  0.4742130000000  0.3793200000000  0.5300990000000 1.0
C      1  0.5721500000000  0.4237260000000  0.5251660000000 1.0
C      1  0.5399470000000  0.4141690000000  0.5556530000000 1.0
C      1  0.4460530000000  0.6637560000000  0.4926090000000 1.0
C      1  0.4365520000000  0.5362920000000  0.6011620000000 1.0
C      1  0.5982020000000  0.4302480000000  0.5325930000000 1.0
C      1  0.4895390000000  0.4588070000000  0.5906360000000 1.0
C      1  0.4847370000000  0.6043340000000  0.4735870000000 1.0
C      1  0.4489860000000  0.5726830000000  0.5767290000000 1.0
C      1  0.5946200000000  0.5599450000000  0.5541460000000 1.0
C      1  0.5551640000000  0.5261980000000  0.3803250000000 1.0
C      1  0.5183670000000  0.4416640000000  0.4952530000000 1.0
C      1  0.4529520000000  0.4386400000000  0.5692220000000 1.0
C      1  0.4947000000000  0.3749640000000  0.4448080000000 1.0
C      1  0.4673650000000  0.4130800000000  0.5685750000000 1.0
C      1  0.4981410000000  0.4753930000000  0.3962130000000 1.0
C      1  0.4648810000000  0.5728210000000  0.6013850000000 1.0
C      1  0.5107730000000  0.5905060000000  0.4768560000000 1.0
C      1  0.4770430000000  0.5470970000000  0.3862060000000 1.0
C      1  0.6144750000000  0.4283510000000  0.4857170000000 1.0
C      1  0.3335910000000  0.4970320000000  0.4668430000000 1.0
C      1  0.4798440000000  0.4895030000000  0.4096790000000 1.0
C      1  0.5808900000000  0.5598540000000  0.5771900000000 1.0
C      1  0.4105480000000  0.5004330000000  0.5227250000000 1.0
C      1  0.4353630000000  0.4880210000000  0.5079090000000 1.0
C      1  0.3844250000000  0.5245560000000  0.4112420000000 1.0
C      1  0.5291940000000  0.4587000000000  0.6248090000000 1.0
C      1  0.6140000000000  0.5117080000000  0.5112060000000 1.0
C      1  0.5199130000000  0.6294730000000  0.5282260000000 1.0
C      1  0.4819930000000  0.6254830000000  0.4932360000000 1.0
C      1  0.5357900000000  0.4977390000000  0.5780340000000 1.0
C      1  0.4092430000000  0.5138490000000  0.4687660000000 1.0
C      1  0.5162930000000  0.5801480000000  0.3822760000000 1.0
C      1  0.5462860000000  0.3905500000000  0.5403630000000 1.0
C      1  0.3611000000000  0.5031870000000  0.4665950000000 1.0
C      1  0.4082330000000  0.5326310000000  0.4219720000000 1.0
C      1  0.5503240000000  0.5272730000000  0.4291540000000 1.0
C      1  0.4935320000000  0.3520190000000  0.4289830000000 1.0
C      1  0.6197520000000  0.4873560000000  0.4986810000000 1.0
C      1  0.5125600000000  0.5306120000000  0.4902770000000 1.0
END
