TITL C-627109-622-214 -0.21646640413493 125000 -579.731554752082 0 0 97 (C1) n - 1
REM
REM in /home/nfs/bkarasulu/CARBON/AIRSS/Generating-Clusters/LCBOP/Only-C1/SD-CG/FIRE-CG
REM
REM
REM
REM
REM
REM ./C.cell (11c1c37f851c82e70ff6c80c92926a4b)
REM AIRSS Version 0.9.1 bugfix July 2018 build 013d7b7c2542+ Fri, 06 Jul 2018 19:26:36 +0100
REM compiler GCC version 9.2.1 20190827 (Red Hat 9.2.1-1)
REM options -cpp -mtune=generic -march=x86-64 -g -O0 -fpre-include=/usr/include/finclude/math-vector-fortran.h
REM seed -513761065 518137931 1118096044 -2093221019 -658244001 -724440965 -993230801 1597104577 -180623724 1349147231 164297726 1123906165 -1417262030 -1259716984 -370771042 20624145 951432645 2128186997 229134687 1615835945 -343462798 -1117884004 -219898204 -1071039045 1178580736 -495895999 1355558115 1243870617 -1037130870 1623438857 1370484648 1670852197 -329572268
REM
CELL 1.54180   50.00000   50.00000   50.00000   90.00000   90.00000   90.00000
LATT -1
SFAC C  
C      1  0.4966300000000  0.4193960000000  0.5432480000000 1.0
C      1  0.4494120000000  0.4371380000000  0.5319500000000 1.0
C      1  0.5421700000000  0.4915080000000  0.5118750000000 1.0
C      1  0.4809910000000  0.5097290000000  0.4855640000000 1.0
C      1  0.4805560000000  0.4652270000000  0.4747070000000 1.0
C      1  0.5396480000000  0.5913300000000  0.5358430000000 1.0
C      1  0.5332810000000  0.5197010000000  0.3726900000000 1.0
C      1  0.5308240000000  0.5529520000000  0.5786750000000 1.0
C      1  0.4518160000000  0.5863350000000  0.5198970000000 1.0
C      1  0.5064660000000  0.5396330000000  0.4580100000000 1.0
C      1  0.5118630000000  0.5101620000000  0.3886940000000 1.0
C      1  0.5372640000000  0.5970260000000  0.5077180000000 1.0
C      1  0.5350100000000  0.5571620000000  0.6065010000000 1.0
C      1  0.5306880000000  0.4090750000000  0.4043450000000 1.0
C      1  0.5276990000000  0.5248920000000  0.5404430000000 1.0
C      1  0.5453930000000  0.5035730000000  0.5374030000000 1.0
C      1  0.4522650000000  0.5384750000000  0.4373390000000 1.0
C      1  0.5516630000000  0.4505530000000  0.4203650000000 1.0
C      1  0.5113060000000  0.4821390000000  0.3965740000000 1.0
C      1  0.4706120000000  0.4642420000000  0.4214100000000 1.0
C      1  0.4638130000000  0.4078950000000  0.4806330000000 1.0
C      1  0.5102510000000  0.5354280000000  0.5643610000000 1.0
C      1  0.5457550000000  0.5369470000000  0.4967720000000 1.0
C      1  0.5588260000000  0.4328190000000  0.4998920000000 1.0
C      1  0.4484420000000  0.4317590000000  0.4795830000000 1.0
C      1  0.5172520000000  0.6014050000000  0.5501800000000 1.0
C      1  0.5190710000000  0.4315890000000  0.5290960000000 1.0
C      1  0.4330190000000  0.5019920000000  0.4750270000000 1.0
C      1  0.5221390000000  0.5958660000000  0.4855060000000 1.0
C      1  0.5614580000000  0.4470590000000  0.4475360000000 1.0
C      1  0.5076440000000  0.4073800000000  0.4179550000000 1.0
C      1  0.4998330000000  0.5124190000000  0.5806640000000 1.0
C      1  0.5240270000000  0.5408580000000  0.5156780000000 1.0
C      1  0.4535650000000  0.5183210000000  0.4876540000000 1.0
C      1  0.4608350000000  0.5556220000000  0.4601620000000 1.0
C      1  0.5600220000000  0.5713710000000  0.5437630000000 1.0
C      1  0.4417020000000  0.5235760000000  0.5475750000000 1.0
C      1  0.4700340000000  0.4155920000000  0.5306900000000 1.0
C      1  0.4385030000000  0.5053790000000  0.4462840000000 1.0
C      1  0.4975340000000  0.5111430000000  0.4599000000000 1.0
C      1  0.5293250000000  0.4689070000000  0.4162320000000 1.0
C      1  0.4169310000000  0.4798190000000  0.4859920000000 1.0
C      1  0.4345950000000  0.5432530000000  0.5310020000000 1.0
C      1  0.4910570000000  0.5286120000000  0.3971360000000 1.0
C      1  0.4805440000000  0.4048910000000  0.4583170000000 1.0
C      1  0.4785130000000  0.5983490000000  0.5176520000000 1.0
C      1  0.4993120000000  0.5541040000000  0.5213650000000 1.0
C      1  0.5167350000000  0.4883160000000  0.4581330000000 1.0
C      1  0.5686130000000  0.5238490000000  0.5735920000000 1.0
C      1  0.4737430000000  0.4541660000000  0.6009330000000 1.0
C      1  0.4676390000000  0.4795250000000  0.5952240000000 1.0
C      1  0.4503550000000  0.5473520000000  0.4859710000000 1.0
C      1  0.4247260000000  0.4366390000000  0.4653880000000 1.0
C      1  0.4965510000000  0.4194040000000  0.5714190000000 1.0
C      1  0.5165110000000  0.4800140000000  0.5092510000000 1.0
C      1  0.5686730000000  0.5532460000000  0.4993500000000 1.0
C      1  0.5184640000000  0.4985900000000  0.5971040000000 1.0
C      1  0.5506470000000  0.4272130000000  0.4043700000000 1.0
C      1  0.4894870000000  0.5625910000000  0.4608340000000 1.0
C      1  0.4687320000000  0.3992150000000  0.5071900000000 1.0
C      1  0.4814750000000  0.5061930000000  0.4352140000000 1.0
C      1  0.5312080000000  0.5187330000000  0.3454020000000 1.0
C      1  0.5439160000000  0.4978360000000  0.6059610000000 1.0
C      1  0.5634170000000  0.4484710000000  0.5468150000000 1.0
C      1  0.4901090000000  0.6058920000000  0.5440030000000 1.0
C      1  0.5505610000000  0.5092860000000  0.4912660000000 1.0
C      1  0.5626600000000  0.5189290000000  0.6021870000000 1.0
C      1  0.4592360000000  0.5025710000000  0.5534550000000 1.0
C      1  0.4624830000000  0.4540760000000  0.4909300000000 1.0
C      1  0.4741180000000  0.5005020000000  0.5775290000000 1.0
C      1  0.4621760000000  0.4595800000000  0.5186760000000 1.0
C      1  0.5720880000000  0.4718410000000  0.5581100000000 1.0
C      1  0.4140360000000  0.4678830000000  0.5128640000000 1.0
C      1  0.5555050000000  0.5423520000000  0.6172380000000 1.0
C      1  0.4862290000000  0.4321700000000  0.5924650000000 1.0
C      1  0.5486480000000  0.4332690000000  0.5272150000000 1.0
C      1  0.4441420000000  0.5959560000000  0.5466770000000 1.0
C      1  0.4906080000000  0.4490280000000  0.4370370000000 1.0
C      1  0.5617730000000  0.4394460000000  0.4736640000000 1.0
C      1  0.5655630000000  0.4997480000000  0.5566020000000 1.0
C      1  0.4909090000000  0.5514610000000  0.5478290000000 1.0
C      1  0.5557160000000  0.5297000000000  0.3848040000000 1.0
C      1  0.5026000000000  0.5857320000000  0.4700550000000 1.0
C      1  0.4215400000000  0.4458440000000  0.5287760000000 1.0
C      1  0.5569010000000  0.5511470000000  0.5644660000000 1.0
C      1  0.4437470000000  0.5607130000000  0.5104730000000 1.0
C      1  0.4954240000000  0.4981060000000  0.5063280000000 1.0
C      1  0.4107000000000  0.4597830000000  0.4664030000000 1.0
C      1  0.4742180000000  0.5295570000000  0.4200360000000 1.0
C      1  0.4660980000000  0.6063740000000  0.5604400000000 1.0
C      1  0.5139900000000  0.4660640000000  0.4408520000000 1.0
C      1  0.4921550000000  0.4202410000000  0.4376830000000 1.0
C      1  0.4591530000000  0.4876040000000  0.4345310000000 1.0
C      1  0.5773740000000  0.5648830000000  0.5221720000000 1.0
C      1  0.5111080000000  0.4532940000000  0.5128130000000 1.0
C      1  0.4845600000000  0.4702640000000  0.3963260000000 1.0
C      1  0.4634230000000  0.4827460000000  0.5340810000000 1.0
END
