TITL C-627110-360-11 -5.85300323184131e-07 125000 -246.318562340772 0 0 42 (C1) n - 1
REM
REM in /home/nfs/bkarasulu/CARBON/AIRSS/Generating-Clusters/LCBOP/Only-C1/SD-CG/FIRE-CG
REM
REM
REM
REM
REM
REM ./C.cell (11c1c37f851c82e70ff6c80c92926a4b)
REM AIRSS Version 0.9.1 bugfix July 2018 build 013d7b7c2542+ Fri, 06 Jul 2018 19:26:36 +0100
REM compiler GCC version 9.2.1 20190827 (Red Hat 9.2.1-1)
REM options -cpp -mtune=generic -march=x86-64 -g -O0 -fpre-include=/usr/include/finclude/math-vector-fortran.h
REM seed -1069316241 820793992 -2096564095 -503070384 2011434100 -1686861332 -571489663 1572594924 -1397127718 2128685666 -1530760781 1281653706 1669561905 -1595856095 -158308275 -157756914 1678820691 1791747919 -1758981563 -1378230171 537412108 1198295466 1699706667 -2077562453 -1921341760 -549407348 2093021172 -211818007 -1516410712 -504270611 1123393945 -702000879 1073148019
REM
CELL 1.54180   50.00000   50.00000   50.00000   90.00000   90.00000   90.00000
LATT -1
SFAC C  
C      1  0.4604460000000  0.4657450000000  0.5141200000000 1.0
C      1  0.4566060000000  0.5438260000000  0.5200880000000 1.0
C      1  0.4665220000000  0.4223550000000  0.4720960000000 1.0
C      1  0.4801860000000  0.4194890000000  0.5187310000000 1.0
C      1  0.5192270000000  0.6057270000000  0.5539330000000 1.0
C      1  0.4975290000000  0.5697590000000  0.5286280000000 1.0
C      1  0.5063580000000  0.4090090000000  0.5210870000000 1.0
C      1  0.5649780000000  0.5167820000000  0.4858370000000 1.0
C      1  0.5557980000000  0.4906330000000  0.4897750000000 1.0
C      1  0.4760100000000  0.4463560000000  0.5282090000000 1.0
C      1  0.4451730000000  0.4854890000000  0.5283600000000 1.0
C      1  0.4174990000000  0.4887070000000  0.4916550000000 1.0
C      1  0.4269400000000  0.5032310000000  0.5152070000000 1.0
C      1  0.4399130000000  0.4851780000000  0.4735290000000 1.0
C      1  0.5126090000000  0.6311510000000  0.5461920000000 1.0
C      1  0.4482050000000  0.5109120000000  0.4633600000000 1.0
C      1  0.5248880000000  0.5999960000000  0.5801100000000 1.0
C      1  0.5667180000000  0.5424940000000  0.4922610000000 1.0
C      1  0.4937590000000  0.4560410000000  0.5477680000000 1.0
C      1  0.4654590000000  0.4102720000000  0.4963450000000 1.0
C      1  0.5364500000000  0.4308270000000  0.4876070000000 1.0
C      1  0.5178680000000  0.5355390000000  0.4475450000000 1.0
C      1  0.4828010000000  0.5517910000000  0.5131850000000 1.0
C      1  0.4940160000000  0.5419780000000  0.4892170000000 1.0
C      1  0.4595270000000  0.4673870000000  0.4847410000000 1.0
C      1  0.4738720000000  0.5165110000000  0.4537180000000 1.0
C      1  0.5596490000000  0.5644960000000  0.5053510000000 1.0
C      1  0.5180020000000  0.4666560000000  0.5508180000000 1.0
C      1  0.5202310000000  0.5850260000000  0.5345560000000 1.0
C      1  0.5673830000000  0.4831150000000  0.4185010000000 1.0
C      1  0.5528910000000  0.4818000000000  0.5162110000000 1.0
C      1  0.4360010000000  0.5321850000000  0.4785890000000 1.0
C      1  0.4359700000000  0.5295930000000  0.5073830000000 1.0
C      1  0.5581740000000  0.4784390000000  0.4424270000000 1.0
C      1  0.5286400000000  0.4141530000000  0.5069990000000 1.0
C      1  0.5439480000000  0.5792960000000  0.5208300000000 1.0
C      1  0.4959780000000  0.5312150000000  0.4632520000000 1.0
C      1  0.5289990000000  0.4531200000000  0.4720970000000 1.0
C      1  0.5398740000000  0.4753680000000  0.5384450000000 1.0
C      1  0.4751670000000  0.4492550000000  0.4695230000000 1.0
C      1  0.5476290000000  0.4742110000000  0.4679490000000 1.0
C      1  0.5021080000000  0.4548890000000  0.4637620000000 1.0
END
