TITL C-627112-676-1423 1.54012620329221e-06 125000 -836.102659512068 0 0 135 (C1) n - 1
REM
REM in /home/nfs/bkarasulu/CARBON/AIRSS/Generating-Clusters/LCBOP/Only-C1/SD-CG/FIRE-CG
REM
REM
REM
REM
REM
REM ./C.cell (11c1c37f851c82e70ff6c80c92926a4b)
REM AIRSS Version 0.9.1 bugfix July 2018 build 013d7b7c2542+ Fri, 06 Jul 2018 19:26:36 +0100
REM compiler GCC version 9.2.1 20190827 (Red Hat 9.2.1-1)
REM options -cpp -mtune=generic -march=x86-64 -g -O0 -fpre-include=/usr/include/finclude/math-vector-fortran.h
REM seed -1508206160 -25452293 -1540996944 536339704 1819474149 -1928857178 -378240102 259918877 -1910138109 1292744286 -1436844521 -1351609159 837037034 2025755223 1173257688 544270980 -1912289060 1871083880 -921010903 1689926140 145954095 -24359592 -1855229078 720446969 1900977425 -707175452 2655878 931527511 1307372709 812227146 258457443 -1357439553 273011265
REM
CELL 1.54180   50.00000   50.00000   50.00000   90.00000   90.00000   90.00000
LATT -1
SFAC C  
C      1  0.3866010000000  0.5091620000000  0.4652030000000 1.0
C      1  0.4854140000000  0.5405910000000  0.5822800000000 1.0
C      1  0.4416730000000  0.4836830000000  0.5557310000000 1.0
C      1  0.5404890000000  0.4034390000000  0.5417460000000 1.0
C      1  0.6020780000000  0.5406210000000  0.5198590000000 1.0
C      1  0.4306070000000  0.4202190000000  0.4435480000000 1.0
C      1  0.4381070000000  0.5684980000000  0.5386050000000 1.0
C      1  0.5230830000000  0.4889540000000  0.4447630000000 1.0
C      1  0.4920640000000  0.3964990000000  0.4660090000000 1.0
C      1  0.5290120000000  0.3896860000000  0.4984310000000 1.0
C      1  0.4278580000000  0.4940670000000  0.4898870000000 1.0
C      1  0.4990170000000  0.6142440000000  0.5113770000000 1.0
C      1  0.4706420000000  0.4466490000000  0.6005560000000 1.0
C      1  0.4972930000000  0.4219170000000  0.5564100000000 1.0
C      1  0.3997820000000  0.6149390000000  0.4321090000000 1.0
C      1  0.4940940000000  0.4122930000000  0.4407700000000 1.0
C      1  0.3775020000000  0.5234140000000  0.4443570000000 1.0
C      1  0.5117100000000  0.4551140000000  0.3934860000000 1.0
C      1  0.4034450000000  0.5390630000000  0.5245520000000 1.0
C      1  0.5834310000000  0.5264990000000  0.4497810000000 1.0
C      1  0.4557100000000  0.4714310000000  0.5340130000000 1.0
C      1  0.4729670000000  0.5639850000000  0.5738290000000 1.0
C      1  0.3881570000000  0.5456720000000  0.4310190000000 1.0
C      1  0.3791840000000  0.5963440000000  0.4272450000000 1.0
C      1  0.4382540000000  0.5770410000000  0.5103870000000 1.0
C      1  0.5554960000000  0.4246800000000  0.5540990000000 1.0
C      1  0.4163590000000  0.5467320000000  0.4298800000000 1.0
C      1  0.5570420000000  0.4416470000000  0.4106110000000 1.0
C      1  0.5455000000000  0.4204210000000  0.4259290000000 1.0
C      1  0.5098790000000  0.4959670000000  0.5495790000000 1.0
C      1  0.5035590000000  0.3965350000000  0.5133140000000 1.0
C      1  0.5765790000000  0.5274300000000  0.5237990000000 1.0
C      1  0.5417310000000  0.6065370000000  0.5298770000000 1.0
C      1  0.6045960000000  0.4825790000000  0.4548630000000 1.0
C      1  0.5109030000000  0.4465620000000  0.5616960000000 1.0
C      1  0.5384830000000  0.4519250000000  0.3916290000000 1.0
C      1  0.4529420000000  0.4608670000000  0.4568760000000 1.0
C      1  0.4354330000000  0.6211090000000  0.4883950000000 1.0
C      1  0.6018420000000  0.5008790000000  0.4115650000000 1.0
C      1  0.4728180000000  0.4923150000000  0.4958400000000 1.0
C      1  0.4163940000000  0.6323290000000  0.4736330000000 1.0
C      1  0.6215000000000  0.4751530000000  0.4758810000000 1.0
C      1  0.4783300000000  0.4712240000000  0.6081150000000 1.0
C      1  0.5386140000000  0.5189350000000  0.4848860000000 1.0
C      1  0.5220370000000  0.4216540000000  0.4414660000000 1.0
C      1  0.4372050000000  0.4290670000000  0.4907960000000 1.0
C      1  0.4980330000000  0.4710870000000  0.5551820000000 1.0
C      1  0.5172790000000  0.6463640000000  0.5438420000000 1.0
C      1  0.4966290000000  0.5008400000000  0.4862770000000 1.0
C      1  0.4834800000000  0.5314830000000  0.5292270000000 1.0
C      1  0.4590420000000  0.5285530000000  0.5179000000000 1.0
C      1  0.4688750000000  0.4202080000000  0.5584690000000 1.0
C      1  0.4928980000000  0.4565190000000  0.4145710000000 1.0
C      1  0.5396460000000  0.4478190000000  0.5596140000000 1.0
C      1  0.5603050000000  0.4641490000000  0.4940170000000 1.0
C      1  0.5461560000000  0.5661740000000  0.5001040000000 1.0
C      1  0.5158120000000  0.4525420000000  0.5127660000000 1.0
C      1  0.4838140000000  0.4982010000000  0.6034120000000 1.0
C      1  0.4962260000000  0.4509290000000  0.4718170000000 1.0
C      1  0.6214170000000  0.4560620000000  0.4965760000000 1.0
C      1  0.4494590000000  0.6029970000000  0.5043300000000 1.0
C      1  0.5077480000000  0.5130340000000  0.6108150000000 1.0
C      1  0.5619990000000  0.4641520000000  0.4661760000000 1.0
C      1  0.5787880000000  0.4580310000000  0.4198900000000 1.0
C      1  0.5205000000000  0.4436680000000  0.4595040000000 1.0
C      1  0.3746650000000  0.5699070000000  0.4264610000000 1.0
C      1  0.4105900000000  0.5378900000000  0.4969600000000 1.0
C      1  0.6034740000000  0.5658530000000  0.5321850000000 1.0
C      1  0.4774170000000  0.4324560000000  0.4262040000000 1.0
C      1  0.4722480000000  0.6105900000000  0.5200870000000 1.0
C      1  0.5067370000000  0.5150980000000  0.5284810000000 1.0
C      1  0.5313880000000  0.5004410000000  0.5665480000000 1.0
C      1  0.4089860000000  0.5314930000000  0.5896870000000 1.0
C      1  0.5779120000000  0.4116890000000  0.5147350000000 1.0
C      1  0.5595880000000  0.5379340000000  0.4955120000000 1.0
C      1  0.4559190000000  0.4322700000000  0.5810150000000 1.0
C      1  0.4685940000000  0.6042720000000  0.5474980000000 1.0
C      1  0.4802460000000  0.4690510000000  0.4562070000000 1.0
C      1  0.5571890000000  0.5853950000000  0.5194280000000 1.0
C      1  0.5369630000000  0.4655150000000  0.4542730000000 1.0
C      1  0.4965560000000  0.4788640000000  0.4344100000000 1.0
C      1  0.3799530000000  0.6550680000000  0.4512440000000 1.0
C      1  0.3981190000000  0.6347420000000  0.4524200000000 1.0
C      1  0.5744930000000  0.4812630000000  0.5445930000000 1.0
C      1  0.4478420000000  0.5566060000000  0.4662310000000 1.0
C      1  0.4307290000000  0.5580020000000  0.4894860000000 1.0
C      1  0.4464860000000  0.5093790000000  0.5683820000000 1.0
C      1  0.4069140000000  0.5118890000000  0.4841900000000 1.0
C      1  0.4810090000000  0.4015390000000  0.4942340000000 1.0
C      1  0.4372920000000  0.5621290000000  0.4404350000000 1.0
C      1  0.4233270000000  0.4660760000000  0.5684060000000 1.0
C      1  0.5414840000000  0.4630830000000  0.5148510000000 1.0
C      1  0.5388020000000  0.5409260000000  0.5819320000000 1.0
C      1  0.5192180000000  0.6234040000000  0.5293540000000 1.0
C      1  0.4255950000000  0.6079090000000  0.4230570000000 1.0
C      1  0.4254240000000  0.5292100000000  0.5677960000000 1.0
C      1  0.5184930000000  0.3836030000000  0.4723580000000 1.0
C      1  0.4567200000000  0.4131840000000  0.5057810000000 1.0
C      1  0.5359150000000  0.5129610000000  0.4556800000000 1.0
C      1  0.4662490000000  0.4651240000000  0.5062930000000 1.0
C      1  0.4582110000000  0.5794360000000  0.5558940000000 1.0
C      1  0.5928040000000  0.4584810000000  0.5389810000000 1.0
C      1  0.5171920000000  0.5114930000000  0.5017400000000 1.0
C      1  0.4697610000000  0.5154240000000  0.5841770000000 1.0
C      1  0.5835440000000  0.5836460000000  0.5292540000000 1.0
C      1  0.5713260000000  0.5109370000000  0.5461570000000 1.0
C      1  0.5206190000000  0.5730810000000  0.4868350000000 1.0
C      1  0.5987160000000  0.4077320000000  0.4957970000000 1.0
C      1  0.5520560000000  0.3972850000000  0.5147120000000 1.0
C      1  0.5566460000000  0.5248660000000  0.4402980000000 1.0
C      1  0.4293040000000  0.4414500000000  0.5778030000000 1.0
C      1  0.4553670000000  0.4132930000000  0.5343580000000 1.0
C      1  0.5016770000000  0.5561660000000  0.4744310000000 1.0
C      1  0.5915010000000  0.4771340000000  0.4027350000000 1.0
C      1  0.4420640000000  0.4596710000000  0.4864530000000 1.0
C      1  0.4416920000000  0.5870480000000  0.4281190000000 1.0
C      1  0.4504800000000  0.5083290000000  0.5001500000000 1.0
C      1  0.4757460000000  0.5525940000000  0.4685880000000 1.0
C      1  0.6085840000000  0.5397760000000  0.4920490000000 1.0
C      1  0.6017610000000  0.5068770000000  0.4395580000000 1.0
C      1  0.4231780000000  0.4163570000000  0.4694200000000 1.0
C      1  0.5517120000000  0.5201080000000  0.5661220000000 1.0
C      1  0.6164260000000  0.4289760000000  0.4905880000000 1.0
C      1  0.6015600000000  0.3837980000000  0.4828910000000 1.0
C      1  0.4917010000000  0.4510740000000  0.4994370000000 1.0
C      1  0.5124960000000  0.5367510000000  0.5938160000000 1.0
C      1  0.5099170000000  0.5991250000000  0.4903410000000 1.0
C      1  0.5492360000000  0.4681240000000  0.5414970000000 1.0
C      1  0.4511180000000  0.4386720000000  0.4376490000000 1.0
C      1  0.5854970000000  0.5379410000000  0.4755060000000 1.0
C      1  0.5800350000000  0.4309310000000  0.5380180000000 1.0
C      1  0.5835770000000  0.4639160000000  0.4481840000000 1.0
C      1  0.4211150000000  0.5464500000000  0.5454790000000 1.0
C      1  0.5115360000000  0.4036770000000  0.5401140000000 1.0
C      1  0.6157930000000  0.4631780000000  0.5232630000000 1.0
END
