TITL C-627113-6568-1517 3.43751635891014e-07 125000 -938.132498664705 0 0 154 (C1) n - 1
REM
REM in /home/nfs/bkarasulu/CARBON/AIRSS/Generating-Clusters/LCBOP/Only-C1/SD-CG/FIRE-CG
REM
REM
REM
REM
REM
REM ./C.cell (11c1c37f851c82e70ff6c80c92926a4b)
REM AIRSS Version 0.9.1 bugfix July 2018 build 013d7b7c2542+ Fri, 06 Jul 2018 19:26:36 +0100
REM compiler GCC version 9.2.1 20190827 (Red Hat 9.2.1-1)
REM options -cpp -mtune=generic -march=x86-64 -g -O0 -fpre-include=/usr/include/finclude/math-vector-fortran.h
REM seed -1807645507 -1624000713 -1097447834 -1168195222 -1330045382 -849682344 1472551829 406133549 427518219 -976225691 1489013467 -1917298774 1003401700 -905862339 956019765 1692423899 1623985138 -403813769 1256083247 -155804750 833522864 -1660776744 -1250083341 1307613219 1108289470 -1053475534 392903090 1055892928 412568637 1203719287 -1613786710 1621577470 974181096
REM
CELL 1.54180   50.00000   50.00000   50.00000   90.00000   90.00000   90.00000
LATT -1
SFAC C  
C      1  0.5246360000000  0.5173320000000  0.4098620000000 1.0
C      1  0.4774460000000  0.5090470000000  0.5613510000000 1.0
C      1  0.5573130000000  0.4163000000000  0.4856200000000 1.0
C      1  0.4989480000000  0.5287390000000  0.5625730000000 1.0
C      1  0.5511940000000  0.4570910000000  0.5543640000000 1.0
C      1  0.4305350000000  0.5718830000000  0.4742070000000 1.0
C      1  0.5773850000000  0.5489020000000  0.4876700000000 1.0
C      1  0.5099120000000  0.5053740000000  0.6178220000000 1.0
C      1  0.4555880000000  0.3941500000000  0.3969280000000 1.0
C      1  0.5810140000000  0.4608890000000  0.5074850000000 1.0
C      1  0.5693760000000  0.5169640000000  0.5449910000000 1.0
C      1  0.5355320000000  0.5041010000000  0.6298590000000 1.0
C      1  0.4831260000000  0.6026210000000  0.5127720000000 1.0
C      1  0.4994950000000  0.4750970000000  0.5397280000000 1.0
C      1  0.4152810000000  0.5171350000000  0.4195950000000 1.0
C      1  0.5652380000000  0.4206380000000  0.4581780000000 1.0
C      1  0.4575320000000  0.4700270000000  0.4656830000000 1.0
C      1  0.5774320000000  0.5675760000000  0.5329120000000 1.0
C      1  0.5484590000000  0.5559850000000  0.4249750000000 1.0
C      1  0.5165090000000  0.4155040000000  0.6505790000000 1.0
C      1  0.5052920000000  0.5131040000000  0.4815180000000 1.0
C      1  0.5300990000000  0.4247520000000  0.4893150000000 1.0
C      1  0.6323770000000  0.5251220000000  0.5320620000000 1.0
C      1  0.3917080000000  0.4136410000000  0.4859590000000 1.0
C      1  0.4531110000000  0.5663450000000  0.4096150000000 1.0
C      1  0.5129650000000  0.4086350000000  0.6754770000000 1.0
C      1  0.5472420000000  0.5413690000000  0.4971080000000 1.0
C      1  0.4217850000000  0.4439490000000  0.4424460000000 1.0
C      1  0.5157680000000  0.4701700000000  0.5159940000000 1.0
C      1  0.4742830000000  0.5671710000000  0.5789830000000 1.0
C      1  0.4981860000000  0.5303920000000  0.6101570000000 1.0
C      1  0.4697110000000  0.3962670000000  0.4634390000000 1.0
C      1  0.5973270000000  0.4845400000000  0.4340130000000 1.0
C      1  0.5617430000000  0.4748840000000  0.5748910000000 1.0
C      1  0.5000170000000  0.4497740000000  0.4357010000000 1.0
C      1  0.5429910000000  0.5282830000000  0.4287140000000 1.0
C      1  0.4218740000000  0.5292710000000  0.4660390000000 1.0
C      1  0.5063950000000  0.4610320000000  0.5637590000000 1.0
C      1  0.5202240000000  0.6100860000000  0.4689950000000 1.0
C      1  0.5696090000000  0.4204300000000  0.5342370000000 1.0
C      1  0.4823180000000  0.5510480000000  0.4541460000000 1.0
C      1  0.5810050000000  0.4674360000000  0.4213820000000 1.0
C      1  0.4544900000000  0.5394870000000  0.3990580000000 1.0
C      1  0.4743560000000  0.4893890000000  0.5391530000000 1.0
C      1  0.5086380000000  0.5902580000000  0.5094580000000 1.0
C      1  0.4537950000000  0.4688070000000  0.5459780000000 1.0
C      1  0.4498630000000  0.4274760000000  0.5221440000000 1.0
C      1  0.5535760000000  0.5053660000000  0.5247240000000 1.0
C      1  0.5593290000000  0.4944210000000  0.4676800000000 1.0
C      1  0.4438030000000  0.5201370000000  0.5140920000000 1.0
C      1  0.4309750000000  0.5156270000000  0.4896270000000 1.0
C      1  0.5768460000000  0.5993410000000  0.4973970000000 1.0
C      1  0.4301470000000  0.4711980000000  0.5045880000000 1.0
C      1  0.4971310000000  0.5243340000000  0.4130880000000 1.0
C      1  0.4842860000000  0.5872420000000  0.5603540000000 1.0
C      1  0.4279420000000  0.5992260000000  0.4797870000000 1.0
C      1  0.5419440000000  0.4510080000000  0.3946540000000 1.0
C      1  0.4196370000000  0.4815260000000  0.5954960000000 1.0
C      1  0.5239380000000  0.5383990000000  0.5498870000000 1.0
C      1  0.4091220000000  0.4965860000000  0.5727550000000 1.0
C      1  0.4785490000000  0.6031470000000  0.4398640000000 1.0
C      1  0.3965000000000  0.4836110000000  0.5507750000000 1.0
C      1  0.5590130000000  0.4503220000000  0.4172730000000 1.0
C      1  0.6436070000000  0.5233000000000  0.4737790000000 1.0
C      1  0.4852910000000  0.5478230000000  0.5111850000000 1.0
C      1  0.5174070000000  0.4419750000000  0.5077540000000 1.0
C      1  0.5363060000000  0.6015150000000  0.4473960000000 1.0
C      1  0.5306750000000  0.5459690000000  0.5214510000000 1.0
C      1  0.4073260000000  0.4577500000000  0.5435070000000 1.0
C      1  0.5152570000000  0.4491920000000  0.3906020000000 1.0
C      1  0.4463660000000  0.5614760000000  0.5757440000000 1.0
C      1  0.5100610000000  0.5557220000000  0.4637560000000 1.0
C      1  0.4800970000000  0.3912880000000  0.5112530000000 1.0
C      1  0.5722430000000  0.4999240000000  0.5667590000000 1.0
C      1  0.4336560000000  0.5428230000000  0.5579990000000 1.0
C      1  0.6077810000000  0.5310320000000  0.5219210000000 1.0
C      1  0.5148230000000  0.4171940000000  0.4663040000000 1.0
C      1  0.5454170000000  0.5166750000000  0.4550940000000 1.0
C      1  0.5243340000000  0.4327300000000  0.5993130000000 1.0
C      1  0.4466070000000  0.4870640000000  0.5991550000000 1.0
C      1  0.3826580000000  0.4986500000000  0.5309690000000 1.0
C      1  0.4893930000000  0.5339640000000  0.3653430000000 1.0
C      1  0.5338010000000  0.5042190000000  0.3877450000000 1.0
C      1  0.4922090000000  0.5050880000000  0.4574580000000 1.0
C      1  0.5689570000000  0.4507190000000  0.5329620000000 1.0
C      1  0.4658880000000  0.4410250000000  0.4045000000000 1.0
C      1  0.4116640000000  0.5116840000000  0.4464890000000 1.0
C      1  0.4500650000000  0.4632860000000  0.3961480000000 1.0
C      1  0.4309430000000  0.4678600000000  0.4533600000000 1.0
C      1  0.3888240000000  0.5086090000000  0.5049470000000 1.0
C      1  0.5846920000000  0.5731430000000  0.5047360000000 1.0
C      1  0.5017910000000  0.4797230000000  0.6080060000000 1.0
C      1  0.5371830000000  0.5845570000000  0.5586500000000 1.0
C      1  0.4556630000000  0.5067350000000  0.5799660000000 1.0
C      1  0.6166680000000  0.5176470000000  0.4735380000000 1.0
C      1  0.5017230000000  0.3818780000000  0.4948400000000 1.0
C      1  0.4909480000000  0.6117950000000  0.4646330000000 1.0
C      1  0.5436350000000  0.4172950000000  0.5823790000000 1.0
C      1  0.5247690000000  0.4419230000000  0.5522700000000 1.0
C      1  0.5447570000000  0.5818070000000  0.4313040000000 1.0
C      1  0.5959800000000  0.4368860000000  0.4992160000000 1.0
C      1  0.5562720000000  0.5894520000000  0.5376480000000 1.0
C      1  0.4462400000000  0.6181150000000  0.4851570000000 1.0
C      1  0.4810630000000  0.5323430000000  0.3912310000000 1.0
C      1  0.5281290000000  0.5323370000000  0.4747900000000 1.0
C      1  0.4882580000000  0.5203550000000  0.5028360000000 1.0
C      1  0.4985460000000  0.3945210000000  0.4685750000000 1.0
C      1  0.5211140000000  0.4334760000000  0.4444370000000 1.0
C      1  0.4338760000000  0.4534070000000  0.5294780000000 1.0
C      1  0.4092540000000  0.5522530000000  0.4778600000000 1.0
C      1  0.5527180000000  0.6057100000000  0.5119130000000 1.0
C      1  0.6003340000000  0.5294000000000  0.4940900000000 1.0
C      1  0.4427770000000  0.5430170000000  0.5309360000000 1.0
C      1  0.5803600000000  0.5566270000000  0.4588510000000 1.0
C      1  0.4283060000000  0.4191840000000  0.4535770000000 1.0
C      1  0.5493550000000  0.4343530000000  0.4387290000000 1.0
C      1  0.4530490000000  0.4083040000000  0.4433240000000 1.0
C      1  0.4370690000000  0.5163230000000  0.4018680000000 1.0
C      1  0.5622140000000  0.4716500000000  0.6028600000000 1.0
C      1  0.4647070000000  0.5878450000000  0.4219460000000 1.0
C      1  0.5088420000000  0.4574010000000  0.5918820000000 1.0
C      1  0.4915580000000  0.5448900000000  0.5864100000000 1.0
C      1  0.4111180000000  0.4922090000000  0.4912220000000 1.0
C      1  0.5377170000000  0.5571900000000  0.5670120000000 1.0
C      1  0.5091090000000  0.5625740000000  0.5128680000000 1.0
C      1  0.5285500000000  0.6050800000000  0.4965320000000 1.0
C      1  0.4678290000000  0.5011950000000  0.5126950000000 1.0
C      1  0.3896930000000  0.5381500000000  0.4962820000000 1.0
C      1  0.5587960000000  0.4107670000000  0.5597490000000 1.0
C      1  0.5357990000000  0.4892890000000  0.5131850000000 1.0
C      1  0.5771420000000  0.4146990000000  0.5063380000000 1.0
C      1  0.4568790000000  0.4786770000000  0.4931760000000 1.0
C      1  0.4585520000000  0.3934510000000  0.4910650000000 1.0
C      1  0.4707470000000  0.5872910000000  0.5340910000000 1.0
C      1  0.4854350000000  0.5257530000000  0.4392620000000 1.0
C      1  0.5114230000000  0.5963940000000  0.5622750000000 1.0
C      1  0.5855580000000  0.5397480000000  0.5386500000000 1.0
C      1  0.4581930000000  0.4147380000000  0.4151400000000 1.0
C      1  0.4447210000000  0.4897420000000  0.3939120000000 1.0
C      1  0.6071010000000  0.5014890000000  0.4523520000000 1.0
C      1  0.4183320000000  0.4148510000000  0.4802320000000 1.0
C      1  0.4934090000000  0.4474420000000  0.4082510000000 1.0
C      1  0.4796890000000  0.4166640000000  0.5276290000000 1.0
C      1  0.4384750000000  0.4115540000000  0.4997320000000 1.0
C      1  0.4106290000000  0.4864780000000  0.4609610000000 1.0
C      1  0.4808830000000  0.4605960000000  0.4533090000000 1.0
C      1  0.5201270000000  0.4228020000000  0.6253720000000 1.0
C      1  0.4634820000000  0.5608830000000  0.5245660000000 1.0
C      1  0.5554420000000  0.4868390000000  0.6240280000000 1.0
C      1  0.4297930000000  0.5172680000000  0.5691890000000 1.0
C      1  0.5072590000000  0.4282760000000  0.5316490000000 1.0
C      1  0.5716860000000  0.4785050000000  0.4864750000000 1.0
C      1  0.4739330000000  0.6147250000000  0.4884810000000 1.0
C      1  0.4571300000000  0.5618050000000  0.4645540000000 1.0
END
