TITL C-627107-135-1366 36652.2936085161 125000 -1138.86573820472 0 0 186 (C1) n - 1
REM
REM in /home/nfs/bkarasulu/CARBON/AIRSS/Generating-Clusters/LCBOP/Only-C1/SD-CG/FIRE-CG
REM
REM
REM
REM
REM
REM ./C.cell (11c1c37f851c82e70ff6c80c92926a4b)
REM AIRSS Version 0.9.1 bugfix July 2018 build 013d7b7c2542+ Fri, 06 Jul 2018 19:26:36 +0100
REM compiler GCC version 9.2.1 20190827 (Red Hat 9.2.1-1)
REM options -cpp -mtune=generic -march=x86-64 -g -O0 -fpre-include=/usr/include/finclude/math-vector-fortran.h
REM seed -1383768486 -681290597 -521176296 -269576020 2128676852 442713014 275158594 660029060 19011055 -1507430044 -849444546 1371416191 -1156266327 155144061 1128016263 1338197422 -1420159676 599768587 1698422590 -957571180 2030075778 -687160631 -451559240 -2062055992 -398565045 -256374859 -1311625759 875202043 -599016169 1054701589 -556878349 673454758 -7972178
REM
CELL 1.54180   50.00000   50.00000   50.00000   90.00000   90.00000   90.00000
LATT -1
SFAC C  
C      1  0.4457420000000  0.5221160000000  0.4163220000000 1.0
C      1  0.4315340000000  0.4613740000000  0.4352520000000 1.0
C      1  0.5288430000000  0.4353280000000  0.4622860000000 1.0
C      1  0.4759980000000  0.4371890000000  0.5779920000000 1.0
C      1  0.5296810000000  0.5611950000000  0.4718870000000 1.0
C      1  0.6252740000000  0.4719940000000  0.4854220000000 1.0
C      1  0.4586960000000  0.4715880000000  0.4412370000000 1.0
C      1  0.4972770000000  0.6156450000000  0.4505720000000 1.0
C      1  0.5184980000000  0.5234350000000  0.5507290000000 1.0
C      1  0.4892290000000  0.4438860000000  0.6041890000000 1.0
C      1  0.5921200000000  0.5429000000000  0.4519190000000 1.0
C      1  0.5062850000000  0.3730060000000  0.5106180000000 1.0
C      1  0.5966610000000  0.5523740000000  0.5434080000000 1.0
C      1  0.6107980000000  0.4685640000000  0.5087360000000 1.0
C      1  0.5912900000000  0.4428490000000  0.4682910000000 1.0
C      1  0.5194370000000  0.4136680000000  0.4051480000000 1.0
C      1  0.5097870000000  0.4780370000000  0.4318120000000 1.0
C      1  0.5717460000000  0.4353460000000  0.4490680000000 1.0
C      1  0.4596980000000  0.4054950000000  0.5368890000000 1.0
C      1  0.4195080000000  0.6029060000000  0.5291030000000 1.0
C      1  0.4781730000000  0.5373580000000  0.4891620000000 1.0
C      1  0.4034960000000  0.5044870000000  0.5322720000000 1.0
C      1  0.3960300000000  0.5366890000000  0.4698940000000 1.0
C      1  0.5314610000000  0.5039280000000  0.3962000000000 1.0
C      1  0.4657850000000  0.5114740000000  0.6025790000000 1.0
C      1  0.4917230000000  0.3412160000000  0.4770610000000 1.0
C      1  0.5379380000000  0.4769730000000  0.5745700000000 1.0
C      1  0.5020430000000  0.4922310000000  0.4583030000000 1.0
C      1  0.6362050000000  0.4918460000000  0.5557870000000 1.0
C      1  0.4458310000000  0.5394690000000  0.6441860000000 1.0
C      1  0.4901490000000  0.4585670000000  0.4874990000000 1.0
C      1  0.5461740000000  0.6129890000000  0.4772370000000 1.0
C      1  0.5697590000000  0.5341720000000  0.4068760000000 1.0
C      1  0.5662060000000  0.4854930000000  0.5639320000000 1.0
C      1  0.4530240000000  0.4314620000000  0.4797670000000 1.0
C      1  0.4772030000000  0.4422450000000  0.4686970000000 1.0
C      1  0.6459980000000  0.4667020000000  0.5562560000000 1.0
C      1  0.4084630000000  0.4718180000000  0.4487170000000 1.0
C      1  0.5117910000000  0.4748870000000  0.4807980000000 1.0
C      1  0.3928280000000  0.4670760000000  0.5022240000000 1.0
C      1  0.5393160000000  0.4400150000000  0.5659700000000 1.0
C      1  0.6129440000000  0.5032870000000  0.5445290000000 1.0
C      1  0.4775660000000  0.4642050000000  0.5117020000000 1.0
C      1  0.4035410000000  0.4037990000000  0.4865000000000 1.0
C      1  0.5814140000000  0.5894690000000  0.5131640000000 1.0
C      1  0.5721800000000  0.5208140000000  0.4974430000000 1.0
C      1  0.5287890000000  0.4154450000000  0.5163710000000 1.0
C      1  0.4960400000000  0.4164730000000  0.5678650000000 1.0
C      1  0.4765520000000  0.4415500000000  0.3939150000000 1.0
C      1  0.6432260000000  0.4413740000000  0.5477430000000 1.0
C      1  0.5251730000000  0.4827690000000  0.5309460000000 1.0
C      1  0.4368380000000  0.5552120000000  0.4938240000000 1.0
C      1  0.4381640000000  0.4226290000000  0.5501380000000 1.0
C      1  0.4675610000000  0.6009360000000  0.5279200000000 1.0
C      1  0.5465480000000  0.4176930000000  0.4469740000000 1.0
C      1  0.3873320000000  0.5165350000000  0.4523220000000 1.0
C      1  0.4887710000000  0.4712880000000  0.6076350000000 1.0
C      1  0.4784630000000  0.4602630000000  0.5575950000000 1.0
C      1  0.5965340000000  0.5250390000000  0.5555630000000 1.0
C      1  0.4064950000000  0.4111590000000  0.5123070000000 1.0
C      1  0.4021080000000  0.4977910000000  0.4376350000000 1.0
C      1  0.5247780000000  0.4031240000000  0.4317170000000 1.0
C      1  0.5292030000000  0.5667360000000  0.5342750000000 1.0
C      1  0.4333080000000  0.4540150000000  0.4847100000000 1.0
C      1  0.5978710000000  0.5301740000000  0.5023710000000 1.0
C      1  0.4727320000000  0.4916690000000  0.4552290000000 1.0
C      1  0.3677010000000  0.5813740000000  0.4816490000000 1.0
C      1  0.5266290000000  0.4252780000000  0.4890310000000 1.0
C      1  0.5282050000000  0.4581640000000  0.4422720000000 1.0
C      1  0.5916790000000  0.4400060000000  0.5035850000000 1.0
C      1  0.5709490000000  0.4767360000000  0.5333230000000 1.0
C      1  0.4627140000000  0.4333530000000  0.4177280000000 1.0
C      1  0.5396520000000  0.4782410000000  0.4882610000000 1.0
C      1  0.4771510000000  0.5825940000000  0.4051390000000 1.0
C      1  0.5340400000000  0.4533690000000  0.6165590000000 1.0
C      1  0.5221120000000  0.4959900000000  0.5552000000000 1.0
C      1  0.5437430000000  0.5614090000000  0.4444740000000 1.0
C      1  0.5397150000000  0.4367440000000  0.5354120000000 1.0
C      1  0.4437850000000  0.5514800000000  0.5745010000000 1.0
C      1  0.5762590000000  0.5124520000000  0.5718200000000 1.0
C      1  0.4834150000000  0.5535300000000  0.3997820000000 1.0
C      1  0.4602900000000  0.4817330000000  0.5505230000000 1.0
C      1  0.4185650000000  0.4140440000000  0.4369620000000 1.0
C      1  0.6075400000000  0.5513250000000  0.5167770000000 1.0
C      1  0.5197920000000  0.5843410000000  0.5140890000000 1.0
C      1  0.6049940000000  0.4878820000000  0.4448900000000 1.0
C      1  0.4630170000000  0.5696020000000  0.5812500000000 1.0
C      1  0.4577860000000  0.5134540000000  0.4627820000000 1.0
C      1  0.5246110000000  0.6150700000000  0.4604100000000 1.0
C      1  0.4889770000000  0.5775980000000  0.5832940000000 1.0
C      1  0.5250380000000  0.5446030000000  0.4290210000000 1.0
C      1  0.5636160000000  0.6053800000000  0.4969880000000 1.0
C      1  0.4881190000000  0.4036330000000  0.5442300000000 1.0
C      1  0.4551560000000  0.5262090000000  0.6237820000000 1.0
C      1  0.4908810000000  0.4533410000000  0.5335200000000 1.0
C      1  0.4850920000000  0.3896700000000  0.4704220000000 1.0
C      1  0.4215660000000  0.4794580000000  0.5729120000000 1.0
C      1  0.4738850000000  0.5663130000000  0.4865850000000 1.0
C      1  0.5200400000000  0.5151760000000  0.4629300000000 1.0
C      1  0.5335640000000  0.5385640000000  0.5307130000000 1.0
C      1  0.4559910000000  0.5316610000000  0.4414850000000 1.0
C      1  0.4458510000000  0.6330340000000  0.4994280000000 1.0
C      1  0.4946700000000  0.3668930000000  0.4858880000000 1.0
C      1  0.4421760000000  0.4990770000000  0.5658310000000 1.0
C      1  0.4358470000000  0.5074660000000  0.4799400000000 1.0
C      1  0.3578820000000  0.6049200000000  0.4888400000000 1.0
C      1  0.4805490000000  0.6357880000000  0.4614370000000 1.0
C      1  0.4526130000000  0.5138930000000  0.5207830000000 1.0
C      1  0.4057740000000  0.4785400000000  0.5486190000000 1.0
C      1  0.4051740000000  0.4597610000000  0.4761260000000 1.0
C      1  0.4992080000000  0.3909850000000  0.4437830000000 1.0
C      1  0.5457710000000  0.5300160000000  0.5054160000000 1.0
C      1  0.3888200000000  0.4955200000000  0.5086440000000 1.0
C      1  0.5746950000000  0.5048500000000  0.4740050000000 1.0
C      1  0.4204690000000  0.5089610000000  0.4180480000000 1.0
C      1  0.4399050000000  0.4812030000000  0.4942670000000 1.0
C      1  0.5172300000000  0.5723180000000  0.5829280000000 1.0
C      1  0.4769420000000  0.5496820000000  0.4426960000000 1.0
C      1  0.5571330000000  0.4685380000000  0.4412770000000 1.0
C      1  0.5985990000000  0.5596080000000  0.4739390000000 1.0
C      1  0.6305440000000  0.4232080000000  0.5325280000000 1.0
C      1  0.5991090000000  0.4850740000000  0.5271460000000 1.0
C      1  0.5751110000000  0.5057860000000  0.4133260000000 1.0
C      1  0.4079120000000  0.4046060000000  0.4598960000000 1.0
C      1  0.4729870000000  0.5739450000000  0.5225100000000 1.0
C      1  0.4715570000000  0.4689530000000  0.3849720000000 1.0
C      1  0.4742730000000  0.4465160000000  0.4410860000000 1.0
C      1  0.4375200000000  0.4616820000000  0.5892010000000 1.0
C      1  0.5163370000000  0.4327300000000  0.6070850000000 1.0
C      1  0.5881070000000  0.4833810000000  0.4233870000000 1.0
C      1  0.5090900000000  0.3964570000000  0.5256640000000 1.0
C      1  0.6107460000000  0.4196190000000  0.5143790000000 1.0
C      1  0.5065330000000  0.4921890000000  0.4052340000000 1.0
C      1  0.4249300000000  0.5541010000000  0.5203760000000 1.0
C      1  0.4981390000000  0.5478510000000  0.4236590000000 1.0
C      1  0.5708710000000  0.5512760000000  0.4328520000000 1.0
C      1  0.3493350000000  0.6283310000000  0.4964880000000 1.0
C      1  0.5956530000000  0.5136670000000  0.4563190000000 1.0
C      1  0.4435060000000  0.6140940000000  0.5200050000000 1.0
C      1  0.5474730000000  0.4987460000000  0.4219400000000 1.0
C      1  0.5013820000000  0.4278230000000  0.3906270000000 1.0
C      1  0.4263060000000  0.5264670000000  0.5331850000000 1.0
C      1  0.5272450000000  0.5543630000000  0.6026210000000 1.0
C      1  0.5620630000000  0.5853200000000  0.5614820000000 1.0
C      1  0.4899890000000  0.6174160000000  0.5325820000000 1.0
C      1  0.4455510000000  0.4354810000000  0.5767620000000 1.0
C      1  0.5404750000000  0.5298420000000  0.6065690000000 1.0
C      1  0.4221940000000  0.5334470000000  0.4805170000000 1.0
C      1  0.4565530000000  0.4845090000000  0.5194550000000 1.0
C      1  0.4746500000000  0.5291270000000  0.5150500000000 1.0
C      1  0.5252080000000  0.4790420000000  0.6034410000000 1.0
C      1  0.5176720000000  0.4564370000000  0.5309200000000 1.0
C      1  0.4809240000000  0.4954860000000  0.3926260000000 1.0
C      1  0.4149550000000  0.4297460000000  0.5325650000000 1.0
C      1  0.5140400000000  0.6106590000000  0.5226110000000 1.0
C      1  0.5476810000000  0.4858910000000  0.5149370000000 1.0
C      1  0.5349220000000  0.5772310000000  0.5605260000000 1.0
C      1  0.4669900000000  0.5220050000000  0.3961630000000 1.0
C      1  0.5107990000000  0.5748340000000  0.4892640000000 1.0
C      1  0.4614730000000  0.4035700000000  0.4845390000000 1.0
C      1  0.5650660000000  0.5260520000000  0.5935130000000 1.0
C      1  0.4853360000000  0.3756860000000  0.4245470000000 1.0
C      1  0.5218380000000  0.4235120000000  0.5801240000000 1.0
C      1  0.5457230000000  0.5293390000000  0.3881270000000 1.0
C      1  0.4338930000000  0.4341520000000  0.4243800000000 1.0
C      1  0.5332590000000  0.5186040000000  0.4384700000000 1.0
C      1  0.5291800000000  0.5336610000000  0.4823030000000 1.0
C      1  0.6007640000000  0.5733910000000  0.4982690000000 1.0
C      1  0.4733670000000  0.5736040000000  0.4575620000000 1.0
C      1  0.4546110000000  0.3949530000000  0.5108620000000 1.0
C      1  0.4815120000000  0.5241040000000  0.5820110000000 1.0
C      1  0.6104320000000  0.4653350000000  0.4620720000000 1.0
C      1  0.5281370000000  0.5058620000000  0.6149380000000 1.0
C      1  0.5685740000000  0.4459340000000  0.5255810000000 1.0
C      1  0.4805120000000  0.5486500000000  0.5353430000000 1.0
C      1  0.5811530000000  0.5781740000000  0.5417220000000 1.0
C      1  0.4825240000000  0.5936920000000  0.4386230000000 1.0
C      1  0.3800680000000  0.5586890000000  0.4758150000000 1.0
C      1  0.4639180000000  0.4828620000000  0.6031000000000 1.0
C      1  0.4679450000000  0.6005700000000  0.3872930000000 1.0
C      1  0.4029220000000  0.4560420000000  0.5294250000000 1.0
C      1  0.5591190000000  0.4824330000000  0.4683030000000 1.0
C      1  0.4127220000000  0.5769950000000  0.5308470000000 1.0
C      1  0.4354380000000  0.5270590000000  0.5622670000000 1.0
C      1  0.4930050000000  0.5346070000000  0.5578720000000 1.0
C      1  0.4607720000000  0.6408630000000  0.4786810000000 1.0
END
