TITL C-627110-360-1777 0.197317440184734 125000 -232.81858333691 0 0 39 (C1) n - 1
REM
REM in /home/nfs/bkarasulu/CARBON/AIRSS/Generating-Clusters/LCBOP/Only-C1/SD-CG/FIRE-CG
REM
REM
REM
REM
REM
REM ./C.cell (11c1c37f851c82e70ff6c80c92926a4b)
REM AIRSS Version 0.9.1 bugfix July 2018 build 013d7b7c2542+ Fri, 06 Jul 2018 19:26:36 +0100
REM compiler GCC version 9.2.1 20190827 (Red Hat 9.2.1-1)
REM options -cpp -mtune=generic -march=x86-64 -g -O0 -fpre-include=/usr/include/finclude/math-vector-fortran.h
REM seed -685403048 2128225316 -1820532500 636446399 -1611077108 1600711475 -731493548 1871626851 -1219071057 1532801589 -1935810584 655331525 -614188305 -19806185 981746713 -350104350 -1193786492 1918139831 -668940963 372308218 -413058820 1178203021 1396274238 1226678635 1441841083 -132015589 -321149242 -1803431327 949937604 -1580472267 944369734 954462244 -1072086850
REM
CELL 1.54180   50.00000   50.00000   50.00000   90.00000   90.00000   90.00000
LATT -1
SFAC C  
C      1  0.4890110000000  0.4971480000000  0.4755830000000 1.0
C      1  0.3923510000000  0.4603840000000  0.4976860000000 1.0
C      1  0.4861680000000  0.4589320000000  0.5283630000000 1.0
C      1  0.6049000000000  0.5684710000000  0.4408290000000 1.0
C      1  0.5705060000000  0.4818330000000  0.5536130000000 1.0
C      1  0.4739980000000  0.5345510000000  0.5015980000000 1.0
C      1  0.5292840000000  0.5252160000000  0.5735690000000 1.0
C      1  0.5671840000000  0.4850170000000  0.5257920000000 1.0
C      1  0.3866080000000  0.4745050000000  0.4759010000000 1.0
C      1  0.4329410000000  0.4511470000000  0.5285950000000 1.0
C      1  0.4697350000000  0.4758770000000  0.4069160000000 1.0
C      1  0.5303890000000  0.5372150000000  0.5479220000000 1.0
C      1  0.4790890000000  0.4894710000000  0.4521760000000 1.0
C      1  0.5295980000000  0.4970580000000  0.5772870000000 1.0
C      1  0.3942710000000  0.4919400000000  0.4573280000000 1.0
C      1  0.5067240000000  0.5037230000000  0.5209430000000 1.0
C      1  0.5559270000000  0.5094400000000  0.5159410000000 1.0
C      1  0.4177780000000  0.5342180000000  0.4589820000000 1.0
C      1  0.4589790000000  0.4543290000000  0.5325210000000 1.0
C      1  0.5506320000000  0.4431020000000  0.5007640000000 1.0
C      1  0.5308060000000  0.5641460000000  0.5439250000000 1.0
C      1  0.5016630000000  0.4409210000000  0.5134640000000 1.0
C      1  0.5670240000000  0.4623570000000  0.5092960000000 1.0
C      1  0.4989600000000  0.4822390000000  0.5384580000000 1.0
C      1  0.4145830000000  0.5086800000000  0.4478490000000 1.0
C      1  0.5078390000000  0.4834590000000  0.5652980000000 1.0
C      1  0.4093120000000  0.4525140000000  0.5165650000000 1.0
C      1  0.4357280000000  0.4978080000000  0.4330380000000 1.0
C      1  0.6166000000000  0.5829510000000  0.4225790000000 1.0
C      1  0.5549980000000  0.4848230000000  0.5754200000000 1.0
C      1  0.5253140000000  0.4349540000000  0.5027710000000 1.0
C      1  0.4902550000000  0.5118110000000  0.4994280000000 1.0
C      1  0.5930030000000  0.5537490000000  0.4593850000000 1.0
C      1  0.4530120000000  0.5483240000000  0.4927450000000 1.0
C      1  0.5691560000000  0.5243850000000  0.4964850000000 1.0
C      1  0.4616630000000  0.4875080000000  0.4302810000000 1.0
C      1  0.5308580000000  0.5181910000000  0.5264460000000 1.0
C      1  0.5811090000000  0.5390310000000  0.4779360000000 1.0
C      1  0.4320410000000  0.5485720000000  0.4763200000000 1.0
END
