TITL C-627108-131-375 1.31168346044356e-06 125000 -1041.23716464669 0 0 171 (C1) n - 1
REM
REM in /home/nfs/bkarasulu/CARBON/AIRSS/Generating-Clusters/LCBOP/Only-C1/SD-CG/FIRE-CG
REM
REM
REM
REM
REM
REM ./C.cell (11c1c37f851c82e70ff6c80c92926a4b)
REM AIRSS Version 0.9.1 bugfix July 2018 build 013d7b7c2542+ Fri, 06 Jul 2018 19:26:36 +0100
REM compiler GCC version 9.2.1 20190827 (Red Hat 9.2.1-1)
REM options -cpp -mtune=generic -march=x86-64 -g -O0 -fpre-include=/usr/include/finclude/math-vector-fortran.h
REM seed -519106740 944670086 1489537234 60669948 -2104348556 685318382 -1136077814 -740177868 -1907981371 -1324950789 1751365239 -580217804 1203099009 -2029607494 -733063126 -520741651 -1442563663 -1624170381 -1830242898 509358776 -1336676567 -1954009742 -315576773 -1363809196 -905775371 -1613648626 2001513418 -822826030 -1323516154 1088198737 -440258991 -351803362 -915907572
REM
CELL 1.54180   50.00000   50.00000   50.00000   90.00000   90.00000   90.00000
LATT -1
SFAC C  
C      1  0.4345380000000  0.4757930000000  0.4504270000000 1.0
C      1  0.5380330000000  0.6251300000000  0.5475220000000 1.0
C      1  0.4772550000000  0.5995320000000  0.5042430000000 1.0
C      1  0.4912080000000  0.5441990000000  0.5275050000000 1.0
C      1  0.4611610000000  0.3892110000000  0.4533690000000 1.0
C      1  0.5078600000000  0.6364530000000  0.5062240000000 1.0
C      1  0.4907280000000  0.6205160000000  0.4903600000000 1.0
C      1  0.5986210000000  0.5639860000000  0.4632710000000 1.0
C      1  0.4901250000000  0.4348960000000  0.4853670000000 1.0
C      1  0.4244270000000  0.4849260000000  0.5897030000000 1.0
C      1  0.3849270000000  0.4535620000000  0.4776490000000 1.0
C      1  0.4748250000000  0.4872280000000  0.5156370000000 1.0
C      1  0.4177960000000  0.4892920000000  0.4071710000000 1.0
C      1  0.4777470000000  0.4516270000000  0.4344150000000 1.0
C      1  0.5505590000000  0.4643200000000  0.4750050000000 1.0
C      1  0.4470050000000  0.5573050000000  0.5870780000000 1.0
C      1  0.4623180000000  0.4745170000000  0.4910990000000 1.0
C      1  0.4495390000000  0.5937190000000  0.4464910000000 1.0
C      1  0.4738270000000  0.6024420000000  0.5320520000000 1.0
C      1  0.4953330000000  0.4104350000000  0.4238330000000 1.0
C      1  0.5683410000000  0.5610140000000  0.5646050000000 1.0
C      1  0.4994970000000  0.5790400000000  0.4270680000000 1.0
C      1  0.5444100000000  0.3962240000000  0.5175630000000 1.0
C      1  0.3686850000000  0.5205460000000  0.4861820000000 1.0
C      1  0.4633240000000  0.3998680000000  0.5266170000000 1.0
C      1  0.4797870000000  0.4631430000000  0.5507880000000 1.0
C      1  0.4606110000000  0.4811560000000  0.3828160000000 1.0
C      1  0.5532520000000  0.4490430000000  0.4490990000000 1.0
C      1  0.4155860000000  0.4925000000000  0.4352540000000 1.0
C      1  0.6112560000000  0.5404300000000  0.5569650000000 1.0
C      1  0.5232160000000  0.5748300000000  0.4776980000000 1.0
C      1  0.5041550000000  0.4295680000000  0.4026670000000 1.0
C      1  0.5289060000000  0.5791770000000  0.4218140000000 1.0
C      1  0.4883840000000  0.4760730000000  0.3905900000000 1.0
C      1  0.5372600000000  0.5434190000000  0.5307830000000 1.0
C      1  0.4364850000000  0.5642150000000  0.5435380000000 1.0
C      1  0.5525170000000  0.4570260000000  0.3971360000000 1.0
C      1  0.3887640000000  0.4815870000000  0.5210680000000 1.0
C      1  0.5034140000000  0.4755330000000  0.4645740000000 1.0
C      1  0.5688410000000  0.4092790000000  0.5254710000000 1.0
C      1  0.6154580000000  0.4215510000000  0.4662560000000 1.0
C      1  0.5701360000000  0.5011060000000  0.5405040000000 1.0
C      1  0.5301960000000  0.5238850000000  0.6123290000000 1.0
C      1  0.5292080000000  0.4031070000000  0.4932230000000 1.0
C      1  0.5671580000000  0.4345890000000  0.5382430000000 1.0
C      1  0.4804990000000  0.4898370000000  0.4715990000000 1.0
C      1  0.4645180000000  0.4047860000000  0.4293080000000 1.0
C      1  0.5815990000000  0.4659770000000  0.5707830000000 1.0
C      1  0.5655860000000  0.5039820000000  0.4081830000000 1.0
C      1  0.6159910000000  0.5246090000000  0.4861010000000 1.0
C      1  0.5965050000000  0.5366420000000  0.4686290000000 1.0
C      1  0.4196920000000  0.4256500000000  0.5330720000000 1.0
C      1  0.6226340000000  0.4707670000000  0.5396480000000 1.0
C      1  0.5718870000000  0.5037690000000  0.4871320000000 1.0
C      1  0.5673850000000  0.5978490000000  0.4509380000000 1.0
C      1  0.5229980000000  0.4140680000000  0.5586320000000 1.0
C      1  0.4449820000000  0.5299850000000  0.5954820000000 1.0
C      1  0.5405360000000  0.4626120000000  0.5023600000000 1.0
C      1  0.5659640000000  0.4574530000000  0.4230700000000 1.0
C      1  0.5201460000000  0.4859260000000  0.4449930000000 1.0
C      1  0.5921000000000  0.4331130000000  0.4608960000000 1.0
C      1  0.5237170000000  0.5618170000000  0.5799370000000 1.0
C      1  0.5672450000000  0.5763200000000  0.4969070000000 1.0
C      1  0.5040610000000  0.4542250000000  0.5371180000000 1.0
C      1  0.4319150000000  0.5843950000000  0.4697630000000 1.0
C      1  0.3987210000000  0.4339900000000  0.4604650000000 1.0
C      1  0.5613830000000  0.4543080000000  0.5194000000000 1.0
C      1  0.5929700000000  0.4706570000000  0.4548970000000 1.0
C      1  0.3853180000000  0.5287740000000  0.5077270000000 1.0
C      1  0.5690240000000  0.5895430000000  0.5646710000000 1.0
C      1  0.5137460000000  0.5264470000000  0.5217610000000 1.0
C      1  0.5873100000000  0.5411300000000  0.5716740000000 1.0
C      1  0.4585330000000  0.5298680000000  0.4977620000000 1.0
C      1  0.4019240000000  0.5073540000000  0.4558510000000 1.0
C      1  0.4973400000000  0.6135140000000  0.4636320000000 1.0
C      1  0.4347470000000  0.4617010000000  0.6003680000000 1.0
C      1  0.5639580000000  0.4239590000000  0.4586040000000 1.0
C      1  0.5042420000000  0.4971100000000  0.5158740000000 1.0
C      1  0.4362510000000  0.4705590000000  0.3951600000000 1.0
C      1  0.4754620000000  0.5738750000000  0.4916660000000 1.0
C      1  0.6228650000000  0.5344490000000  0.5336170000000 1.0
C      1  0.6271470000000  0.4890500000000  0.5203670000000 1.0
C      1  0.5751790000000  0.4941630000000  0.5675780000000 1.0
C      1  0.4510860000000  0.4589930000000  0.4366270000000 1.0
C      1  0.5145470000000  0.4501110000000  0.5945740000000 1.0
C      1  0.4804180000000  0.5417140000000  0.5537530000000 1.0
C      1  0.5764350000000  0.5174090000000  0.5848050000000 1.0
C      1  0.4481890000000  0.5634690000000  0.4039210000000 1.0
C      1  0.4605140000000  0.5636710000000  0.5615120000000 1.0
C      1  0.5286060000000  0.5493590000000  0.4711510000000 1.0
C      1  0.4408260000000  0.5824350000000  0.4214040000000 1.0
C      1  0.4893110000000  0.5158710000000  0.5626930000000 1.0
C      1  0.5830500000000  0.4796240000000  0.4282470000000 1.0
C      1  0.4849890000000  0.5014430000000  0.6108330000000 1.0
C      1  0.4836540000000  0.4544130000000  0.5976810000000 1.0
C      1  0.5704370000000  0.5068040000000  0.5146520000000 1.0
C      1  0.4784800000000  0.6040920000000  0.4440860000000 1.0
C      1  0.5282880000000  0.4447380000000  0.4052680000000 1.0
C      1  0.5314200000000  0.4895870000000  0.5741910000000 1.0
C      1  0.4853730000000  0.4511360000000  0.4061850000000 1.0
C      1  0.4165150000000  0.5692740000000  0.4880430000000 1.0
C      1  0.4702190000000  0.5256970000000  0.6108750000000 1.0
C      1  0.4723160000000  0.4906500000000  0.5615010000000 1.0
C      1  0.3957530000000  0.4343530000000  0.5219650000000 1.0
C      1  0.5696710000000  0.5245980000000  0.4677910000000 1.0
C      1  0.5240480000000  0.5904550000000  0.5795170000000 1.0
C      1  0.4894680000000  0.5575940000000  0.4418300000000 1.0
C      1  0.5422830000000  0.5288820000000  0.4570710000000 1.0
C      1  0.5412990000000  0.5512260000000  0.5588900000000 1.0
C      1  0.3694480000000  0.4748460000000  0.4660970000000 1.0
C      1  0.5251670000000  0.5132070000000  0.4380480000000 1.0
C      1  0.5579450000000  0.5211140000000  0.6061860000000 1.0
C      1  0.6239890000000  0.5160760000000  0.5121140000000 1.0
C      1  0.5446650000000  0.6047940000000  0.5656540000000 1.0
C      1  0.5009820000000  0.4097310000000  0.4960370000000 1.0
C      1  0.5139890000000  0.4994830000000  0.6149840000000 1.0
C      1  0.4196910000000  0.5057800000000  0.4790860000000 1.0
C      1  0.5754670000000  0.4790690000000  0.4753670000000 1.0
C      1  0.4437520000000  0.5175190000000  0.5191020000000 1.0
C      1  0.4148540000000  0.4201670000000  0.4425830000000 1.0
C      1  0.4736990000000  0.5513660000000  0.5076150000000 1.0
C      1  0.4787880000000  0.3922680000000  0.5023480000000 1.0
C      1  0.5380600000000  0.4098630000000  0.4655160000000 1.0
C      1  0.4392200000000  0.4468150000000  0.4126160000000 1.0
C      1  0.4779090000000  0.5632640000000  0.4654100000000 1.0
C      1  0.4566550000000  0.4985700000000  0.5355110000000 1.0
C      1  0.5027930000000  0.4261310000000  0.5434550000000 1.0
C      1  0.5321040000000  0.3913910000000  0.5436580000000 1.0
C      1  0.5210820000000  0.4652720000000  0.4259370000000 1.0
C      1  0.4706140000000  0.5166540000000  0.4749890000000 1.0
C      1  0.5455860000000  0.5568270000000  0.4115420000000 1.0
C      1  0.4376980000000  0.4191950000000  0.4225260000000 1.0
C      1  0.4089760000000  0.5223540000000  0.5506210000000 1.0
C      1  0.3920670000000  0.5087680000000  0.5291460000000 1.0
C      1  0.4255510000000  0.5124450000000  0.5799950000000 1.0
C      1  0.5251820000000  0.4772890000000  0.5990790000000 1.0
C      1  0.4452890000000  0.4209650000000  0.4907410000000 1.0
C      1  0.4719390000000  0.5905350000000  0.5561320000000 1.0
C      1  0.5535610000000  0.5590760000000  0.5127990000000 1.0
C      1  0.5250100000000  0.6360190000000  0.5268430000000 1.0
C      1  0.4362840000000  0.4826640000000  0.4784810000000 1.0
C      1  0.4766410000000  0.4827050000000  0.5914300000000 1.0
C      1  0.5619130000000  0.4437630000000  0.5660260000000 1.0
C      1  0.4668650000000  0.5453450000000  0.3977150000000 1.0
C      1  0.4899830000000  0.5330100000000  0.4029850000000 1.0
C      1  0.4979400000000  0.4452690000000  0.4582260000000 1.0
C      1  0.5132850000000  0.4184310000000  0.4478560000000 1.0
C      1  0.5166580000000  0.5092740000000  0.5638760000000 1.0
C      1  0.4757500000000  0.4168610000000  0.5455420000000 1.0
C      1  0.5599930000000  0.5330180000000  0.4087870000000 1.0
C      1  0.4332240000000  0.4398400000000  0.5532640000000 1.0
C      1  0.4884090000000  0.5480600000000  0.6127330000000 1.0
C      1  0.5222190000000  0.5991790000000  0.4630320000000 1.0
C      1  0.4634970000000  0.4440260000000  0.4912270000000 1.0
C      1  0.5149150000000  0.4930400000000  0.3932960000000 1.0
C      1  0.3753790000000  0.5027440000000  0.4649260000000 1.0
C      1  0.4569310000000  0.4451540000000  0.6046190000000 1.0
C      1  0.3887170000000  0.4567190000000  0.5065370000000 1.0
C      1  0.4591000000000  0.3964850000000  0.4801110000000 1.0
C      1  0.4375390000000  0.4111450000000  0.5171140000000 1.0
C      1  0.4038840000000  0.5517410000000  0.5089640000000 1.0
C      1  0.5109890000000  0.5162950000000  0.4115240000000 1.0
C      1  0.5179430000000  0.4712560000000  0.5178960000000 1.0
C      1  0.5409590000000  0.5974600000000  0.4413600000000 1.0
C      1  0.5794830000000  0.5827890000000  0.4717080000000 1.0
C      1  0.6080760000000  0.4611750000000  0.5603540000000 1.0
C      1  0.5348870000000  0.4337870000000  0.5770850000000 1.0
C      1  0.5454650000000  0.4860480000000  0.3922600000000 1.0
C      1  0.4612230000000  0.4410430000000  0.5536820000000 1.0
C      1  0.4148010000000  0.5488180000000  0.5364990000000 1.0
C      1  0.5153710000000  0.5471780000000  0.6031960000000 1.0
END
