TITL C-627113-6568-1988 0.0024381061563573 125000 -538.429808001803 0 0 90 (C1) n - 1
REM
REM in /home/nfs/bkarasulu/CARBON/AIRSS/Generating-Clusters/LCBOP/Only-C1/SD-CG/FIRE-CG
REM
REM
REM
REM
REM
REM ./C.cell (11c1c37f851c82e70ff6c80c92926a4b)
REM AIRSS Version 0.9.1 bugfix July 2018 build 013d7b7c2542+ Fri, 06 Jul 2018 19:26:36 +0100
REM compiler GCC version 9.2.1 20190827 (Red Hat 9.2.1-1)
REM options -cpp -mtune=generic -march=x86-64 -g -O0 -fpre-include=/usr/include/finclude/math-vector-fortran.h
REM seed -2032024059 -431902373 1275341107 385276629 1425046823 -780040489 599492986 2031132249 -1785723754 405103431 819752995 1447337799 -1497871145 227475859 -255084559 -1740508578 1113825370 1465655633 1327796943 927622028 1954023124 -1839965771 413059399 -1479182014 -1616068912 1309928000 1415373350 -61754787 1019073800 -1959722904 -1891574306 1904404425 -694963610
REM
CELL 1.54180   50.00000   50.00000   50.00000   90.00000   90.00000   90.00000
LATT -1
SFAC C  
C      1  0.5130890000000  0.4183950000000  0.4746450000000 1.0
C      1  0.4960890000000  0.5152120000000  0.4680570000000 1.0
C      1  0.5095930000000  0.5271930000000  0.4441080000000 1.0
C      1  0.4863990000000  0.5742510000000  0.5193040000000 1.0
C      1  0.5213570000000  0.5827010000000  0.4742340000000 1.0
C      1  0.5117070000000  0.5045980000000  0.5486560000000 1.0
C      1  0.4845390000000  0.5382740000000  0.6033890000000 1.0
C      1  0.4646410000000  0.4264370000000  0.4531800000000 1.0
C      1  0.5376520000000  0.5410930000000  0.4859100000000 1.0
C      1  0.5160690000000  0.5786450000000  0.5246590000000 1.0
C      1  0.4574390000000  0.4974300000000  0.4298610000000 1.0
C      1  0.5121920000000  0.4811180000000  0.4320710000000 1.0
C      1  0.5766540000000  0.5831260000000  0.5253170000000 1.0
C      1  0.5276910000000  0.5542380000000  0.5395030000000 1.0
C      1  0.4710840000000  0.5230090000000  0.3896800000000 1.0
C      1  0.5711420000000  0.4722780000000  0.4784750000000 1.0
C      1  0.4823280000000  0.4891360000000  0.5853870000000 1.0
C      1  0.4384480000000  0.5048700000000  0.4995880000000 1.0
C      1  0.4342400000000  0.4631410000000  0.4713770000000 1.0
C      1  0.4472210000000  0.5390870000000  0.4568420000000 1.0
C      1  0.3982890000000  0.3814100000000  0.5604790000000 1.0
C      1  0.5261260000000  0.5780510000000  0.4458590000000 1.0
C      1  0.4413480000000  0.4213810000000  0.5049080000000 1.0
C      1  0.5313240000000  0.4907710000000  0.4878470000000 1.0
C      1  0.5210440000000  0.4728840000000  0.5068320000000 1.0
C      1  0.4826890000000  0.4968400000000  0.5560310000000 1.0
C      1  0.4859090000000  0.5091350000000  0.4946270000000 1.0
C      1  0.4667710000000  0.4112590000000  0.4964740000000 1.0
C      1  0.4630650000000  0.5648880000000  0.5350290000000 1.0
C      1  0.4817370000000  0.4561440000000  0.5242990000000 1.0
C      1  0.5853410000000  0.5100290000000  0.5106720000000 1.0
C      1  0.4947430000000  0.5296840000000  0.5120040000000 1.0
C      1  0.5562210000000  0.5399610000000  0.4354370000000 1.0
C      1  0.5352540000000  0.4874380000000  0.5486390000000 1.0
C      1  0.4437200000000  0.5104880000000  0.4517780000000 1.0
C      1  0.5579190000000  0.5255130000000  0.5667720000000 1.0
C      1  0.4643060000000  0.4703780000000  0.4352310000000 1.0
C      1  0.5373700000000  0.4720480000000  0.4417580000000 1.0
C      1  0.5625350000000  0.5527140000000  0.4932830000000 1.0
C      1  0.5917970000000  0.5128150000000  0.4623320000000 1.0
C      1  0.4908920000000  0.4677990000000  0.4453400000000 1.0
C      1  0.4639210000000  0.4967210000000  0.5089320000000 1.0
C      1  0.5123730000000  0.5296100000000  0.5341280000000 1.0
C      1  0.5474220000000  0.4843190000000  0.4653980000000 1.0
C      1  0.4303920000000  0.5305080000000  0.5098380000000 1.0
C      1  0.5601090000000  0.5000270000000  0.5542780000000 1.0
C      1  0.5784950000000  0.5278380000000  0.4443370000000 1.0
C      1  0.4402550000000  0.5536940000000  0.5206160000000 1.0
C      1  0.5137460000000  0.5562270000000  0.4816940000000 1.0
C      1  0.4916180000000  0.4610700000000  0.4728210000000 1.0
C      1  0.4770580000000  0.5101570000000  0.4129370000000 1.0
C      1  0.5347600000000  0.4620370000000  0.5316910000000 1.0
C      1  0.4770660000000  0.5570190000000  0.5851830000000 1.0
C      1  0.4318920000000  0.5566640000000  0.4412490000000 1.0
C      1  0.5873370000000  0.4959940000000  0.4851420000000 1.0
C      1  0.4677250000000  0.5505030000000  0.5593910000000 1.0
C      1  0.4859100000000  0.5112850000000  0.6030410000000 1.0
C      1  0.4654710000000  0.5222730000000  0.5561120000000 1.0
C      1  0.3847620000000  0.3686450000000  0.5787470000000 1.0
C      1  0.4773980000000  0.4183790000000  0.5552150000000 1.0
C      1  0.5273990000000  0.5977970000000  0.4270970000000 1.0
C      1  0.5540370000000  0.5492700000000  0.5516760000000 1.0
C      1  0.5809120000000  0.4965650000000  0.5352430000000 1.0
C      1  0.4707050000000  0.4811070000000  0.5323070000000 1.0
C      1  0.4492210000000  0.4510630000000  0.4494360000000 1.0
C      1  0.4183190000000  0.5726100000000  0.4250240000000 1.0
C      1  0.4120760000000  0.3943930000000  0.5419350000000 1.0
C      1  0.4050840000000  0.5881650000000  0.4088220000000 1.0
C      1  0.5395320000000  0.4320060000000  0.4704300000000 1.0
C      1  0.5572300000000  0.4464550000000  0.5176770000000 1.0
C      1  0.4881180000000  0.5542500000000  0.4958140000000 1.0
C      1  0.5327210000000  0.5906380000000  0.5007100000000 1.0
C      1  0.4833130000000  0.4158280000000  0.4733800000000 1.0
C      1  0.5412860000000  0.4436570000000  0.4436500000000 1.0
C      1  0.5201350000000  0.4408900000000  0.5478350000000 1.0
C      1  0.4649770000000  0.5508650000000  0.4763130000000 1.0
C      1  0.5600660000000  0.4460550000000  0.4889110000000 1.0
C      1  0.5292550000000  0.5488980000000  0.4393120000000 1.0
C      1  0.4922580000000  0.4375650000000  0.5428180000000 1.0
C      1  0.5796880000000  0.5382530000000  0.5119070000000 1.0
C      1  0.4336850000000  0.4930580000000  0.4734740000000 1.0
C      1  0.5039660000000  0.5076430000000  0.4235090000000 1.0
C      1  0.4968650000000  0.4600220000000  0.5002140000000 1.0
C      1  0.5603790000000  0.5817840000000  0.5015380000000 1.0
C      1  0.5468620000000  0.4134570000000  0.5858870000000 1.0
C      1  0.4779660000000  0.4637750000000  0.5942860000000 1.0
C      1  0.4310230000000  0.4452510000000  0.4932270000000 1.0
C      1  0.4262260000000  0.4074300000000  0.5237300000000 1.0
C      1  0.5771530000000  0.5561560000000  0.5359230000000 1.0
C      1  0.5338580000000  0.4262640000000  0.5672890000000 1.0
END
