TITL C-627113-6568-590 3399.45538581706 125000 -1152.40592573233 0 0 191 (C1) n - 1
REM
REM in /home/nfs/bkarasulu/CARBON/AIRSS/Generating-Clusters/LCBOP/Only-C1/SD-CG/FIRE-CG
REM
REM
REM
REM
REM
REM ./C.cell (11c1c37f851c82e70ff6c80c92926a4b)
REM AIRSS Version 0.9.1 bugfix July 2018 build 013d7b7c2542+ Fri, 06 Jul 2018 19:26:36 +0100
REM compiler GCC version 9.2.1 20190827 (Red Hat 9.2.1-1)
REM options -cpp -mtune=generic -march=x86-64 -g -O0 -fpre-include=/usr/include/finclude/math-vector-fortran.h
REM seed -1042277943 -1103270348 -14263025 -1706388746 -2117553407 447175503 1100909130 1337095863 779283963 2116273236 480462801 -1564249609 375298944 324932537 -783875213 815559706 -719931189 181715376 26627636 505378900 -984049866 1066054978 2004607455 -1347216914 -298188341 306521351 722757729 160662667 -1684152306 53430262 -249549668 -1200357778 882945999
REM
CELL 1.54180   50.00000   50.00000   50.00000   90.00000   90.00000   90.00000
LATT -1
SFAC C  
C      1  0.5489030000000  0.5358950000000  0.4750920000000 1.0
C      1  0.4573480000000  0.5128350000000  0.4412480000000 1.0
C      1  0.5271540000000  0.4678530000000  0.4369050000000 1.0
C      1  0.5573310000000  0.3855260000000  0.5042360000000 1.0
C      1  0.3895610000000  0.4850380000000  0.5401490000000 1.0
C      1  0.5519730000000  0.5200540000000  0.6029130000000 1.0
C      1  0.4990580000000  0.4109150000000  0.3587590000000 1.0
C      1  0.4295520000000  0.4659250000000  0.5674050000000 1.0
C      1  0.5054830000000  0.6217260000000  0.5577420000000 1.0
C      1  0.4607230000000  0.5150760000000  0.3857050000000 1.0
C      1  0.5168230000000  0.4301590000000  0.5439300000000 1.0
C      1  0.4273380000000  0.4076160000000  0.4451250000000 1.0
C      1  0.4136320000000  0.4857150000000  0.5557220000000 1.0
C      1  0.5950480000000  0.4755890000000  0.5670740000000 1.0
C      1  0.5637970000000  0.4067760000000  0.5207930000000 1.0
C      1  0.4658020000000  0.3683800000000  0.4898710000000 1.0
C      1  0.5833650000000  0.4749260000000  0.5180170000000 1.0
C      1  0.4768580000000  0.6000610000000  0.5886240000000 1.0
C      1  0.5502280000000  0.5616560000000  0.5708920000000 1.0
C      1  0.5117730000000  0.4958560000000  0.6130010000000 1.0
C      1  0.4260090000000  0.3978540000000  0.4919290000000 1.0
C      1  0.5435890000000  0.5271660000000  0.5340260000000 1.0
C      1  0.5263060000000  0.5972680000000  0.4342170000000 1.0
C      1  0.5404110000000  0.5370690000000  0.4263760000000 1.0
C      1  0.5745100000000  0.4748050000000  0.4409420000000 1.0
C      1  0.4770920000000  0.3939030000000  0.5552220000000 1.0
C      1  0.3750150000000  0.5093740000000  0.5431810000000 1.0
C      1  0.3793210000000  0.5340510000000  0.5533840000000 1.0
C      1  0.4524140000000  0.4365630000000  0.5158050000000 1.0
C      1  0.5242810000000  0.5216610000000  0.6144650000000 1.0
C      1  0.4867110000000  0.5482540000000  0.5438690000000 1.0
C      1  0.4942580000000  0.5201290000000  0.3786900000000 1.0
C      1  0.5492630000000  0.4713480000000  0.4556430000000 1.0
C      1  0.4761330000000  0.4373370000000  0.4764900000000 1.0
C      1  0.5050930000000  0.5435500000000  0.6137320000000 1.0
C      1  0.4160690000000  0.4979920000000  0.4197430000000 1.0
C      1  0.4015940000000  0.5088500000000  0.4461200000000 1.0
C      1  0.5285480000000  0.5124240000000  0.4794290000000 1.0
C      1  0.4144010000000  0.5196160000000  0.4697870000000 1.0
C      1  0.5047780000000  0.5470020000000  0.3769220000000 1.0
C      1  0.5765200000000  0.4677730000000  0.5873710000000 1.0
C      1  0.5691190000000  0.4385520000000  0.5842670000000 1.0
C      1  0.5434400000000  0.4640240000000  0.4097220000000 1.0
C      1  0.4672540000000  0.5387470000000  0.4358580000000 1.0
C      1  0.3928630000000  0.4153940000000  0.5587770000000 1.0
C      1  0.5002330000000  0.4101350000000  0.5066940000000 1.0
C      1  0.5102400000000  0.4747680000000  0.6315820000000 1.0
C      1  0.4777220000000  0.5560270000000  0.4576080000000 1.0
C      1  0.5143920000000  0.4770440000000  0.5111980000000 1.0
C      1  0.6077860000000  0.5338770000000  0.5626030000000 1.0
C      1  0.4740730000000  0.6997870000000  0.5245520000000 1.0
C      1  0.5275620000000  0.4650620000000  0.5780180000000 1.0
C      1  0.5447830000000  0.4645480000000  0.5540700000000 1.0
C      1  0.5074440000000  0.6121810000000  0.4494300000000 1.0
C      1  0.5255180000000  0.4449300000000  0.5984260000000 1.0
C      1  0.5069550000000  0.4899740000000  0.4403080000000 1.0
C      1  0.4985330000000  0.5387220000000  0.5194310000000 1.0
C      1  0.4979690000000  0.4491160000000  0.5502530000000 1.0
C      1  0.4722740000000  0.3844510000000  0.4338560000000 1.0
C      1  0.4114840000000  0.5698190000000  0.5767670000000 1.0
C      1  0.4935530000000  0.4768670000000  0.3944600000000 1.0
C      1  0.5363560000000  0.5794250000000  0.5526520000000 1.0
C      1  0.5153030000000  0.4526510000000  0.4961030000000 1.0
C      1  0.4751590000000  0.4236500000000  0.5015570000000 1.0
C      1  0.4894680000000  0.5291730000000  0.5647270000000 1.0
C      1  0.5290550000000  0.4090660000000  0.5600300000000 1.0
C      1  0.4895170000000  0.5394500000000  0.4181170000000 1.0
C      1  0.4510160000000  0.4655080000000  0.4473750000000 1.0
C      1  0.5403940000000  0.4880600000000  0.3916830000000 1.0
C      1  0.3932760000000  0.5537970000000  0.5651880000000 1.0
C      1  0.4435300000000  0.5209440000000  0.5725880000000 1.0
C      1  0.4844410000000  0.4561960000000  0.3783190000000 1.0
C      1  0.4542010000000  0.4550170000000  0.4731890000000 1.0
C      1  0.4479210000000  0.3955270000000  0.4329960000000 1.0
C      1  0.5066340000000  0.3887010000000  0.5595570000000 1.0
C      1  0.5449990000000  0.5837810000000  0.4519010000000 1.0
C      1  0.5350230000000  0.5132940000000  0.5546560000000 1.0
C      1  0.4524630000000  0.6347820000000  0.4596780000000 1.0
C      1  0.4760900000000  0.5406130000000  0.6083610000000 1.0
C      1  0.5115620000000  0.4881810000000  0.5851380000000 1.0
C      1  0.4704600000000  0.5706830000000  0.5346810000000 1.0
C      1  0.4553940000000  0.3929310000000  0.5336760000000 1.0
C      1  0.4818760000000  0.5123010000000  0.4805790000000 1.0
C      1  0.5188740000000  0.5974970000000  0.5659690000000 1.0
C      1  0.5139410000000  0.5703990000000  0.3877960000000 1.0
C      1  0.5366670000000  0.3869240000000  0.4857490000000 1.0
C      1  0.3865480000000  0.4663750000000  0.5185950000000 1.0
C      1  0.5257780000000  0.5826620000000  0.4982290000000 1.0
C      1  0.4750650000000  0.6780010000000  0.5102710000000 1.0
C      1  0.5636770000000  0.5422260000000  0.5873280000000 1.0
C      1  0.5776980000000  0.4281550000000  0.4388070000000 1.0
C      1  0.5221270000000  0.4295120000000  0.5146660000000 1.0
C      1  0.5134020000000  0.5700440000000  0.6083130000000 1.0
C      1  0.5518380000000  0.4319310000000  0.5165470000000 1.0
C      1  0.3843240000000  0.4857710000000  0.4541840000000 1.0
C      1  0.5105240000000  0.5098590000000  0.5671880000000 1.0
C      1  0.4610070000000  0.4862090000000  0.4306150000000 1.0
C      1  0.5009300000000  0.5977250000000  0.4972100000000 1.0
C      1  0.5915490000000  0.5413910000000  0.5825250000000 1.0
C      1  0.6115710000000  0.4246380000000  0.5101040000000 1.0
C      1  0.4008420000000  0.4409490000000  0.4711590000000 1.0
C      1  0.6058760000000  0.5092950000000  0.4231450000000 1.0
C      1  0.4706450000000  0.4163350000000  0.5731030000000 1.0
C      1  0.4474000000000  0.3826870000000  0.5062860000000 1.0
C      1  0.5634060000000  0.5007210000000  0.5072810000000 1.0
C      1  0.5326240000000  0.6527440000000  0.5235430000000 1.0
C      1  0.4360780000000  0.5112290000000  0.5231230000000 1.0
C      1  0.5003120000000  0.4286000000000  0.4251010000000 1.0
C      1  0.5213620000000  0.5879370000000  0.4074090000000 1.0
C      1  0.5052950000000  0.5052280000000  0.4653970000000 1.0
C      1  0.5174710000000  0.6408910000000  0.5417700000000 1.0
C      1  0.5947610000000  0.5394220000000  0.4968410000000 1.0
C      1  0.4948660000000  0.6150260000000  0.4748890000000 1.0
C      1  0.5582710000000  0.4508280000000  0.4742930000000 1.0
C      1  0.6102320000000  0.4180890000000  0.4814540000000 1.0
C      1  0.4296180000000  0.5092160000000  0.5507410000000 1.0
C      1  0.4222900000000  0.5430880000000  0.4852960000000 1.0
C      1  0.5023010000000  0.4456160000000  0.4713940000000 1.0
C      1  0.5705430000000  0.4530720000000  0.4211060000000 1.0
C      1  0.4156180000000  0.4197300000000  0.5468120000000 1.0
C      1  0.4439490000000  0.4606360000000  0.5010170000000 1.0
C      1  0.6092200000000  0.4523100000000  0.5158730000000 1.0
C      1  0.3970570000000  0.4599830000000  0.4483920000000 1.0
C      1  0.5402260000000  0.3996340000000  0.4603500000000 1.0
C      1  0.4597540000000  0.5630220000000  0.6145790000000 1.0
C      1  0.3911500000000  0.4508500000000  0.4967520000000 1.0
C      1  0.4578100000000  0.5070960000000  0.4685920000000 1.0
C      1  0.5108690000000  0.4444080000000  0.4446110000000 1.0
C      1  0.5140010000000  0.5448260000000  0.4311960000000 1.0
C      1  0.5329730000000  0.5651250000000  0.4735880000000 1.0
C      1  0.4333830000000  0.5006990000000  0.4795630000000 1.0
C      1  0.5830190000000  0.4650210000000  0.4836480000000 1.0
C      1  0.5582910000000  0.5334160000000  0.4462850000000 1.0
C      1  0.5602790000000  0.4564380000000  0.5302450000000 1.0
C      1  0.5275900000000  0.3811780000000  0.3886590000000 1.0
C      1  0.4150990000000  0.6139470000000  0.5951380000000 1.0
C      1  0.5650470000000  0.6647340000000  0.4529760000000 1.0
C      1  0.5349610000000  0.4954730000000  0.5023540000000 1.0
C      1  0.4959560000000  0.4738730000000  0.5340200000000 1.0
C      1  0.5561890000000  0.4241360000000  0.4595540000000 1.0
C      1  0.5069790000000  0.5565490000000  0.4577550000000 1.0
C      1  0.4403170000000  0.4185530000000  0.5341280000000 1.0
C      1  0.4750500000000  0.4433830000000  0.5668410000000 1.0
C      1  0.4572000000000  0.4651810000000  0.5627740000000 1.0
C      1  0.5124520000000  0.4963370000000  0.3842050000000 1.0
C      1  0.5644260000000  0.5036810000000  0.3906770000000 1.0
C      1  0.4452910000000  0.5613050000000  0.5260220000000 1.0
C      1  0.5713100000000  0.5259230000000  0.4943500000000 1.0
C      1  0.5172160000000  0.4496060000000  0.6239170000000 1.0
C      1  0.5150240000000  0.3915650000000  0.3676340000000 1.0
C      1  0.5879240000000  0.5099260000000  0.4027620000000 1.0
C      1  0.4319120000000  0.6164870000000  0.4644480000000 1.0
C      1  0.5329700000000  0.5721880000000  0.5243370000000 1.0
C      1  0.4426660000000  0.5373560000000  0.5088670000000 1.0
C      1  0.5308940000000  0.3807810000000  0.4150270000000 1.0
C      1  0.6080810000000  0.5148480000000  0.5437200000000 1.0
C      1  0.4270270000000  0.5898310000000  0.5896120000000 1.0
C      1  0.4352890000000  0.4879060000000  0.5048130000000 1.0
C      1  0.4154090000000  0.5690590000000  0.4783100000000 1.0
C      1  0.4791270000000  0.5297750000000  0.5017280000000 1.0
C      1  0.5455930000000  0.6597430000000  0.5015140000000 1.0
C      1  0.4112510000000  0.4677220000000  0.4232670000000 1.0
C      1  0.5963030000000  0.4895190000000  0.5424320000000 1.0
C      1  0.5224290000000  0.3870870000000  0.4409220000000 1.0
C      1  0.5559840000000  0.6631440000000  0.4773680000000 1.0
C      1  0.4794460000000  0.6228250000000  0.5706100000000 1.0
C      1  0.5789930000000  0.4063390000000  0.5450860000000 1.0
C      1  0.5599820000000  0.4150080000000  0.5670310000000 1.0
C      1  0.5950490000000  0.4795620000000  0.4608210000000 1.0
C      1  0.6059350000000  0.4088780000000  0.5342130000000 1.0
C      1  0.4512900000000  0.6519900000000  0.4384470000000 1.0
C      1  0.5094680000000  0.3865770000000  0.4940490000000 1.0
C      1  0.4707580000000  0.4835010000000  0.5439650000000 1.0
C      1  0.5645630000000  0.4920580000000  0.6006580000000 1.0
C      1  0.4952860000000  0.3793950000000  0.4493660000000 1.0
C      1  0.4823930000000  0.5909800000000  0.5181270000000 1.0
C      1  0.4191290000000  0.5942190000000  0.4709190000000 1.0
C      1  0.4905770000000  0.3738380000000  0.4772850000000 1.0
C      1  0.4866300000000  0.4831560000000  0.4208900000000 1.0
C      1  0.4361610000000  0.5086650000000  0.3989010000000 1.0
C      1  0.4748350000000  0.6351400000000  0.4772910000000 1.0
C      1  0.4608610000000  0.6422620000000  0.5666450000000 1.0
C      1  0.6115710000000  0.4987850000000  0.4478450000000 1.0
C      1  0.4540950000000  0.5856250000000  0.5981960000000 1.0
C      1  0.4685590000000  0.5280370000000  0.5837070000000 1.0
C      1  0.5040100000000  0.5885410000000  0.5895410000000 1.0
C      1  0.4163970000000  0.4153540000000  0.4702820000000 1.0
C      1  0.4871190000000  0.4341380000000  0.3637780000000 1.0
C      1  0.6019110000000  0.4212800000000  0.4550290000000 1.0
C      1  0.4769300000000  0.6557830000000  0.4959480000000 1.0
C      1  0.5263780000000  0.5444550000000  0.5211300000000 1.0
END
