TITL C-627107-135-1991 -26.344312821932 125000 -414.563293001305 0 0 69 (C1) n - 1
REM
REM in /home/nfs/bkarasulu/CARBON/AIRSS/Generating-Clusters/LCBOP/Only-C1/SD-CG/FIRE-CG
REM
REM
REM
REM
REM
REM ./C.cell (11c1c37f851c82e70ff6c80c92926a4b)
REM AIRSS Version 0.9.1 bugfix July 2018 build 013d7b7c2542+ Fri, 06 Jul 2018 19:26:36 +0100
REM compiler GCC version 9.2.1 20190827 (Red Hat 9.2.1-1)
REM options -cpp -mtune=generic -march=x86-64 -g -O0 -fpre-include=/usr/include/finclude/math-vector-fortran.h
REM seed 1638373337 2110079928 -897648010 255720013 1336773677 -392938045 116000935 -234502969 1548466127 -239435657 -680231295 275661002 -1838730085 132544037 -1796839119 1767384646 737986933 613574612 -425473221 -182296234 1516785534 826752732 643618120 -327068489 -2028259439 -381923815 889215497 -2015419275 -776872856 -341598976 -453532954 -1130834750 -641773619
REM
CELL 1.54180   50.00000   50.00000   50.00000   90.00000   90.00000   90.00000
LATT -1
SFAC C  
C      1  0.4997870000000  0.4641020000000  0.5627370000000 1.0
C      1  0.4574710000000  0.5141470000000  0.4780770000000 1.0
C      1  0.4193540000000  0.4973300000000  0.5393190000000 1.0
C      1  0.4998980000000  0.5259840000000  0.4266350000000 1.0
C      1  0.4332450000000  0.5947410000000  0.5435110000000 1.0
C      1  0.5222790000000  0.5597240000000  0.4627180000000 1.0
C      1  0.5335720000000  0.4461350000000  0.4221160000000 1.0
C      1  0.4527540000000  0.4835160000000  0.5725270000000 1.0
C      1  0.4330910000000  0.5474900000000  0.5863330000000 1.0
C      1  0.5862460000000  0.5203110000000  0.5108400000000 1.0
C      1  0.5130950000000  0.4618150000000  0.4128280000000 1.0
C      1  0.4634470000000  0.4586800000000  0.5583390000000 1.0
C      1  0.4400630000000  0.4843890000000  0.4468000000000 1.0
C      1  0.5153590000000  0.4974660000000  0.5054180000000 1.0
C      1  0.4717350000000  0.5853550000000  0.5147620000000 1.0
C      1  0.5104740000000  0.4681620000000  0.4684890000000 1.0
C      1  0.5665570000000  0.4609380000000  0.4879710000000 1.0
C      1  0.4159870000000  0.6113100000000  0.5538470000000 1.0
C      1  0.4685240000000  0.4427230000000  0.4610410000000 1.0
C      1  0.5267170000000  0.4946060000000  0.5316840000000 1.0
C      1  0.5468450000000  0.4937380000000  0.4375350000000 1.0
C      1  0.5443010000000  0.5635780000000  0.5451910000000 1.0
C      1  0.5214060000000  0.5219610000000  0.4085340000000 1.0
C      1  0.5509130000000  0.4332640000000  0.4411700000000 1.0
C      1  0.5802010000000  0.5140290000000  0.4837640000000 1.0
C      1  0.5621840000000  0.4591370000000  0.5170130000000 1.0
C      1  0.4395720000000  0.5340930000000  0.5626820000000 1.0
C      1  0.5038630000000  0.4742100000000  0.4944520000000 1.0
C      1  0.4753340000000  0.5269780000000  0.4963230000000 1.0
C      1  0.5778290000000  0.4860140000000  0.4791330000000 1.0
C      1  0.5689080000000  0.5342430000000  0.4676430000000 1.0
C      1  0.4339140000000  0.4729850000000  0.4728940000000 1.0
C      1  0.5457900000000  0.5153100000000  0.5366370000000 1.0
C      1  0.5768880000000  0.4786300000000  0.5323460000000 1.0
C      1  0.4205320000000  0.4989520000000  0.5127160000000 1.0
C      1  0.5196690000000  0.5451050000000  0.5071760000000 1.0
C      1  0.5717670000000  0.3855040000000  0.4265120000000 1.0
C      1  0.4981080000000  0.4789160000000  0.5869470000000 1.0
C      1  0.4492280000000  0.4498890000000  0.4810590000000 1.0
C      1  0.4515170000000  0.5765700000000  0.5329040000000 1.0
C      1  0.4782450000000  0.5118810000000  0.5390610000000 1.0
C      1  0.5728650000000  0.5069230000000  0.5319280000000 1.0
C      1  0.4895090000000  0.4589140000000  0.4515220000000 1.0
C      1  0.4917440000000  0.4749690000000  0.4271810000000 1.0
C      1  0.4777610000000  0.4872760000000  0.5294020000000 1.0
C      1  0.4358860000000  0.4969110000000  0.4896690000000 1.0
C      1  0.4359890000000  0.5047360000000  0.5609850000000 1.0
C      1  0.4502640000000  0.5487700000000  0.5394800000000 1.0
C      1  0.4815450000000  0.4678710000000  0.5096800000000 1.0
C      1  0.5043380000000  0.5225110000000  0.4986350000000 1.0
C      1  0.4533740000000  0.4444200000000  0.5356810000000 1.0
C      1  0.5140710000000  0.5669110000000  0.4895300000000 1.0
C      1  0.4667910000000  0.5324340000000  0.5236630000000 1.0
C      1  0.5037550000000  0.5479820000000  0.4444140000000 1.0
C      1  0.4597510000000  0.4496240000000  0.5078740000000 1.0
C      1  0.5583370000000  0.4430480000000  0.4672100000000 1.0
C      1  0.5393350000000  0.4483800000000  0.5315340000000 1.0
C      1  0.5617230000000  0.4085010000000  0.4335430000000 1.0
C      1  0.4831460000000  0.5030550000000  0.4320030000000 1.0
C      1  0.4274100000000  0.5600100000000  0.6084700000000 1.0
C      1  0.5495130000000  0.5514350000000  0.4605330000000 1.0
C      1  0.5220940000000  0.4683190000000  0.5440320000000 1.0
C      1  0.4931480000000  0.5837070000000  0.4984540000000 1.0
C      1  0.5322330000000  0.4820670000000  0.4567580000000 1.0
C      1  0.5369020000000  0.5421010000000  0.5299600000000 1.0
C      1  0.4603750000000  0.5055190000000  0.4493510000000 1.0
C      1  0.4732080000000  0.4894980000000  0.5923420000000 1.0
C      1  0.5343750000000  0.4215620000000  0.5331200000000 1.0
C      1  0.5438880000000  0.5086360000000  0.4153590000000 1.0
END
