TITL C-627108-131-275 250154.705254246 125000 -891.205750110434 0 0 150 (C1) n - 1
REM
REM in /home/nfs/bkarasulu/CARBON/AIRSS/Generating-Clusters/LCBOP/Only-C1/SD-CG/FIRE-CG
REM
REM
REM
REM
REM
REM ./C.cell (11c1c37f851c82e70ff6c80c92926a4b)
REM AIRSS Version 0.9.1 bugfix July 2018 build 013d7b7c2542+ Fri, 06 Jul 2018 19:26:36 +0100
REM compiler GCC version 9.2.1 20190827 (Red Hat 9.2.1-1)
REM options -cpp -mtune=generic -march=x86-64 -g -O0 -fpre-include=/usr/include/finclude/math-vector-fortran.h
REM seed -164146903 821100750 -1186443218 1260920096 209207886 1764313901 -1592673655 -2001618698 -1678090634 -1135585468 714585900 -1095368393 -177125387 2061015456 -166490559 1382788356 1757744476 -647317697 -477935206 -2134163675 2108088029 -183630063 1064929121 1989745570 -2075829785 -1597983587 1498865899 -54843160 1344350158 -1908385501 1618477300 -1168982626 292061778
REM
CELL 1.54180   50.00000   50.00000   50.00000   90.00000   90.00000   90.00000
LATT -1
SFAC C  
C      1  0.5963250000000  0.4469720000000  0.4612880000000 1.0
C      1  0.5258360000000  0.4159950000000  0.5501920000000 1.0
C      1  0.4358090000000  0.5959980000000  0.4857570000000 1.0
C      1  0.5111700000000  0.5226750000000  0.4030810000000 1.0
C      1  0.5201080000000  0.6080460000000  0.4695330000000 1.0
C      1  0.4266850000000  0.4827830000000  0.5261170000000 1.0
C      1  0.5091180000000  0.4308470000000  0.4784070000000 1.0
C      1  0.4293440000000  0.4728730000000  0.6002990000000 1.0
C      1  0.5419400000000  0.4583160000000  0.5411520000000 1.0
C      1  0.4563140000000  0.5286330000000  0.4041890000000 1.0
C      1  0.5123180000000  0.5243650000000  0.5109210000000 1.0
C      1  0.4875910000000  0.4793380000000  0.4904170000000 1.0
C      1  0.4460640000000  0.5798530000000  0.5756060000000 1.0
C      1  0.4687540000000  0.4851860000000  0.3871380000000 1.0
C      1  0.4335140000000  0.4993530000000  0.6035480000000 1.0
C      1  0.5004530000000  0.5745800000000  0.4975610000000 1.0
C      1  0.4081390000000  0.5263630000000  0.5543300000000 1.0
C      1  0.5229090000000  0.5915420000000  0.4445960000000 1.0
C      1  0.5204790000000  0.6160360000000  0.4970170000000 1.0
C      1  0.4163950000000  0.5427080000000  0.4736350000000 1.0
C      1  0.5916220000000  0.5406380000000  0.4103110000000 1.0
C      1  0.6069720000000  0.5294020000000  0.5187260000000 1.0
C      1  0.4633070000000  0.4396060000000  0.4686960000000 1.0
C      1  0.5863420000000  0.4617500000000  0.4411150000000 1.0
C      1  0.4679540000000  0.5892770000000  0.5353140000000 1.0
C      1  0.5021590000000  0.4155500000000  0.5334550000000 1.0
C      1  0.5582230000000  0.5242320000000  0.5736460000000 1.0
C      1  0.5827220000000  0.4540570000000  0.5064030000000 1.0
C      1  0.5511230000000  0.4017870000000  0.4512890000000 1.0
C      1  0.3833710000000  0.4781610000000  0.5487150000000 1.0
C      1  0.4696350000000  0.4193580000000  0.4226380000000 1.0
C      1  0.4913470000000  0.3617470000000  0.4537550000000 1.0
C      1  0.4079130000000  0.5438510000000  0.5303810000000 1.0
C      1  0.3829240000000  0.4569960000000  0.5312520000000 1.0
C      1  0.4515560000000  0.4760170000000  0.5416200000000 1.0
C      1  0.4947690000000  0.5064880000000  0.4494080000000 1.0
C      1  0.4520280000000  0.5742950000000  0.4899320000000 1.0
C      1  0.6059900000000  0.4997660000000  0.5205990000000 1.0
C      1  0.5335030000000  0.4779210000000  0.6037620000000 1.0
C      1  0.4295200000000  0.4051150000000  0.5229450000000 1.0
C      1  0.5914970000000  0.4363260000000  0.4873010000000 1.0
C      1  0.3819890000000  0.4897430000000  0.5006140000000 1.0
C      1  0.5618670000000  0.4963510000000  0.5617860000000 1.0
C      1  0.5646500000000  0.4402330000000  0.5443770000000 1.0
C      1  0.5064260000000  0.5568990000000  0.5403730000000 1.0
C      1  0.4514990000000  0.5498120000000  0.4252170000000 1.0
C      1  0.5890960000000  0.4849580000000  0.5420730000000 1.0
C      1  0.4741740000000  0.5708740000000  0.4274200000000 1.0
C      1  0.4361180000000  0.5257120000000  0.5630180000000 1.0
C      1  0.4708620000000  0.4407380000000  0.4405380000000 1.0
C      1  0.4413360000000  0.4840580000000  0.4816390000000 1.0
C      1  0.4305920000000  0.5470740000000  0.4489420000000 1.0
C      1  0.5342360000000  0.4616710000000  0.5140330000000 1.0
C      1  0.4474320000000  0.5197480000000  0.5893250000000 1.0
C      1  0.4452860000000  0.5010050000000  0.3978810000000 1.0
C      1  0.4830690000000  0.4289070000000  0.4875240000000 1.0
C      1  0.5153320000000  0.5565750000000  0.5868240000000 1.0
C      1  0.5268350000000  0.4301680000000  0.5768660000000 1.0
C      1  0.4534430000000  0.5218280000000  0.5403050000000 1.0
C      1  0.5107330000000  0.3803770000000  0.4498970000000 1.0
C      1  0.5231740000000  0.5017470000000  0.5009420000000 1.0
C      1  0.5127440000000  0.3986370000000  0.4272190000000 1.0
C      1  0.5526950000000  0.4146780000000  0.5358200000000 1.0
C      1  0.5477010000000  0.5791940000000  0.4393310000000 1.0
C      1  0.5554940000000  0.5277890000000  0.5289560000000 1.0
C      1  0.4866170000000  0.4677320000000  0.5757650000000 1.0
C      1  0.3946750000000  0.4439700000000  0.4813620000000 1.0
C      1  0.4864300000000  0.5522680000000  0.5937430000000 1.0
C      1  0.4757870000000  0.4663070000000  0.4293790000000 1.0
C      1  0.5294830000000  0.4948420000000  0.4737060000000 1.0
C      1  0.4553720000000  0.5265610000000  0.5115990000000 1.0
C      1  0.5798470000000  0.4105530000000  0.4894110000000 1.0
C      1  0.4687120000000  0.4989710000000  0.5435840000000 1.0
C      1  0.5743910000000  0.5895760000000  0.5340080000000 1.0
C      1  0.5309720000000  0.5707050000000  0.5020510000000 1.0
C      1  0.5764810000000  0.4000580000000  0.4629660000000 1.0
C      1  0.5719320000000  0.5342290000000  0.4278110000000 1.0
C      1  0.5745240000000  0.5909270000000  0.5065680000000 1.0
C      1  0.5575430000000  0.5697180000000  0.5458890000000 1.0
C      1  0.4057440000000  0.4163500000000  0.5191190000000 1.0
C      1  0.5999690000000  0.5373530000000  0.4894660000000 1.0
C      1  0.4208300000000  0.4998700000000  0.4700780000000 1.0
C      1  0.5370150000000  0.4804220000000  0.5576700000000 1.0
C      1  0.5457860000000  0.5502470000000  0.4314550000000 1.0
C      1  0.5607320000000  0.5233280000000  0.5025850000000 1.0
C      1  0.5030790000000  0.5712390000000  0.4215350000000 1.0
C      1  0.6098180000000  0.4923800000000  0.4912350000000 1.0
C      1  0.4290610000000  0.5632800000000  0.5302530000000 1.0
C      1  0.4814920000000  0.5442580000000  0.4656440000000 1.0
C      1  0.5381360000000  0.3871760000000  0.4956500000000 1.0
C      1  0.4334070000000  0.4858630000000  0.4202960000000 1.0
C      1  0.4752220000000  0.5260600000000  0.5977920000000 1.0
C      1  0.5042560000000  0.5289960000000  0.5373860000000 1.0
C      1  0.5045770000000  0.5327090000000  0.4564420000000 1.0
C      1  0.4806670000000  0.4173790000000  0.5141360000000 1.0
C      1  0.4902590000000  0.4763500000000  0.4058000000000 1.0
C      1  0.5167880000000  0.4917850000000  0.4084280000000 1.0
C      1  0.5371540000000  0.4443720000000  0.4226690000000 1.0
C      1  0.5732100000000  0.5094070000000  0.4471500000000 1.0
C      1  0.5867010000000  0.4561960000000  0.5348260000000 1.0
C      1  0.4021030000000  0.4957840000000  0.4508670000000 1.0
C      1  0.4075290000000  0.5290800000000  0.5048750000000 1.0
C      1  0.4562890000000  0.4861580000000  0.4376250000000 1.0
C      1  0.5324880000000  0.5666330000000  0.5320420000000 1.0
C      1  0.5200290000000  0.6042340000000  0.5523480000000 1.0
C      1  0.4668730000000  0.5726630000000  0.5912450000000 1.0
C      1  0.5976880000000  0.5420020000000  0.5428290000000 1.0
C      1  0.5584860000000  0.4030130000000  0.5091190000000 1.0
C      1  0.5462730000000  0.5122230000000  0.4605090000000 1.0
C      1  0.4838470000000  0.4783370000000  0.6024670000000 1.0
C      1  0.4402940000000  0.4559790000000  0.4738350000000 1.0
C      1  0.5320050000000  0.4513280000000  0.5945250000000 1.0
C      1  0.5362220000000  0.4164560000000  0.4305100000000 1.0
C      1  0.5083020000000  0.4833860000000  0.5618210000000 1.0
C      1  0.5337050000000  0.5305270000000  0.5895240000000 1.0
C      1  0.4437550000000  0.5805890000000  0.5475500000000 1.0
C      1  0.5322060000000  0.3860610000000  0.4678340000000 1.0
C      1  0.5324140000000  0.5357660000000  0.4540610000000 1.0
C      1  0.5657750000000  0.4963530000000  0.4965950000000 1.0
C      1  0.5104110000000  0.4768620000000  0.5088550000000 1.0
C      1  0.4930690000000  0.5051120000000  0.6062170000000 1.0
C      1  0.4952930000000  0.5051810000000  0.5493440000000 1.0
C      1  0.4729090000000  0.5871330000000  0.4513080000000 1.0
C      1  0.4603240000000  0.4596810000000  0.5641190000000 1.0
C      1  0.5593100000000  0.4691960000000  0.4998330000000 1.0
C      1  0.4838070000000  0.5286150000000  0.3944060000000 1.0
C      1  0.5204170000000  0.6145900000000  0.5255950000000 1.0
C      1  0.5722040000000  0.5461390000000  0.4894500000000 1.0
C      1  0.5216170000000  0.5491450000000  0.4119510000000 1.0
C      1  0.5221420000000  0.5060770000000  0.6033440000000 1.0
C      1  0.4890450000000  0.5742110000000  0.5250600000000 1.0
C      1  0.4559670000000  0.4061660000000  0.5211850000000 1.0
C      1  0.3920460000000  0.4393180000000  0.5100800000000 1.0
C      1  0.4057240000000  0.5001480000000  0.5105980000000 1.0
C      1  0.5686580000000  0.5426510000000  0.5518350000000 1.0
C      1  0.4782430000000  0.5716690000000  0.4767250000000 1.0
C      1  0.5999630000000  0.5125300000000  0.4715380000000 1.0
C      1  0.4400650000000  0.4545210000000  0.5834820000000 1.0
C      1  0.5683460000000  0.4824360000000  0.4324560000000 1.0
C      1  0.5201940000000  0.5844740000000  0.5733320000000 1.0
C      1  0.5588430000000  0.5711960000000  0.4925370000000 1.0
C      1  0.4676540000000  0.5098960000000  0.4483080000000 1.0
C      1  0.4895230000000  0.4042950000000  0.4129780000000 1.0
C      1  0.5413930000000  0.4742270000000  0.4201120000000 1.0
C      1  0.4461660000000  0.5538210000000  0.5079880000000 1.0
C      1  0.3912150000000  0.5031390000000  0.5569110000000 1.0
C      1  0.4104480000000  0.4741000000000  0.4346840000000 1.0
C      1  0.5035140000000  0.4853050000000  0.4651010000000 1.0
C      1  0.4145680000000  0.4504650000000  0.4614720000000 1.0
C      1  0.4634470000000  0.4961150000000  0.4945850000000 1.0
END
