TITL C-627111-6168-453 0.00062348283303087 125000 -542.259276850684 0 0 88 (C1) n - 1
REM
REM in /home/nfs/bkarasulu/CARBON/AIRSS/Generating-Clusters/LCBOP/Only-C1/SD-CG/FIRE-CG
REM
REM
REM
REM
REM
REM ./C.cell (11c1c37f851c82e70ff6c80c92926a4b)
REM AIRSS Version 0.9.1 bugfix July 2018 build 013d7b7c2542+ Fri, 06 Jul 2018 19:26:36 +0100
REM compiler GCC version 9.2.1 20190827 (Red Hat 9.2.1-1)
REM options -cpp -mtune=generic -march=x86-64 -g -O0 -fpre-include=/usr/include/finclude/math-vector-fortran.h
REM seed -676273053 -2057107356 1620676792 -1783778992 -1129666672 1491693124 2017316739 441875700 -1702298846 -461654939 363547582 -2074420287 -779333885 1006855771 -1217996118 1136145419 187960775 -792920812 -836927307 -342469307 539951521 -233174165 -916712639 1106298669 631810268 -1448358302 -222107108 -614791018 -1777672561 -236656057 -354431912 961960510 -1439842533
REM
CELL 1.54180   50.00000   50.00000   50.00000   90.00000   90.00000   90.00000
LATT -1
SFAC C  
C      1  0.4726380000000  0.5388110000000  0.4944900000000 1.0
C      1  0.5480700000000  0.4874170000000  0.5496240000000 1.0
C      1  0.4357530000000  0.6223610000000  0.5146700000000 1.0
C      1  0.5568180000000  0.5030560000000  0.4453770000000 1.0
C      1  0.4123780000000  0.4942620000000  0.4601970000000 1.0
C      1  0.5064060000000  0.5734230000000  0.5037080000000 1.0
C      1  0.5282250000000  0.5427650000000  0.4656700000000 1.0
C      1  0.5015520000000  0.4240310000000  0.4495060000000 1.0
C      1  0.4725700000000  0.4920160000000  0.4079430000000 1.0
C      1  0.5201910000000  0.4960190000000  0.4129670000000 1.0
C      1  0.5261920000000  0.3882720000000  0.4951590000000 1.0
C      1  0.4191920000000  0.4739850000000  0.5020800000000 1.0
C      1  0.5316460000000  0.4846450000000  0.5047610000000 1.0
C      1  0.5028940000000  0.5403070000000  0.4528010000000 1.0
C      1  0.4793640000000  0.4330170000000  0.5418510000000 1.0
C      1  0.4119730000000  0.4992110000000  0.4887870000000 1.0
C      1  0.4942010000000  0.5361460000000  0.4252610000000 1.0
C      1  0.5011940000000  0.3926850000000  0.4862590000000 1.0
C      1  0.5478930000000  0.5178390000000  0.5898510000000 1.0
C      1  0.5002520000000  0.4515970000000  0.5833740000000 1.0
C      1  0.4482340000000  0.6046830000000  0.4993980000000 1.0
C      1  0.4197280000000  0.4659900000000  0.4548270000000 1.0
C      1  0.5253040000000  0.5355410000000  0.5918750000000 1.0
C      1  0.5499900000000  0.4032240000000  0.4982080000000 1.0
C      1  0.4805820000000  0.4057100000000  0.5433400000000 1.0
C      1  0.5955370000000  0.4888930000000  0.5007850000000 1.0
C      1  0.4361810000000  0.4780990000000  0.5245240000000 1.0
C      1  0.4863170000000  0.5329060000000  0.5652590000000 1.0
C      1  0.4244910000000  0.4541820000000  0.4810880000000 1.0
C      1  0.5410810000000  0.5165660000000  0.4653780000000 1.0
C      1  0.5261270000000  0.4971360000000  0.4802790000000 1.0
C      1  0.5285070000000  0.5600720000000  0.4894840000000 1.0
C      1  0.5061500000000  0.4738580000000  0.5979760000000 1.0
C      1  0.4987670000000  0.5225660000000  0.5890300000000 1.0
C      1  0.4790900000000  0.4466030000000  0.5163810000000 1.0
C      1  0.5515440000000  0.5579080000000  0.5059690000000 1.0
C      1  0.5256720000000  0.5279500000000  0.5374420000000 1.0
C      1  0.4621810000000  0.5857580000000  0.4844160000000 1.0
C      1  0.4893250000000  0.4968030000000  0.5965460000000 1.0
C      1  0.5989720000000  0.4937480000000  0.4731170000000 1.0
C      1  0.5405710000000  0.4848270000000  0.4284810000000 1.0
C      1  0.4263960000000  0.5217140000000  0.4992380000000 1.0
C      1  0.5091010000000  0.4861180000000  0.5232920000000 1.0
C      1  0.5789220000000  0.4865960000000  0.4547840000000 1.0
C      1  0.4111990000000  0.6574010000000  0.5452240000000 1.0
C      1  0.5578600000000  0.4975840000000  0.5743180000000 1.0
C      1  0.4564600000000  0.4675390000000  0.5702480000000 1.0
C      1  0.5685710000000  0.4491850000000  0.4848170000000 1.0
C      1  0.4834350000000  0.4759700000000  0.5180730000000 1.0
C      1  0.4233740000000  0.6400260000000  0.5300730000000 1.0
C      1  0.4790340000000  0.5666860000000  0.4974750000000 1.0
C      1  0.4439960000000  0.4345360000000  0.4846930000000 1.0
C      1  0.4628340000000  0.4888660000000  0.5882730000000 1.0
C      1  0.5262170000000  0.5633380000000  0.5805570000000 1.0
C      1  0.4603530000000  0.4931940000000  0.5175530000000 1.0
C      1  0.5731680000000  0.3919670000000  0.5071110000000 1.0
C      1  0.5043490000000  0.5440830000000  0.5466210000000 1.0
C      1  0.5727850000000  0.5748280000000  0.5029330000000 1.0
C      1  0.5222400000000  0.4419330000000  0.4885170000000 1.0
C      1  0.4597870000000  0.5849840000000  0.4562930000000 1.0
C      1  0.4641690000000  0.5755450000000  0.4316230000000 1.0
C      1  0.5509270000000  0.5375580000000  0.5260410000000 1.0
C      1  0.4543010000000  0.5201750000000  0.5070620000000 1.0
C      1  0.4563610000000  0.5037190000000  0.4488960000000 1.0
C      1  0.5143140000000  0.5702440000000  0.5544690000000 1.0
C      1  0.5763200000000  0.5257410000000  0.5303600000000 1.0
C      1  0.4357020000000  0.4693900000000  0.5512160000000 1.0
C      1  0.4769610000000  0.5569580000000  0.4168570000000 1.0
C      1  0.5673730000000  0.4594300000000  0.4575900000000 1.0
C      1  0.4848820000000  0.5284970000000  0.4713670000000 1.0
C      1  0.4951440000000  0.5092770000000  0.4131820000000 1.0
C      1  0.4304990000000  0.5107740000000  0.4462930000000 1.0
C      1  0.5546150000000  0.4771040000000  0.5220700000000 1.0
C      1  0.4711620000000  0.4315070000000  0.4919340000000 1.0
C      1  0.4540270000000  0.4730930000000  0.4144540000000 1.0
C      1  0.5230880000000  0.4371680000000  0.4383940000000 1.0
C      1  0.5018360000000  0.4852410000000  0.4691830000000 1.0
C      1  0.5952970000000  0.5101860000000  0.5193230000000 1.0
C      1  0.4797820000000  0.5016640000000  0.4639340000000 1.0
C      1  0.5764390000000  0.4679260000000  0.5061460000000 1.0
C      1  0.4884730000000  0.4151380000000  0.4743100000000 1.0
C      1  0.4780290000000  0.4485470000000  0.5657750000000 1.0
C      1  0.5479300000000  0.4307310000000  0.4915010000000 1.0
C      1  0.5221260000000  0.5004540000000  0.5440310000000 1.0
C      1  0.5124650000000  0.5850830000000  0.5299440000000 1.0
C      1  0.5438740000000  0.4570740000000  0.4387440000000 1.0
C      1  0.4353390000000  0.4620630000000  0.4310390000000 1.0
C      1  0.5047290000000  0.4582760000000  0.4760280000000 1.0
END
