TITL C-627106-156-1376 -2.34301316246817 125000 -1218.78600637012 0 0 196 (C1) n - 1
REM
REM in /home/nfs/bkarasulu/CARBON/AIRSS/Generating-Clusters/LCBOP/Only-C1/SD-CG/FIRE-CG
REM
REM
REM
REM
REM
REM ./C.cell (11c1c37f851c82e70ff6c80c92926a4b)
REM AIRSS Version 0.9.1 bugfix July 2018 build 013d7b7c2542+ Fri, 06 Jul 2018 19:26:36 +0100
REM compiler GCC version 9.2.1 20190827 (Red Hat 9.2.1-1)
REM options -cpp -mtune=generic -march=x86-64 -g -O0 -fpre-include=/usr/include/finclude/math-vector-fortran.h
REM seed 1766123090 -1125375849 235293738 -1484564656 -1820527373 -885554519 23480935 -373809832 -860164830 234729504 -1065418597 -564303984 -1107548183 -906590030 -995005130 -728171665 -535868374 2092401919 -328154605 -1424579017 -1166935704 352053337 1807402952 1675504733 -914242577 541829817 154711799 433004743 -247780328 1935467161 1001110148 -384963313 1522178503
REM
CELL 1.54180   50.00000   50.00000   50.00000   90.00000   90.00000   90.00000
LATT -1
SFAC C  
C      1  0.3866230000000  0.4982940000000  0.4505480000000 1.0
C      1  0.4426400000000  0.3948170000000  0.4907880000000 1.0
C      1  0.3888640000000  0.4117110000000  0.5143860000000 1.0
C      1  0.6189550000000  0.5175870000000  0.4289120000000 1.0
C      1  0.4823030000000  0.4310770000000  0.3809630000000 1.0
C      1  0.3554440000000  0.5047790000000  0.5019690000000 1.0
C      1  0.4523310000000  0.3889750000000  0.4377330000000 1.0
C      1  0.4440850000000  0.4886420000000  0.5295910000000 1.0
C      1  0.5705570000000  0.5135590000000  0.6215840000000 1.0
C      1  0.5800570000000  0.5044020000000  0.5491830000000 1.0
C      1  0.4966860000000  0.5284080000000  0.6037270000000 1.0
C      1  0.5747550000000  0.5794930000000  0.5402550000000 1.0
C      1  0.4477320000000  0.4012370000000  0.4637040000000 1.0
C      1  0.4396390000000  0.5703150000000  0.5126850000000 1.0
C      1  0.6412110000000  0.4979480000000  0.4995670000000 1.0
C      1  0.4302560000000  0.5131000000000  0.4800550000000 1.0
C      1  0.3723990000000  0.5406850000000  0.4381720000000 1.0
C      1  0.4296590000000  0.5078490000000  0.6006360000000 1.0
C      1  0.5270280000000  0.4928180000000  0.4501790000000 1.0
C      1  0.5357800000000  0.5896180000000  0.4414120000000 1.0
C      1  0.5949030000000  0.4608570000000  0.5750770000000 1.0
C      1  0.4995650000000  0.4854570000000  0.5490370000000 1.0
C      1  0.5774880000000  0.5891190000000  0.5664040000000 1.0
C      1  0.4540580000000  0.6008550000000  0.4772300000000 1.0
C      1  0.4565400000000  0.5836270000000  0.5558450000000 1.0
C      1  0.4814770000000  0.3885900000000  0.5800070000000 1.0
C      1  0.4844310000000  0.5541830000000  0.3892380000000 1.0
C      1  0.5206990000000  0.5270260000000  0.6180820000000 1.0
C      1  0.4424840000000  0.4479870000000  0.4775400000000 1.0
C      1  0.4588130000000  0.4295360000000  0.5211990000000 1.0
C      1  0.5241540000000  0.5299690000000  0.3950170000000 1.0
C      1  0.5417920000000  0.3832870000000  0.5331510000000 1.0
C      1  0.6180830000000  0.4773320000000  0.5688210000000 1.0
C      1  0.5226330000000  0.4496410000000  0.5282990000000 1.0
C      1  0.4290070000000  0.4414940000000  0.5692270000000 1.0
C      1  0.4759820000000  0.6161300000000  0.4688840000000 1.0
C      1  0.5677270000000  0.4117470000000  0.4662840000000 1.0
C      1  0.4217640000000  0.5494950000000  0.4259690000000 1.0
C      1  0.4811200000000  0.5895940000000  0.4243440000000 1.0
C      1  0.5677770000000  0.5214270000000  0.4947060000000 1.0
C      1  0.4046040000000  0.4924130000000  0.4293280000000 1.0
C      1  0.4695110000000  0.5543780000000  0.4733950000000 1.0
C      1  0.3964120000000  0.4948470000000  0.5373880000000 1.0
C      1  0.5232350000000  0.5273650000000  0.5266130000000 1.0
C      1  0.5793040000000  0.4458150000000  0.4129780000000 1.0
C      1  0.5073930000000  0.4163050000000  0.4473340000000 1.0
C      1  0.4129090000000  0.5753790000000  0.5232520000000 1.0
C      1  0.5219460000000  0.3811720000000  0.4826190000000 1.0
C      1  0.4802460000000  0.5005060000000  0.5631300000000 1.0
C      1  0.4951390000000  0.6187180000000  0.5184620000000 1.0
C      1  0.5627710000000  0.5541450000000  0.5344480000000 1.0
C      1  0.5997080000000  0.4645570000000  0.4914050000000 1.0
C      1  0.4708770000000  0.5276980000000  0.5085980000000 1.0
C      1  0.6045630000000  0.5349930000000  0.5210790000000 1.0
C      1  0.4133560000000  0.4115120000000  0.5286280000000 1.0
C      1  0.5154210000000  0.4341100000000  0.5052650000000 1.0
C      1  0.4532570000000  0.5500490000000  0.6080460000000 1.0
C      1  0.5125330000000  0.5416570000000  0.4447020000000 1.0
C      1  0.4158220000000  0.4567590000000  0.4770380000000 1.0
C      1  0.4563350000000  0.4323630000000  0.5695220000000 1.0
C      1  0.5353870000000  0.5055130000000  0.4044560000000 1.0
C      1  0.5635600000000  0.4844900000000  0.5418830000000 1.0
C      1  0.5691720000000  0.5087490000000  0.4436320000000 1.0
C      1  0.6321400000000  0.4819770000000  0.5219910000000 1.0
C      1  0.5203050000000  0.6111810000000  0.4808290000000 1.0
C      1  0.3954590000000  0.5520600000000  0.5276640000000 1.0
C      1  0.4844620000000  0.4568970000000  0.3925200000000 1.0
C      1  0.5697080000000  0.4197480000000  0.5562400000000 1.0
C      1  0.5723360000000  0.5118880000000  0.4701630000000 1.0
C      1  0.3937870000000  0.5456760000000  0.4219910000000 1.0
C      1  0.5930080000000  0.6118660000000  0.5010050000000 1.0
C      1  0.5766800000000  0.5698930000000  0.4320020000000 1.0
C      1  0.4944360000000  0.6236590000000  0.4901120000000 1.0
C      1  0.4320350000000  0.5015300000000  0.4276020000000 1.0
C      1  0.5454340000000  0.5017530000000  0.4309610000000 1.0
C      1  0.4531020000000  0.5130980000000  0.4929160000000 1.0
C      1  0.4340460000000  0.6011330000000  0.5565380000000 1.0
C      1  0.5871930000000  0.4466230000000  0.4396370000000 1.0
C      1  0.4158330000000  0.5336590000000  0.4724150000000 1.0
C      1  0.5951580000000  0.4867560000000  0.3935050000000 1.0
C      1  0.3947620000000  0.4777650000000  0.4081660000000 1.0
C      1  0.4501420000000  0.4823780000000  0.4180820000000 1.0
C      1  0.5519030000000  0.5582300000000  0.4711800000000 1.0
C      1  0.5050280000000  0.4474120000000  0.4826000000000 1.0
C      1  0.4621510000000  0.5347000000000  0.5348390000000 1.0
C      1  0.5157050000000  0.5435430000000  0.5030220000000 1.0
C      1  0.5411610000000  0.4761380000000  0.5240250000000 1.0
C      1  0.5289820000000  0.5536290000000  0.5689390000000 1.0
C      1  0.4982830000000  0.4679390000000  0.6162900000000 1.0
C      1  0.6073310000000  0.4381450000000  0.5319780000000 1.0
C      1  0.4628750000000  0.4080280000000  0.5824810000000 1.0
C      1  0.4881760000000  0.5037530000000  0.3764960000000 1.0
C      1  0.5008190000000  0.4425840000000  0.4549460000000 1.0
C      1  0.4522480000000  0.5743440000000  0.4868190000000 1.0
C      1  0.5718250000000  0.4391020000000  0.4628160000000 1.0
C      1  0.6157290000000  0.5472960000000  0.4976300000000 1.0
C      1  0.5006220000000  0.4540810000000  0.5499790000000 1.0
C      1  0.4522830000000  0.5862810000000  0.4262840000000 1.0
C      1  0.5809060000000  0.5573430000000  0.4592020000000 1.0
C      1  0.4860440000000  0.5059640000000  0.5902280000000 1.0
C      1  0.3835430000000  0.5475190000000  0.5000340000000 1.0
C      1  0.3975700000000  0.4429940000000  0.4596520000000 1.0
C      1  0.5332080000000  0.3783860000000  0.5067110000000 1.0
C      1  0.5306960000000  0.4847140000000  0.4768120000000 1.0
C      1  0.5661430000000  0.3971990000000  0.5386500000000 1.0
C      1  0.6202360000000  0.5220280000000  0.4569260000000 1.0
C      1  0.6147750000000  0.4749030000000  0.4690980000000 1.0
C      1  0.5198270000000  0.4608900000000  0.5978170000000 1.0
C      1  0.6090860000000  0.4117620000000  0.5212430000000 1.0
C      1  0.6250170000000  0.4944640000000  0.5466030000000 1.0
C      1  0.3579640000000  0.4785010000000  0.5072880000000 1.0
C      1  0.4725020000000  0.4382290000000  0.5458680000000 1.0
C      1  0.4136180000000  0.5492580000000  0.5783580000000 1.0
C      1  0.5060920000000  0.4753280000000  0.4870940000000 1.0
C      1  0.4126980000000  0.4242610000000  0.5538760000000 1.0
C      1  0.5726670000000  0.4578840000000  0.4849890000000 1.0
C      1  0.5400160000000  0.5903470000000  0.5978890000000 1.0
C      1  0.5183260000000  0.4171050000000  0.5788360000000 1.0
C      1  0.3774820000000  0.4277830000000  0.4702350000000 1.0
C      1  0.4858370000000  0.4860620000000  0.5016990000000 1.0
C      1  0.4625230000000  0.4754150000000  0.5121400000000 1.0
C      1  0.5760530000000  0.5374630000000  0.5160760000000 1.0
C      1  0.5385320000000  0.5436470000000  0.5449740000000 1.0
C      1  0.4584120000000  0.4081050000000  0.4167330000000 1.0
C      1  0.6111060000000  0.4605350000000  0.4455380000000 1.0
C      1  0.3745430000000  0.4303440000000  0.4985400000000 1.0
C      1  0.4809810000000  0.5520300000000  0.6042920000000 1.0
C      1  0.4706570000000  0.4089890000000  0.3915500000000 1.0
C      1  0.5290070000000  0.5912730000000  0.5010220000000 1.0
C      1  0.5005380000000  0.4788570000000  0.3834020000000 1.0
C      1  0.5901910000000  0.4398880000000  0.5558450000000 1.0
C      1  0.4017580000000  0.5576380000000  0.4782670000000 1.0
C      1  0.4694380000000  0.4600430000000  0.4191030000000 1.0
C      1  0.5121770000000  0.4442310000000  0.5761960000000 1.0
C      1  0.4001230000000  0.5384550000000  0.5550520000000 1.0
C      1  0.5758680000000  0.4704880000000  0.5951130000000 1.0
C      1  0.4554410000000  0.5623260000000  0.5363200000000 1.0
C      1  0.3997680000000  0.5096860000000  0.5602930000000 1.0
C      1  0.4972800000000  0.5293640000000  0.3839450000000 1.0
C      1  0.4106190000000  0.5790770000000  0.4606420000000 1.0
C      1  0.4048740000000  0.4672230000000  0.5012430000000 1.0
C      1  0.5836370000000  0.4929450000000  0.6106040000000 1.0
C      1  0.4887830000000  0.5434620000000  0.4933610000000 1.0
C      1  0.3672890000000  0.5261090000000  0.4877250000000 1.0
C      1  0.4929240000000  0.5744310000000  0.5917820000000 1.0
C      1  0.4906720000000  0.5223780000000  0.4431550000000 1.0
C      1  0.5765870000000  0.4652930000000  0.3928460000000 1.0
C      1  0.5842750000000  0.5955470000000  0.5193570000000 1.0
C      1  0.4408730000000  0.5287110000000  0.4330390000000 1.0
C      1  0.4560580000000  0.4502620000000  0.5021510000000 1.0
C      1  0.4770280000000  0.4858700000000  0.6084140000000 1.0
C      1  0.5508380000000  0.4740630000000  0.4946060000000 1.0
C      1  0.5646460000000  0.5958200000000  0.5888310000000 1.0
C      1  0.5206390000000  0.5732280000000  0.5872860000000 1.0
C      1  0.4981960000000  0.5723390000000  0.4064140000000 1.0
C      1  0.5084920000000  0.3916440000000  0.5726770000000 1.0
C      1  0.4991960000000  0.4941220000000  0.4428530000000 1.0
C      1  0.4564360000000  0.4343410000000  0.4298460000000 1.0
C      1  0.4186820000000  0.4663980000000  0.5779940000000 1.0
C      1  0.5511540000000  0.4673320000000  0.3808150000000 1.0
C      1  0.5739660000000  0.3865230000000  0.4636250000000 1.0
C      1  0.4653050000000  0.5355650000000  0.4492840000000 1.0
C      1  0.4771100000000  0.5882900000000  0.5737250000000 1.0
C      1  0.4134380000000  0.4944870000000  0.5811940000000 1.0
C      1  0.4575920000000  0.5089150000000  0.5474200000000 1.0
C      1  0.5464670000000  0.5246590000000  0.6241720000000 1.0
C      1  0.4394030000000  0.4082670000000  0.5159730000000 1.0
C      1  0.6141490000000  0.4602250000000  0.5153940000000 1.0
C      1  0.5238070000000  0.3774320000000  0.5541170000000 1.0
C      1  0.5200180000000  0.4984950000000  0.5319780000000 1.0
C      1  0.5286910000000  0.4819910000000  0.3888870000000 1.0
C      1  0.3773860000000  0.4581660000000  0.5059150000000 1.0
C      1  0.4122110000000  0.5974830000000  0.5408700000000 1.0
C      1  0.4280210000000  0.5754240000000  0.4369000000000 1.0
C      1  0.4163120000000  0.4832210000000  0.5218720000000 1.0
C      1  0.6283530000000  0.4994570000000  0.4738820000000 1.0
C      1  0.6058610000000  0.5151850000000  0.5421210000000 1.0
C      1  0.5897210000000  0.3927970000000  0.5233060000000 1.0
C      1  0.5629240000000  0.5952240000000  0.4351690000000 1.0
C      1  0.5323430000000  0.5559560000000  0.4031470000000 1.0
C      1  0.5182340000000  0.6073410000000  0.4527000000000 1.0
C      1  0.4307350000000  0.5367250000000  0.5978750000000 1.0
C      1  0.5482210000000  0.4640010000000  0.5991350000000 1.0
C      1  0.6068210000000  0.5449040000000  0.4698840000000 1.0
C      1  0.6098290000000  0.5046750000000  0.4071650000000 1.0
C      1  0.4903940000000  0.4660570000000  0.4400220000000 1.0
C      1  0.5602580000000  0.5580820000000  0.4105410000000 1.0
C      1  0.4983380000000  0.4572550000000  0.6415770000000 1.0
C      1  0.4498060000000  0.4300030000000  0.4575680000000 1.0
C      1  0.5350740000000  0.5639900000000  0.4945460000000 1.0
C      1  0.5318090000000  0.5617640000000  0.4495680000000 1.0
C      1  0.4908260000000  0.6076050000000  0.4446350000000 1.0
C      1  0.5148450000000  0.6002640000000  0.5248300000000 1.0
C      1  0.3717210000000  0.5211560000000  0.4589850000000 1.0
C      1  0.4494780000000  0.4915420000000  0.6142480000000 1.0
C      1  0.5138790000000  0.3936720000000  0.4603440000000 1.0
END
