TITL C-627107-135-1677 1631.71178460373 125000 -947.361425618812 0 0 154 (C1) n - 1
REM
REM in /home/nfs/bkarasulu/CARBON/AIRSS/Generating-Clusters/LCBOP/Only-C1/SD-CG/FIRE-CG
REM
REM
REM
REM
REM
REM ./C.cell (11c1c37f851c82e70ff6c80c92926a4b)
REM AIRSS Version 0.9.1 bugfix July 2018 build 013d7b7c2542+ Fri, 06 Jul 2018 19:26:36 +0100
REM compiler GCC version 9.2.1 20190827 (Red Hat 9.2.1-1)
REM options -cpp -mtune=generic -march=x86-64 -g -O0 -fpre-include=/usr/include/finclude/math-vector-fortran.h
REM seed 1473745463 287067930 1330563831 -2078647459 2065661185 1949357498 -335402012 516831020 46675537 564066513 780513028 -1279049433 212324229 -2040289305 -2011237235 -1932883817 1737914989 1107398020 1932689636 1186345589 -21021465 -1943885812 510074485 276095565 1353975657 800668968 650691894 -1383369733 -2076939296 947700295 1381757213 165443293 -1372570132
REM
CELL 1.54180   50.00000   50.00000   50.00000   90.00000   90.00000   90.00000
LATT -1
SFAC C  
C      1  0.5393060000000  0.4140810000000  0.5233660000000 1.0
C      1  0.4288510000000  0.4697570000000  0.5374370000000 1.0
C      1  0.4181310000000  0.5889340000000  0.4004230000000 1.0
C      1  0.4298160000000  0.4581590000000  0.5094550000000 1.0
C      1  0.4660700000000  0.5488800000000  0.5352000000000 1.0
C      1  0.5528620000000  0.5676270000000  0.5117550000000 1.0
C      1  0.4773280000000  0.4755990000000  0.3776880000000 1.0
C      1  0.5845550000000  0.4639180000000  0.6148270000000 1.0
C      1  0.4775070000000  0.5565150000000  0.5094820000000 1.0
C      1  0.4593000000000  0.3965190000000  0.4840810000000 1.0
C      1  0.5574540000000  0.4738500000000  0.4126790000000 1.0
C      1  0.4090680000000  0.5487990000000  0.4607530000000 1.0
C      1  0.4511570000000  0.4120760000000  0.4636380000000 1.0
C      1  0.4278240000000  0.5187670000000  0.4969230000000 1.0
C      1  0.4404450000000  0.5578460000000  0.5423870000000 1.0
C      1  0.4525280000000  0.3621860000000  0.5672390000000 1.0
C      1  0.5930660000000  0.4294570000000  0.5481820000000 1.0
C      1  0.5639100000000  0.4220690000000  0.5099300000000 1.0
C      1  0.3988640000000  0.5072950000000  0.5549740000000 1.0
C      1  0.5984390000000  0.4958030000000  0.4701110000000 1.0
C      1  0.5378090000000  0.4848920000000  0.3977630000000 1.0
C      1  0.5115480000000  0.5760940000000  0.5300590000000 1.0
C      1  0.3987630000000  0.5346510000000  0.5467350000000 1.0
C      1  0.5423210000000  0.5202650000000  0.4292030000000 1.0
C      1  0.4282370000000  0.4984670000000  0.4448450000000 1.0
C      1  0.5840930000000  0.5015590000000  0.4448950000000 1.0
C      1  0.5808240000000  0.4535990000000  0.4551770000000 1.0
C      1  0.5435770000000  0.5970660000000  0.4739400000000 1.0
C      1  0.4438800000000  0.4511750000000  0.4033320000000 1.0
C      1  0.5622740000000  0.5108820000000  0.6237950000000 1.0
C      1  0.5406050000000  0.4810670000000  0.5180800000000 1.0
C      1  0.5521560000000  0.4120490000000  0.4374260000000 1.0
C      1  0.5235950000000  0.5772560000000  0.4232300000000 1.0
C      1  0.5384570000000  0.4914470000000  0.5652940000000 1.0
C      1  0.4877620000000  0.4353790000000  0.4931120000000 1.0
C      1  0.4117520000000  0.6042560000000  0.3505360000000 1.0
C      1  0.4766590000000  0.5261630000000  0.5483740000000 1.0
C      1  0.4068930000000  0.5703790000000  0.5099930000000 1.0
C      1  0.4500370000000  0.5981420000000  0.4941790000000 1.0
C      1  0.5861520000000  0.4150060000000  0.6033020000000 1.0
C      1  0.5049340000000  0.5850800000000  0.5557970000000 1.0
C      1  0.4762400000000  0.5422140000000  0.5973020000000 1.0
C      1  0.5728210000000  0.5526310000000  0.4248610000000 1.0
C      1  0.4566700000000  0.4780430000000  0.5530650000000 1.0
C      1  0.4005200000000  0.4690030000000  0.4663020000000 1.0
C      1  0.5908170000000  0.4426180000000  0.5977970000000 1.0
C      1  0.4484050000000  0.4974990000000  0.4907440000000 1.0
C      1  0.5098610000000  0.4545380000000  0.5466120000000 1.0
C      1  0.5241070000000  0.4372420000000  0.4608950000000 1.0
C      1  0.5702920000000  0.5245910000000  0.4333590000000 1.0
C      1  0.4035570000000  0.5006760000000  0.5820380000000 1.0
C      1  0.4229740000000  0.5930530000000  0.5036690000000 1.0
C      1  0.5269430000000  0.4262680000000  0.4343020000000 1.0
C      1  0.5180480000000  0.5710120000000  0.5780790000000 1.0
C      1  0.4519690000000  0.4682930000000  0.4951000000000 1.0
C      1  0.4805890000000  0.5382350000000  0.4598160000000 1.0
C      1  0.4852130000000  0.5566510000000  0.4391210000000 1.0
C      1  0.5520750000000  0.5722960000000  0.4311620000000 1.0
C      1  0.5468890000000  0.5317710000000  0.6133210000000 1.0
C      1  0.4800510000000  0.5844960000000  0.4476550000000 1.0
C      1  0.4972040000000  0.5079920000000  0.5038510000000 1.0
C      1  0.5285290000000  0.5554160000000  0.5211540000000 1.0
C      1  0.4649030000000  0.5029300000000  0.5374980000000 1.0
C      1  0.4795940000000  0.4617330000000  0.4947370000000 1.0
C      1  0.3891650000000  0.4808700000000  0.5120490000000 1.0
C      1  0.3982720000000  0.5522150000000  0.4891530000000 1.0
C      1  0.5012340000000  0.4811530000000  0.4945900000000 1.0
C      1  0.5859310000000  0.3962940000000  0.5833900000000 1.0
C      1  0.5685580000000  0.5232750000000  0.5025860000000 1.0
C      1  0.5510710000000  0.5940780000000  0.5009770000000 1.0
C      1  0.4895340000000  0.4315270000000  0.3946600000000 1.0
C      1  0.4711930000000  0.6014980000000  0.5165400000000 1.0
C      1  0.4218000000000  0.5808840000000  0.4253850000000 1.0
C      1  0.4821250000000  0.4405000000000  0.4382250000000 1.0
C      1  0.5747520000000  0.4872360000000  0.6234630000000 1.0
C      1  0.5942140000000  0.4625140000000  0.5089390000000 1.0
C      1  0.4058080000000  0.5171920000000  0.4516520000000 1.0
C      1  0.6061300000000  0.5331230000000  0.5352400000000 1.0
C      1  0.4910190000000  0.5809920000000  0.5110880000000 1.0
C      1  0.4693560000000  0.4000650000000  0.5324450000000 1.0
C      1  0.4702050000000  0.4271670000000  0.5417280000000 1.0
C      1  0.3874360000000  0.4969570000000  0.4663670000000 1.0
C      1  0.5896440000000  0.4023790000000  0.5570040000000 1.0
C      1  0.5693170000000  0.4156580000000  0.4828830000000 1.0
C      1  0.5207210000000  0.5310410000000  0.4688630000000 1.0
C      1  0.4754410000000  0.6039100000000  0.5468280000000 1.0
C      1  0.5067320000000  0.5967000000000  0.4410360000000 1.0
C      1  0.5722450000000  0.5496200000000  0.5032960000000 1.0
C      1  0.4671780000000  0.5145700000000  0.5933680000000 1.0
C      1  0.5707600000000  0.4260730000000  0.4561760000000 1.0
C      1  0.4032750000000  0.4853330000000  0.5371000000000 1.0
C      1  0.4148960000000  0.5967030000000  0.3752890000000 1.0
C      1  0.5227170000000  0.5268020000000  0.5993240000000 1.0
C      1  0.4259370000000  0.4897520000000  0.5923740000000 1.0
C      1  0.5064530000000  0.4241240000000  0.4779470000000 1.0
C      1  0.4202350000000  0.4696080000000  0.4444200000000 1.0
C      1  0.4518440000000  0.5876920000000  0.5883750000000 1.0
C      1  0.4042430000000  0.4613420000000  0.4948160000000 1.0
C      1  0.5276980000000  0.4728820000000  0.4947440000000 1.0
C      1  0.4604720000000  0.3805610000000  0.5505550000000 1.0
C      1  0.5167490000000  0.5045160000000  0.3949280000000 1.0
C      1  0.3999520000000  0.5248770000000  0.4992290000000 1.0
C      1  0.4553350000000  0.4330860000000  0.4453190000000 1.0
C      1  0.5014170000000  0.4272960000000  0.4205180000000 1.0
C      1  0.4897340000000  0.4671220000000  0.4417080000000 1.0
C      1  0.5118920000000  0.3688000000000  0.4759130000000 1.0
C      1  0.5748540000000  0.4745560000000  0.4350800000000 1.0
C      1  0.5278450000000  0.4765210000000  0.5435170000000 1.0
C      1  0.5585020000000  0.5017200000000  0.5139410000000 1.0
C      1  0.4695360000000  0.5065880000000  0.5100740000000 1.0
C      1  0.5843870000000  0.4382310000000  0.5223410000000 1.0
C      1  0.5562030000000  0.5577790000000  0.6065900000000 1.0
C      1  0.5214850000000  0.5109550000000  0.5759030000000 1.0
C      1  0.4804480000000  0.4530460000000  0.5489520000000 1.0
C      1  0.5037790000000  0.3808580000000  0.5003220000000 1.0
C      1  0.5301490000000  0.3698080000000  0.4561280000000 1.0
C      1  0.5386500000000  0.5495970000000  0.4696810000000 1.0
C      1  0.6009680000000  0.4849860000000  0.5271860000000 1.0
C      1  0.5220440000000  0.6105080000000  0.4611700000000 1.0
C      1  0.5687780000000  0.5627250000000  0.5609900000000 1.0
C      1  0.5927800000000  0.4676210000000  0.4794660000000 1.0
C      1  0.5884730000000  0.4868000000000  0.5525940000000 1.0
C      1  0.4691740000000  0.5468270000000  0.4847000000000 1.0
C      1  0.4361610000000  0.4496270000000  0.4310850000000 1.0
C      1  0.4538980000000  0.5873830000000  0.4646020000000 1.0
C      1  0.5254040000000  0.3906830000000  0.5158170000000 1.0
C      1  0.4278870000000  0.5713530000000  0.4513060000000 1.0
C      1  0.4937250000000  0.4964540000000  0.3812270000000 1.0
C      1  0.3829290000000  0.5031280000000  0.4947390000000 1.0
C      1  0.5158790000000  0.5294390000000  0.5132350000000 1.0
C      1  0.4511780000000  0.5019500000000  0.4610170000000 1.0
C      1  0.4420930000000  0.5416920000000  0.4879370000000 1.0
C      1  0.4752810000000  0.5120660000000  0.4519030000000 1.0
C      1  0.4921040000000  0.4933250000000  0.4409650000000 1.0
C      1  0.5498570000000  0.5732120000000  0.4597640000000 1.0
C      1  0.4580590000000  0.5637470000000  0.5987190000000 1.0
C      1  0.6128030000000  0.5116210000000  0.4889970000000 1.0
C      1  0.5664370000000  0.4912030000000  0.5671320000000 1.0
C      1  0.5071670000000  0.5524370000000  0.4198440000000 1.0
C      1  0.4524650000000  0.4915480000000  0.5825540000000 1.0
C      1  0.5044200000000  0.5495500000000  0.5948340000000 1.0
C      1  0.4768960000000  0.3908280000000  0.5058580000000 1.0
C      1  0.5019690000000  0.5211640000000  0.5584180000000 1.0
C      1  0.4687760000000  0.4511050000000  0.3887920000000 1.0
C      1  0.5483880000000  0.5682880000000  0.5806220000000 1.0
C      1  0.6108450000000  0.5105770000000  0.5175590000000 1.0
C      1  0.5478240000000  0.3841300000000  0.4415180000000 1.0
C      1  0.5245080000000  0.4304740000000  0.5411620000000 1.0
C      1  0.4130900000000  0.5566530000000  0.5353270000000 1.0
C      1  0.5362640000000  0.4596260000000  0.4721010000000 1.0
C      1  0.5197360000000  0.5271130000000  0.4129480000000 1.0
C      1  0.4577420000000  0.6044240000000  0.5681820000000 1.0
C      1  0.5900090000000  0.5493830000000  0.5501930000000 1.0
C      1  0.5983780000000  0.4464970000000  0.5704800000000 1.0
END
