TITL C-627110-360-1458 -14.2257349155014 125000 -992.839478127882 0 0 160 (C1) n - 1
REM
REM in /home/nfs/bkarasulu/CARBON/AIRSS/Generating-Clusters/LCBOP/Only-C1/SD-CG/FIRE-CG
REM
REM
REM
REM
REM
REM ./C.cell (11c1c37f851c82e70ff6c80c92926a4b)
REM AIRSS Version 0.9.1 bugfix July 2018 build 013d7b7c2542+ Fri, 06 Jul 2018 19:26:36 +0100
REM compiler GCC version 9.2.1 20190827 (Red Hat 9.2.1-1)
REM options -cpp -mtune=generic -march=x86-64 -g -O0 -fpre-include=/usr/include/finclude/math-vector-fortran.h
REM seed 1958069732 -1950584807 -77330451 1781632812 748905686 234700355 -169989569 33705078 1105506083 -129763178 -2113486489 162769831 1381949591 1295061945 1755238035 1664960936 1041430905 -1604342717 1107194797 -145549988 1214095920 -530290815 1989280639 1826118501 1565458671 -1432104914 -799100045 511530497 -1607897532 -1450511495 -1136013127 1376055983 1071851314
REM
CELL 1.54180   50.00000   50.00000   50.00000   90.00000   90.00000   90.00000
LATT -1
SFAC C  
C      1  0.4772650000000  0.4177690000000  0.5743010000000 1.0
C      1  0.4397130000000  0.4366790000000  0.4328070000000 1.0
C      1  0.3916160000000  0.4958390000000  0.5309550000000 1.0
C      1  0.4930290000000  0.4043840000000  0.5269100000000 1.0
C      1  0.6053150000000  0.5436560000000  0.5384910000000 1.0
C      1  0.5341750000000  0.4051270000000  0.4806380000000 1.0
C      1  0.4603770000000  0.4714650000000  0.4511360000000 1.0
C      1  0.5190460000000  0.4963100000000  0.5934240000000 1.0
C      1  0.5665040000000  0.5382280000000  0.3900820000000 1.0
C      1  0.5452310000000  0.3989380000000  0.5484320000000 1.0
C      1  0.4105090000000  0.5246010000000  0.5850780000000 1.0
C      1  0.4697990000000  0.4113880000000  0.5122160000000 1.0
C      1  0.4936730000000  0.5994000000000  0.4765190000000 1.0
C      1  0.5140540000000  0.5220150000000  0.6055010000000 1.0
C      1  0.4424810000000  0.5587190000000  0.5407750000000 1.0
C      1  0.5238310000000  0.4070170000000  0.5651580000000 1.0
C      1  0.4621280000000  0.5060120000000  0.5506390000000 1.0
C      1  0.4718800000000  0.4563350000000  0.3935480000000 1.0
C      1  0.5483910000000  0.4498870000000  0.4129130000000 1.0
C      1  0.3898940000000  0.4384570000000  0.5917840000000 1.0
C      1  0.4104150000000  0.4776660000000  0.5715180000000 1.0
C      1  0.4084770000000  0.4498160000000  0.5753210000000 1.0
C      1  0.6137480000000  0.5205510000000  0.4356820000000 1.0
C      1  0.4432770000000  0.4832360000000  0.4988290000000 1.0
C      1  0.5708490000000  0.5060320000000  0.5544680000000 1.0
C      1  0.4577300000000  0.5349360000000  0.3919610000000 1.0
C      1  0.4463200000000  0.5570430000000  0.5703020000000 1.0
C      1  0.5200130000000  0.5880800000000  0.4769950000000 1.0
C      1  0.5740620000000  0.4640930000000  0.4134700000000 1.0
C      1  0.6063360000000  0.5194780000000  0.5229670000000 1.0
C      1  0.4526420000000  0.4777460000000  0.3541420000000 1.0
C      1  0.5485360000000  0.4907430000000  0.4534060000000 1.0
C      1  0.4645640000000  0.4633020000000  0.5785670000000 1.0
C      1  0.4162670000000  0.4237850000000  0.5352260000000 1.0
C      1  0.4488470000000  0.5100020000000  0.4340890000000 1.0
C      1  0.5546650000000  0.5332150000000  0.5144810000000 1.0
C      1  0.5348350000000  0.5413730000000  0.5993960000000 1.0
C      1  0.5251270000000  0.4209530000000  0.4546180000000 1.0
C      1  0.3960690000000  0.4804600000000  0.4784670000000 1.0
C      1  0.5116220000000  0.3944860000000  0.4961820000000 1.0
C      1  0.6085300000000  0.5197260000000  0.4931220000000 1.0
C      1  0.5458330000000  0.5213970000000  0.3909280000000 1.0
C      1  0.4218120000000  0.4310440000000  0.4784580000000 1.0
C      1  0.4815360000000  0.4793450000000  0.4358520000000 1.0
C      1  0.5412080000000  0.5761800000000  0.4292550000000 1.0
C      1  0.4362620000000  0.5093050000000  0.5424700000000 1.0
C      1  0.4564820000000  0.5626850000000  0.4380510000000 1.0
C      1  0.4970510000000  0.4319110000000  0.4595990000000 1.0
C      1  0.5578370000000  0.4000030000000  0.5245810000000 1.0
C      1  0.4465940000000  0.5857770000000  0.4961390000000 1.0
C      1  0.4650030000000  0.5058990000000  0.3917420000000 1.0
C      1  0.5235830000000  0.4259920000000  0.5889140000000 1.0
C      1  0.5527990000000  0.4520300000000  0.4822900000000 1.0
C      1  0.4548120000000  0.4362310000000  0.5712940000000 1.0
C      1  0.4681850000000  0.5537110000000  0.4129150000000 1.0
C      1  0.4802810000000  0.5937120000000  0.5314080000000 1.0
C      1  0.4993090000000  0.4435310000000  0.3898410000000 1.0
C      1  0.4963950000000  0.4062290000000  0.5544700000000 1.0
C      1  0.5446340000000  0.4480390000000  0.5560080000000 1.0
C      1  0.5513180000000  0.5852200000000  0.5126120000000 1.0
C      1  0.5931160000000  0.4766740000000  0.4290350000000 1.0
C      1  0.4135760000000  0.4589190000000  0.4676540000000 1.0
C      1  0.5591440000000  0.4103900000000  0.4978460000000 1.0
C      1  0.4671730000000  0.4107040000000  0.4001930000000 1.0
C      1  0.4210870000000  0.5744860000000  0.4878950000000 1.0
C      1  0.4946790000000  0.5406820000000  0.5513200000000 1.0
C      1  0.4598430000000  0.5156070000000  0.6000150000000 1.0
C      1  0.5270660000000  0.4580270000000  0.5368060000000 1.0
C      1  0.5388940000000  0.4505140000000  0.5841100000000 1.0
C      1  0.4932180000000  0.4748300000000  0.4928550000000 1.0
C      1  0.5945760000000  0.4543440000000  0.5031710000000 1.0
C      1  0.5005360000000  0.4934060000000  0.5726730000000 1.0
C      1  0.5273970000000  0.4475020000000  0.4925040000000 1.0
C      1  0.4543700000000  0.4356870000000  0.4082660000000 1.0
C      1  0.5551040000000  0.5522780000000  0.5845050000000 1.0
C      1  0.5865380000000  0.5586130000000  0.4317520000000 1.0
C      1  0.4988520000000  0.5017360000000  0.4918280000000 1.0
C      1  0.4155380000000  0.4899000000000  0.5460380000000 1.0
C      1  0.6102510000000  0.5273180000000  0.4080630000000 1.0
C      1  0.4866780000000  0.5148050000000  0.5606740000000 1.0
C      1  0.4561660000000  0.4611630000000  0.5124560000000 1.0
C      1  0.4956380000000  0.4243020000000  0.5969460000000 1.0
C      1  0.4104750000000  0.5480110000000  0.4865870000000 1.0
C      1  0.5582390000000  0.5120940000000  0.4948280000000 1.0
C      1  0.5510620000000  0.4627160000000  0.4567060000000 1.0
C      1  0.5370480000000  0.4800780000000  0.5234410000000 1.0
C      1  0.5664120000000  0.5693670000000  0.5640060000000 1.0
C      1  0.3884920000000  0.4822130000000  0.5062950000000 1.0
C      1  0.4728870000000  0.4159330000000  0.4638740000000 1.0
C      1  0.6113100000000  0.4942170000000  0.4756600000000 1.0
C      1  0.5420910000000  0.4790750000000  0.5912820000000 1.0
C      1  0.4780580000000  0.4000860000000  0.4863900000000 1.0
C      1  0.6034260000000  0.5436370000000  0.4504500000000 1.0
C      1  0.4520640000000  0.4331910000000  0.5116350000000 1.0
C      1  0.4383210000000  0.5340290000000  0.5871320000000 1.0
C      1  0.6072700000000  0.4952670000000  0.4465730000000 1.0
C      1  0.5244660000000  0.5119670000000  0.4037950000000 1.0
C      1  0.4895580000000  0.4686330000000  0.5653800000000 1.0
C      1  0.4800110000000  0.5421940000000  0.4765950000000 1.0
C      1  0.4961510000000  0.5401710000000  0.5229500000000 1.0
C      1  0.5474190000000  0.5964520000000  0.4837780000000 1.0
C      1  0.5416010000000  0.5569020000000  0.5072120000000 1.0
C      1  0.5811480000000  0.5782230000000  0.5164650000000 1.0
C      1  0.4443480000000  0.4204930000000  0.4576960000000 1.0
C      1  0.5884840000000  0.5462190000000  0.4052030000000 1.0
C      1  0.5700840000000  0.5841520000000  0.4693550000000 1.0
C      1  0.5173200000000  0.5673080000000  0.4208250000000 1.0
C      1  0.5012240000000  0.5205290000000  0.4168880000000 1.0
C      1  0.5736040000000  0.4361750000000  0.4937990000000 1.0
C      1  0.4326710000000  0.5340640000000  0.5287040000000 1.0
C      1  0.4811380000000  0.5414770000000  0.6361420000000 1.0
C      1  0.5248670000000  0.5330740000000  0.4675590000000 1.0
C      1  0.6136690000000  0.4675090000000  0.4862780000000 1.0
C      1  0.4759500000000  0.5034700000000  0.4201310000000 1.0
C      1  0.5466630000000  0.5144230000000  0.4689240000000 1.0
C      1  0.4579420000000  0.5439980000000  0.4601270000000 1.0
C      1  0.5262220000000  0.4509600000000  0.3949740000000 1.0
C      1  0.5031130000000  0.4529950000000  0.4787870000000 1.0
C      1  0.4629920000000  0.4801320000000  0.3794060000000 1.0
C      1  0.5924610000000  0.4975000000000  0.5361390000000 1.0
C      1  0.4272810000000  0.4337610000000  0.5607010000000 1.0
C      1  0.5663550000000  0.5752520000000  0.4422820000000 1.0
C      1  0.5353080000000  0.5965220000000  0.5351310000000 1.0
C      1  0.4561080000000  0.5892730000000  0.4479120000000 1.0
C      1  0.4937050000000  0.5545140000000  0.4986510000000 1.0
C      1  0.4650890000000  0.5952450000000  0.4747160000000 1.0
C      1  0.4570080000000  0.4860630000000  0.5956490000000 1.0
C      1  0.4264780000000  0.5300570000000  0.5019100000000 1.0
C      1  0.5415820000000  0.4411030000000  0.4394900000000 1.0
C      1  0.4555180000000  0.5804130000000  0.5238150000000 1.0
C      1  0.4965290000000  0.5489420000000  0.4164730000000 1.0
C      1  0.6020030000000  0.5454230000000  0.4789960000000 1.0
C      1  0.5645300000000  0.4924350000000  0.5787480000000 1.0
C      1  0.5068190000000  0.5995950000000  0.5336330000000 1.0
C      1  0.3898490000000  0.5349840000000  0.5671170000000 1.0
C      1  0.4337380000000  0.4622280000000  0.4459560000000 1.0
C      1  0.4924840000000  0.4151140000000  0.3900580000000 1.0
C      1  0.4933010000000  0.5624390000000  0.5689730000000 1.0
C      1  0.4245910000000  0.4263820000000  0.5075740000000 1.0
C      1  0.4828980000000  0.4664640000000  0.5180050000000 1.0
C      1  0.5494960000000  0.5206420000000  0.5402520000000 1.0
C      1  0.5496260000000  0.5924110000000  0.5592700000000 1.0
C      1  0.4442840000000  0.5189830000000  0.4599460000000 1.0
C      1  0.4852360000000  0.5262720000000  0.6132480000000 1.0
C      1  0.4383650000000  0.5088260000000  0.4863670000000 1.0
C      1  0.5890000000000  0.5701550000000  0.4886110000000 1.0
C      1  0.4985770000000  0.4593910000000  0.5402580000000 1.0
C      1  0.3804800000000  0.5186350000000  0.5449360000000 1.0
C      1  0.4985910000000  0.5204130000000  0.4707940000000 1.0
C      1  0.3930400000000  0.5328170000000  0.4695200000000 1.0
C      1  0.4696190000000  0.5707330000000  0.5792080000000 1.0
C      1  0.4066020000000  0.4971100000000  0.5917250000000 1.0
C      1  0.5839880000000  0.4762630000000  0.5187400000000 1.0
C      1  0.5594510000000  0.4859300000000  0.5075680000000 1.0
C      1  0.5212130000000  0.5584820000000  0.4856220000000 1.0
C      1  0.5056450000000  0.5138010000000  0.5169150000000 1.0
C      1  0.5265360000000  0.5043900000000  0.5329570000000 1.0
C      1  0.5866250000000  0.5649380000000  0.5419730000000 1.0
C      1  0.3791250000000  0.5598680000000  0.5713300000000 1.0
C      1  0.3908460000000  0.5057210000000  0.4650530000000 1.0
END
