TITL C-627113-6568-302 0.0551530825116501 125000 -331.177019129278 0 0 56 (C1) n - 1
REM
REM in /home/nfs/bkarasulu/CARBON/AIRSS/Generating-Clusters/LCBOP/Only-C1/SD-CG/FIRE-CG
REM
REM
REM
REM
REM
REM ./C.cell (11c1c37f851c82e70ff6c80c92926a4b)
REM AIRSS Version 0.9.1 bugfix July 2018 build 013d7b7c2542+ Fri, 06 Jul 2018 19:26:36 +0100
REM compiler GCC version 9.2.1 20190827 (Red Hat 9.2.1-1)
REM options -cpp -mtune=generic -march=x86-64 -g -O0 -fpre-include=/usr/include/finclude/math-vector-fortran.h
REM seed 1713963138 -913146414 -792680234 -1975917328 182913124 -628297887 -1489363747 -655516238 -62638205 -528454348 2022886826 -1458786403 -406895633 -91403926 -85569446 983794911 2139863495 1744136214 -1999580212 -52185709 -1756598621 739572223 1478709848 2131453020 703518714 2087834084 531787622 1156886408 642074173 -814560266 -1154971246 -256865653 -1286107175
REM
CELL 1.54180   50.00000   50.00000   50.00000   90.00000   90.00000   90.00000
LATT -1
SFAC C  
C      1  0.5423160000000  0.4477380000000  0.5741950000000 1.0
C      1  0.5717980000000  0.5304510000000  0.4712620000000 1.0
C      1  0.4576950000000  0.4312340000000  0.4959040000000 1.0
C      1  0.4533610000000  0.6259890000000  0.5576870000000 1.0
C      1  0.4980710000000  0.5013540000000  0.5311370000000 1.0
C      1  0.5292790000000  0.5129130000000  0.4574880000000 1.0
C      1  0.5102440000000  0.4277190000000  0.5471230000000 1.0
C      1  0.4566580000000  0.5272630000000  0.5440520000000 1.0
C      1  0.5178050000000  0.6277840000000  0.4276670000000 1.0
C      1  0.5068510000000  0.4360110000000  0.4059840000000 1.0
C      1  0.5174190000000  0.4818040000000  0.4222970000000 1.0
C      1  0.6071320000000  0.3510070000000  0.5222510000000 1.0
C      1  0.4536590000000  0.6490470000000  0.5698470000000 1.0
C      1  0.5902610000000  0.3694490000000  0.5310730000000 1.0
C      1  0.4985320000000  0.5854390000000  0.4635390000000 1.0
C      1  0.4560030000000  0.5944010000000  0.4851840000000 1.0
C      1  0.5468930000000  0.5343990000000  0.4606890000000 1.0
C      1  0.4841150000000  0.4526450000000  0.4610930000000 1.0
C      1  0.5167140000000  0.4893720000000  0.4494110000000 1.0
C      1  0.5301930000000  0.6044950000000  0.4332930000000 1.0
C      1  0.4737300000000  0.4202700000000  0.5146680000000 1.0
C      1  0.4966040000000  0.4274640000000  0.4539120000000 1.0
C      1  0.4981910000000  0.4470480000000  0.5650920000000 1.0
C      1  0.5183950000000  0.4639270000000  0.5774610000000 1.0
C      1  0.5123390000000  0.4839050000000  0.5143900000000 1.0
C      1  0.5159020000000  0.4358790000000  0.4987450000000 1.0
C      1  0.4509960000000  0.4985280000000  0.5069210000000 1.0
C      1  0.4529710000000  0.5784960000000  0.5311620000000 1.0
C      1  0.4436950000000  0.5778340000000  0.5040360000000 1.0
C      1  0.5166290000000  0.4914990000000  0.5747470000000 1.0
C      1  0.5386230000000  0.5599680000000  0.4529900000000 1.0
C      1  0.4530790000000  0.6026190000000  0.5452120000000 1.0
C      1  0.4255240000000  0.5121720000000  0.5126850000000 1.0
C      1  0.5143030000000  0.4617960000000  0.4048020000000 1.0
C      1  0.4616320000000  0.5548060000000  0.5437400000000 1.0
C      1  0.4991720000000  0.4208470000000  0.4268530000000 1.0
C      1  0.4710140000000  0.5082230000000  0.5264050000000 1.0
C      1  0.6237260000000  0.3328680000000  0.5135740000000 1.0
C      1  0.4288260000000  0.5195750000000  0.5406420000000 1.0
C      1  0.5733920000000  0.3878860000000  0.5398890000000 1.0
C      1  0.5380840000000  0.4255440000000  0.5559950000000 1.0
C      1  0.5009060000000  0.4253680000000  0.5208940000000 1.0
C      1  0.5230780000000  0.5827780000000  0.4499110000000 1.0
C      1  0.4246930000000  0.5588690000000  0.4955400000000 1.0
C      1  0.4167630000000  0.5331960000000  0.4962280000000 1.0
C      1  0.5048560000000  0.4717400000000  0.4681240000000 1.0
C      1  0.4942580000000  0.6374850000000  0.4365870000000 1.0
C      1  0.5193710000000  0.5365880000000  0.5574600000000 1.0
C      1  0.5153060000000  0.4648240000000  0.4941890000000 1.0
C      1  0.4762430000000  0.6022070000000  0.4678290000000 1.0
C      1  0.4525670000000  0.4783690000000  0.4878220000000 1.0
C      1  0.5147270000000  0.4199150000000  0.4747180000000 1.0
C      1  0.5112110000000  0.5106490000000  0.5548680000000 1.0
C      1  0.4613110000000  0.4533680000000  0.4785180000000 1.0
C      1  0.4764400000000  0.6266580000000  0.4536980000000 1.0
C      1  0.5564410000000  0.4063180000000  0.5485160000000 1.0
END
