TITL C-627108-131-1151 1.58029391052647 125000 -325.952910981553 0 0 54 (C1) n - 1
REM
REM in /home/nfs/bkarasulu/CARBON/AIRSS/Generating-Clusters/LCBOP/Only-C1/SD-CG/FIRE-CG
REM
REM
REM
REM
REM
REM ./C.cell (11c1c37f851c82e70ff6c80c92926a4b)
REM AIRSS Version 0.9.1 bugfix July 2018 build 013d7b7c2542+ Fri, 06 Jul 2018 19:26:36 +0100
REM compiler GCC version 9.2.1 20190827 (Red Hat 9.2.1-1)
REM options -cpp -mtune=generic -march=x86-64 -g -O0 -fpre-include=/usr/include/finclude/math-vector-fortran.h
REM seed -898708256 -1346853451 -301595795 1199791982 -1443532018 -95095011 -1176371930 1122040795 437838284 1836880168 -1343643831 -1664032891 45306412 -1488010613 195943900 262463195 1402244421 1971950127 1178316628 -271822477 376965269 -1740737393 87204620 327837942 219080958 -812314573 -224208169 1151090083 213547418 1114243142 -1245996349 -869302837 267813517
REM
CELL 1.54180   50.00000   50.00000   50.00000   90.00000   90.00000   90.00000
LATT -1
SFAC C  
C      1  0.5198740000000  0.5789170000000  0.5258810000000 1.0
C      1  0.5031970000000  0.4262330000000  0.4905160000000 1.0
C      1  0.5558900000000  0.5113310000000  0.5772860000000 1.0
C      1  0.5209030000000  0.4606480000000  0.4462760000000 1.0
C      1  0.4355010000000  0.4676160000000  0.5007420000000 1.0
C      1  0.4634820000000  0.5706770000000  0.4799200000000 1.0
C      1  0.4975300000000  0.4232690000000  0.5188560000000 1.0
C      1  0.4712580000000  0.4151170000000  0.5263010000000 1.0
C      1  0.5553960000000  0.4608100000000  0.5314620000000 1.0
C      1  0.5734350000000  0.4745510000000  0.5478200000000 1.0
C      1  0.5370380000000  0.4406550000000  0.4583700000000 1.0
C      1  0.4662510000000  0.5372750000000  0.5884930000000 1.0
C      1  0.5205000000000  0.4795230000000  0.4997800000000 1.0
C      1  0.4823650000000  0.5898410000000  0.4717930000000 1.0
C      1  0.4785750000000  0.4721320000000  0.5249860000000 1.0
C      1  0.4985860000000  0.4835820000000  0.5664290000000 1.0
C      1  0.5300340000000  0.5174790000000  0.5794380000000 1.0
C      1  0.4636630000000  0.5250340000000  0.5103510000000 1.0
C      1  0.4488990000000  0.4788640000000  0.4549950000000 1.0
C      1  0.4947370000000  0.4632760000000  0.5471370000000 1.0
C      1  0.4762470000000  0.4824610000000  0.4483350000000 1.0
C      1  0.4568310000000  0.5710490000000  0.5084370000000 1.0
C      1  0.5182400000000  0.5968930000000  0.5059850000000 1.0
C      1  0.5468010000000  0.5799230000000  0.4209260000000 1.0
C      1  0.4526900000000  0.4602340000000  0.5219010000000 1.0
C      1  0.4903460000000  0.5151840000000  0.5077460000000 1.0
C      1  0.5375950000000  0.5555630000000  0.4221190000000 1.0
C      1  0.5272890000000  0.5313150000000  0.4249060000000 1.0
C      1  0.5345460000000  0.5327610000000  0.4943070000000 1.0
C      1  0.4740540000000  0.5320620000000  0.4467730000000 1.0
C      1  0.5126590000000  0.5331820000000  0.5106340000000 1.0
C      1  0.5039960000000  0.6006460000000  0.4835430000000 1.0
C      1  0.4843090000000  0.4383250000000  0.4718730000000 1.0
C      1  0.4512160000000  0.4330120000000  0.5303830000000 1.0
C      1  0.5383000000000  0.4409150000000  0.5420800000000 1.0
C      1  0.4561210000000  0.4356770000000  0.4723650000000 1.0
C      1  0.5293730000000  0.4825860000000  0.4303610000000 1.0
C      1  0.5147410000000  0.5072960000000  0.4317520000000 1.0
C      1  0.5292440000000  0.4247640000000  0.4791050000000 1.0
C      1  0.4876560000000  0.5076670000000  0.4410800000000 1.0
C      1  0.5091400000000  0.5534400000000  0.5307390000000 1.0
C      1  0.5036510000000  0.5111040000000  0.5719650000000 1.0
C      1  0.4945420000000  0.4876890000000  0.5071640000000 1.0
C      1  0.4935120000000  0.4599510000000  0.4543430000000 1.0
C      1  0.4592140000000  0.5448650000000  0.4672020000000 1.0
C      1  0.4405780000000  0.4596950000000  0.4741260000000 1.0
C      1  0.4846160000000  0.5492380000000  0.5452430000000 1.0
C      1  0.5102920000000  0.4398700000000  0.5393220000000 1.0
C      1  0.5730520000000  0.4946400000000  0.5654580000000 1.0
C      1  0.5508070000000  0.4800390000000  0.4135110000000 1.0
C      1  0.4627400000000  0.5492050000000  0.5262340000000 1.0
C      1  0.4846270000000  0.5325840000000  0.5686600000000 1.0
C      1  0.4487470000000  0.5263020000000  0.4863880000000 1.0
C      1  0.5451130000000  0.4730320000000  0.5082020000000 1.0
END
