TITL C-627107-135-1063 0.094363086849197 125000 -287.668778682301 0 0 49 (C1) n - 1
REM
REM in /home/nfs/bkarasulu/CARBON/AIRSS/Generating-Clusters/LCBOP/Only-C1/SD-CG/FIRE-CG
REM
REM
REM
REM
REM
REM ./C.cell (11c1c37f851c82e70ff6c80c92926a4b)
REM AIRSS Version 0.9.1 bugfix July 2018 build 013d7b7c2542+ Fri, 06 Jul 2018 19:26:36 +0100
REM compiler GCC version 9.2.1 20190827 (Red Hat 9.2.1-1)
REM options -cpp -mtune=generic -march=x86-64 -g -O0 -fpre-include=/usr/include/finclude/math-vector-fortran.h
REM seed 1164915800 -304096888 1834592148 2130371909 1094275604 2094855692 -1097300111 890518598 116455343 17110576 1175527386 679869601 -635939829 975578489 463620205 2025660825 1175314234 422433658 451905722 -725116679 1630074741 249726262 -1959114340 341274260 1806218801 -318267689 1213831096 1034862732 832450008 1813025058 -256618457 321125542 1278514728
REM
CELL 1.54180   50.00000   50.00000   50.00000   90.00000   90.00000   90.00000
LATT -1
SFAC C  
C      1  0.5658220000000  0.5760610000000  0.5200040000000 1.0
C      1  0.5070340000000  0.5898500000000  0.5412420000000 1.0
C      1  0.5312800000000  0.4555610000000  0.6138500000000 1.0
C      1  0.4596450000000  0.5526390000000  0.3553660000000 1.0
C      1  0.4493880000000  0.4563180000000  0.5261830000000 1.0
C      1  0.4833590000000  0.5501980000000  0.5571100000000 1.0
C      1  0.5223270000000  0.5962420000000  0.5201460000000 1.0
C      1  0.4945240000000  0.5359850000000  0.4715110000000 1.0
C      1  0.4878960000000  0.4846710000000  0.5246000000000 1.0
C      1  0.4737540000000  0.5331790000000  0.3654580000000 1.0
C      1  0.5348990000000  0.5690070000000  0.4826540000000 1.0
C      1  0.5123260000000  0.4441180000000  0.5060950000000 1.0
C      1  0.4450000000000  0.4561840000000  0.4775740000000 1.0
C      1  0.4685350000000  0.4714350000000  0.5405140000000 1.0
C      1  0.5001420000000  0.4941790000000  0.3896260000000 1.0
C      1  0.5174680000000  0.5519940000000  0.4720120000000 1.0
C      1  0.5511650000000  0.4404200000000  0.5417460000000 1.0
C      1  0.4843200000000  0.4761090000000  0.4559720000000 1.0
C      1  0.4963670000000  0.4861610000000  0.4794370000000 1.0
C      1  0.5397510000000  0.4558270000000  0.6398080000000 1.0
C      1  0.5310270000000  0.4580930000000  0.3991420000000 1.0
C      1  0.5053140000000  0.5680350000000  0.5590420000000 1.0
C      1  0.4712640000000  0.4704720000000  0.5681980000000 1.0
C      1  0.5292050000000  0.5606320000000  0.5720710000000 1.0
C      1  0.4562360000000  0.4703860000000  0.4560740000000 1.0
C      1  0.5553360000000  0.5599920000000  0.5659100000000 1.0
C      1  0.4869190000000  0.5126190000000  0.5169260000000 1.0
C      1  0.5485190000000  0.4482090000000  0.5930120000000 1.0
C      1  0.4993210000000  0.4725790000000  0.4327470000000 1.0
C      1  0.4551390000000  0.5481310000000  0.4366570000000 1.0
C      1  0.5552730000000  0.4430720000000  0.5678530000000 1.0
C      1  0.4683570000000  0.4208670000000  0.4999670000000 1.0
C      1  0.4924930000000  0.5136390000000  0.4884150000000 1.0
C      1  0.5704510000000  0.5663810000000  0.5446490000000 1.0
C      1  0.5364730000000  0.4406830000000  0.5196180000000 1.0
C      1  0.4500990000000  0.4424500000000  0.5015290000000 1.0
C      1  0.4267650000000  0.4873640000000  0.4142130000000 1.0
C      1  0.5426010000000  0.5829840000000  0.5055900000000 1.0
C      1  0.4401400000000  0.4791320000000  0.4350100000000 1.0
C      1  0.4822960000000  0.5332640000000  0.5347730000000 1.0
C      1  0.4639930000000  0.5495200000000  0.5763610000000 1.0
C      1  0.4876930000000  0.5135060000000  0.3764690000000 1.0
C      1  0.5504580000000  0.4423980000000  0.3917010000000 1.0
C      1  0.4736050000000  0.5422780000000  0.4540880000000 1.0
C      1  0.4952530000000  0.4222870000000  0.5007930000000 1.0
C      1  0.4844010000000  0.4675480000000  0.5910810000000 1.0
C      1  0.5102230000000  0.4748980000000  0.4071520000000 1.0
C      1  0.5050210000000  0.4626310000000  0.6070610000000 1.0
C      1  0.5011260000000  0.4698130000000  0.5029910000000 1.0
END
