TITL C-627106-156-198 0.4089769532902 125000 -1230.46300179561 0 0 200 (C1) n - 1
REM
REM in /home/nfs/bkarasulu/CARBON/AIRSS/Generating-Clusters/LCBOP/Only-C1/SD-CG/FIRE-CG
REM
REM
REM
REM
REM
REM ./C.cell (11c1c37f851c82e70ff6c80c92926a4b)
REM AIRSS Version 0.9.1 bugfix July 2018 build 013d7b7c2542+ Fri, 06 Jul 2018 19:26:36 +0100
REM compiler GCC version 9.2.1 20190827 (Red Hat 9.2.1-1)
REM options -cpp -mtune=generic -march=x86-64 -g -O0 -fpre-include=/usr/include/finclude/math-vector-fortran.h
REM seed -2035579164 2128342454 1101335462 -1325325784 1567666249 -717130831 -1444464834 1078439125 491528089 1463277769 -1321586329 -1903997625 953390010 1467205347 -1092860832 -1509815756 984443327 -1588467200 1896463560 -1677036440 -926769540 -1617138084 1487534159 -2034211946 904918327 769856630 -1687470070 -963892 -1825573712 -900572337 444201989 -1225393737 -935267358
REM
CELL 1.54180   50.00000   50.00000   50.00000   90.00000   90.00000   90.00000
LATT -1
SFAC C  
C      1  0.5994830000000  0.4662960000000  0.5762250000000 1.0
C      1  0.4832460000000  0.3677160000000  0.5393020000000 1.0
C      1  0.5436710000000  0.5102930000000  0.4396760000000 1.0
C      1  0.4259890000000  0.5727390000000  0.4064460000000 1.0
C      1  0.5968850000000  0.5628520000000  0.5298230000000 1.0
C      1  0.5490890000000  0.4478590000000  0.3831920000000 1.0
C      1  0.4211590000000  0.3821750000000  0.4591760000000 1.0
C      1  0.4390610000000  0.3952210000000  0.4764940000000 1.0
C      1  0.4378550000000  0.4149500000000  0.5502850000000 1.0
C      1  0.5182580000000  0.5580270000000  0.3899690000000 1.0
C      1  0.4007240000000  0.5265740000000  0.5066280000000 1.0
C      1  0.3923950000000  0.5618510000000  0.4422310000000 1.0
C      1  0.4028180000000  0.3669750000000  0.4485670000000 1.0
C      1  0.5918760000000  0.5707720000000  0.5562540000000 1.0
C      1  0.4768880000000  0.3573840000000  0.5155410000000 1.0
C      1  0.4641400000000  0.4522860000000  0.5707750000000 1.0
C      1  0.4312280000000  0.5621640000000  0.4698900000000 1.0
C      1  0.5823660000000  0.5251450000000  0.3885150000000 1.0
C      1  0.4719640000000  0.5157850000000  0.5316490000000 1.0
C      1  0.4517710000000  0.4527310000000  0.5201270000000 1.0
C      1  0.5453480000000  0.4713090000000  0.5487260000000 1.0
C      1  0.5671200000000  0.5006180000000  0.3870510000000 1.0
C      1  0.3869830000000  0.4870650000000  0.3679170000000 1.0
C      1  0.4704560000000  0.4614740000000  0.4070060000000 1.0
C      1  0.3935870000000  0.4626770000000  0.3614900000000 1.0
C      1  0.6137550000000  0.4633210000000  0.4713110000000 1.0
C      1  0.5365340000000  0.4836240000000  0.4966600000000 1.0
C      1  0.5311340000000  0.5929890000000  0.4394550000000 1.0
C      1  0.5252940000000  0.5718460000000  0.5835900000000 1.0
C      1  0.5989080000000  0.5777810000000  0.4373450000000 1.0
C      1  0.5503420000000  0.5149370000000  0.5300770000000 1.0
C      1  0.4414440000000  0.4998490000000  0.5001520000000 1.0
C      1  0.5143710000000  0.5997780000000  0.4179800000000 1.0
C      1  0.4957120000000  0.5199540000000  0.4231380000000 1.0
C      1  0.4623660000000  0.5607230000000  0.4345580000000 1.0
C      1  0.6235620000000  0.4744260000000  0.5882920000000 1.0
C      1  0.3998630000000  0.5754990000000  0.5373810000000 1.0
C      1  0.5182560000000  0.4513900000000  0.4200500000000 1.0
C      1  0.4301570000000  0.4029500000000  0.4102530000000 1.0
C      1  0.4439730000000  0.5462070000000  0.4495330000000 1.0
C      1  0.4915710000000  0.4948260000000  0.5930080000000 1.0
C      1  0.5173260000000  0.4898020000000  0.3939020000000 1.0
C      1  0.5637580000000  0.5036830000000  0.5780010000000 1.0
C      1  0.5260730000000  0.4602650000000  0.3937140000000 1.0
C      1  0.4569560000000  0.6346660000000  0.3907280000000 1.0
C      1  0.4729600000000  0.3648960000000  0.4902160000000 1.0
C      1  0.4851380000000  0.4853470000000  0.3945380000000 1.0
C      1  0.5158940000000  0.3973600000000  0.4779070000000 1.0
C      1  0.4729240000000  0.5093190000000  0.4090090000000 1.0
C      1  0.4852730000000  0.5191950000000  0.4824560000000 1.0
C      1  0.5968930000000  0.4410240000000  0.4775630000000 1.0
C      1  0.4065260000000  0.4286500000000  0.4947880000000 1.0
C      1  0.4188040000000  0.5337250000000  0.5836990000000 1.0
C      1  0.3919680000000  0.4500210000000  0.5020160000000 1.0
C      1  0.5112120000000  0.4732870000000  0.4370350000000 1.0
C      1  0.4699220000000  0.5418850000000  0.5404550000000 1.0
C      1  0.5338830000000  0.5253930000000  0.4667280000000 1.0
C      1  0.6012510000000  0.4189690000000  0.5617620000000 1.0
C      1  0.5574990000000  0.5534710000000  0.5022100000000 1.0
C      1  0.4441430000000  0.4742050000000  0.4172460000000 1.0
C      1  0.5423780000000  0.4111680000000  0.4282260000000 1.0
C      1  0.4803100000000  0.3861270000000  0.6338620000000 1.0
C      1  0.5106770000000  0.4376410000000  0.5656950000000 1.0
C      1  0.4416300000000  0.5033750000000  0.6103910000000 1.0
C      1  0.5431240000000  0.5410310000000  0.5234530000000 1.0
C      1  0.5724010000000  0.5808880000000  0.5717100000000 1.0
C      1  0.4529750000000  0.6070540000000  0.6314520000000 1.0
C      1  0.5996080000000  0.3835360000000  0.4982300000000 1.0
C      1  0.5379010000000  0.4148050000000  0.4729000000000 1.0
C      1  0.5031880000000  0.4788440000000  0.5360410000000 1.0
C      1  0.5081930000000  0.5362000000000  0.4753970000000 1.0
C      1  0.4825540000000  0.4546850000000  0.4720400000000 1.0
C      1  0.4948000000000  0.6212140000000  0.4212730000000 1.0
C      1  0.4745160000000  0.5876130000000  0.3970060000000 1.0
C      1  0.4826470000000  0.6289910000000  0.4720030000000 1.0
C      1  0.6456890000000  0.4822100000000  0.5996460000000 1.0
C      1  0.5753680000000  0.4064520000000  0.5600970000000 1.0
C      1  0.5749610000000  0.4775920000000  0.5875430000000 1.0
C      1  0.5575000000000  0.4158130000000  0.4519460000000 1.0
C      1  0.5456090000000  0.5898820000000  0.5738990000000 1.0
C      1  0.4999380000000  0.4149110000000  0.5534920000000 1.0
C      1  0.4592250000000  0.5948500000000  0.5056120000000 1.0
C      1  0.4395310000000  0.4383140000000  0.5661170000000 1.0
C      1  0.6018080000000  0.4465300000000  0.5545320000000 1.0
C      1  0.6049990000000  0.5150300000000  0.5185340000000 1.0
C      1  0.4271810000000  0.4514140000000  0.4215680000000 1.0
C      1  0.3995190000000  0.5663530000000  0.4149620000000 1.0
C      1  0.3779800000000  0.5369500000000  0.3830500000000 1.0
C      1  0.5385870000000  0.6127680000000  0.5593810000000 1.0
C      1  0.5870010000000  0.4044940000000  0.5117110000000 1.0
C      1  0.4623770000000  0.5868200000000  0.5338630000000 1.0
C      1  0.5507920000000  0.5221400000000  0.5965580000000 1.0
C      1  0.4168400000000  0.5087750000000  0.4608340000000 1.0
C      1  0.5423250000000  0.3884520000000  0.5229340000000 1.0
C      1  0.5032880000000  0.5798450000000  0.3992700000000 1.0
C      1  0.4843900000000  0.5682930000000  0.4491490000000 1.0
C      1  0.5189380000000  0.4618010000000  0.5527220000000 1.0
C      1  0.4117980000000  0.5338190000000  0.5560370000000 1.0
C      1  0.4813770000000  0.4999850000000  0.4624050000000 1.0
C      1  0.5547420000000  0.4626190000000  0.6028370000000 1.0
C      1  0.4664010000000  0.5135410000000  0.5039750000000 1.0
C      1  0.4700320000000  0.4321060000000  0.4190670000000 1.0
C      1  0.4670020000000  0.3877600000000  0.4744040000000 1.0
C      1  0.5104810000000  0.4760330000000  0.5084930000000 1.0
C      1  0.5759680000000  0.4378520000000  0.4569620000000 1.0
C      1  0.5774600000000  0.5711220000000  0.5108260000000 1.0
C      1  0.4582320000000  0.4432870000000  0.4674060000000 1.0
C      1  0.4207770000000  0.5587440000000  0.5455640000000 1.0
C      1  0.5673400000000  0.3985710000000  0.5327760000000 1.0
C      1  0.5065650000000  0.4788800000000  0.6113920000000 1.0
C      1  0.4453160000000  0.4910990000000  0.5849140000000 1.0
C      1  0.3921970000000  0.5523810000000  0.4951320000000 1.0
C      1  0.5596650000000  0.4147280000000  0.5822970000000 1.0
C      1  0.4479890000000  0.5612770000000  0.5396790000000 1.0
C      1  0.5197980000000  0.5515070000000  0.5325640000000 1.0
C      1  0.5571430000000  0.5411220000000  0.4767770000000 1.0
C      1  0.4873820000000  0.5227180000000  0.5973180000000 1.0
C      1  0.5462290000000  0.4356140000000  0.5962830000000 1.0
C      1  0.3940580000000  0.5773780000000  0.5101080000000 1.0
C      1  0.5930720000000  0.5100110000000  0.4713560000000 1.0
C      1  0.6191090000000  0.4967190000000  0.5331160000000 1.0
C      1  0.4157300000000  0.4532460000000  0.5699580000000 1.0
C      1  0.5623940000000  0.4840770000000  0.4350600000000 1.0
C      1  0.5339300000000  0.6157420000000  0.5086240000000 1.0
C      1  0.4945690000000  0.5561630000000  0.5409850000000 1.0
C      1  0.4913560000000  0.3898090000000  0.5517350000000 1.0
C      1  0.5325810000000  0.5998440000000  0.4874400000000 1.0
C      1  0.5618360000000  0.4639950000000  0.4551580000000 1.0
C      1  0.6304160000000  0.5504480000000  0.4978500000000 1.0
C      1  0.4870780000000  0.5824010000000  0.5514250000000 1.0
C      1  0.4911520000000  0.4750650000000  0.4557740000000 1.0
C      1  0.3796640000000  0.5621770000000  0.3950020000000 1.0
C      1  0.4402960000000  0.5313730000000  0.6026740000000 1.0
C      1  0.5813450000000  0.5357960000000  0.4578070000000 1.0
C      1  0.4022440000000  0.5575440000000  0.4683180000000 1.0
C      1  0.5252750000000  0.5840110000000  0.4657520000000 1.0
C      1  0.5650340000000  0.5320170000000  0.4316690000000 1.0
C      1  0.4903790000000  0.4003060000000  0.4615850000000 1.0
C      1  0.6103120000000  0.3643370000000  0.4842360000000 1.0
C      1  0.6020250000000  0.5571930000000  0.4551310000000 1.0
C      1  0.4762610000000  0.4424310000000  0.5163270000000 1.0
C      1  0.4354680000000  0.5193900000000  0.4421560000000 1.0
C      1  0.4340340000000  0.4046080000000  0.5257670000000 1.0
C      1  0.4912520000000  0.4583510000000  0.6239980000000 1.0
C      1  0.5348240000000  0.4806700000000  0.6155690000000 1.0
C      1  0.5188310000000  0.5002430000000  0.4246880000000 1.0
C      1  0.3627720000000  0.5824100000000  0.3877430000000 1.0
C      1  0.4494780000000  0.4874970000000  0.6322240000000 1.0
C      1  0.4898430000000  0.6324100000000  0.4464780000000 1.0
C      1  0.6103390000000  0.4890600000000  0.4632350000000 1.0
C      1  0.4393540000000  0.4745500000000  0.5116680000000 1.0
C      1  0.5232870000000  0.3854090000000  0.5034670000000 1.0
C      1  0.5378100000000  0.4384270000000  0.4873410000000 1.0
C      1  0.4898210000000  0.4088540000000  0.6253720000000 1.0
C      1  0.5351100000000  0.6215720000000  0.5345060000000 1.0
C      1  0.5449220000000  0.4641810000000  0.4784140000000 1.0
C      1  0.5052310000000  0.5635580000000  0.4669130000000 1.0
C      1  0.4905380000000  0.4160500000000  0.4349820000000 1.0
C      1  0.4672060000000  0.5429200000000  0.5998980000000 1.0
C      1  0.4180140000000  0.5109990000000  0.4890140000000 1.0
C      1  0.4372800000000  0.5844450000000  0.4889450000000 1.0
C      1  0.5726120000000  0.4545880000000  0.3951980000000 1.0
C      1  0.5511630000000  0.4992670000000  0.5531490000000 1.0
C      1  0.4992710000000  0.4326950000000  0.6147630000000 1.0
C      1  0.5381120000000  0.5381670000000  0.3906790000000 1.0
C      1  0.5179260000000  0.4336850000000  0.5930640000000 1.0
C      1  0.5893650000000  0.4496190000000  0.5284430000000 1.0
C      1  0.6136750000000  0.5424340000000  0.5191620000000 1.0
C      1  0.4673820000000  0.4674980000000  0.6361470000000 1.0
C      1  0.5644410000000  0.5413620000000  0.4048390000000 1.0
C      1  0.4646630000000  0.5892890000000  0.6156650000000 1.0
C      1  0.5850010000000  0.5068390000000  0.4990870000000 1.0
C      1  0.4410330000000  0.4262840000000  0.4189210000000 1.0
C      1  0.4000080000000  0.5167320000000  0.5350580000000 1.0
C      1  0.4759910000000  0.5703520000000  0.5985230000000 1.0
C      1  0.3936340000000  0.4886230000000  0.5384680000000 1.0
C      1  0.4809790000000  0.4931360000000  0.5464030000000 1.0
C      1  0.3864020000000  0.4720540000000  0.5164040000000 1.0
C      1  0.4710550000000  0.4819300000000  0.5728760000000 1.0
C      1  0.4744750000000  0.6151630000000  0.4933730000000 1.0
C      1  0.4269540000000  0.4092200000000  0.4987100000000 1.0
C      1  0.5578380000000  0.5004400000000  0.5068110000000 1.0
C      1  0.3810850000000  0.5120120000000  0.3746620000000 1.0
C      1  0.4295560000000  0.6422320000000  0.6627300000000 1.0
C      1  0.5934180000000  0.4320510000000  0.5054660000000 1.0
C      1  0.5170130000000  0.4239170000000  0.4258340000000 1.0
C      1  0.5359870000000  0.5460730000000  0.5911730000000 1.0
C      1  0.4116360000000  0.5957090000000  0.4969250000000 1.0
C      1  0.5723540000000  0.4803520000000  0.4072140000000 1.0
C      1  0.4008740000000  0.4739070000000  0.5614590000000 1.0
C      1  0.6242600000000  0.5561880000000  0.4723920000000 1.0
C      1  0.4736180000000  0.6165180000000  0.4020200000000 1.0
C      1  0.5439580000000  0.5073640000000  0.6199840000000 1.0
C      1  0.5382680000000  0.5088680000000  0.3825410000000 1.0
C      1  0.4475930000000  0.5027780000000  0.4218300000000 1.0
C      1  0.4541140000000  0.5724380000000  0.4100700000000 1.0
C      1  0.4935380000000  0.4547990000000  0.4978210000000 1.0
C      1  0.5630060000000  0.4581430000000  0.5319180000000 1.0
C      1  0.4963890000000  0.5789770000000  0.5796200000000 1.0
C      1  0.4411690000000  0.6247890000000  0.6472210000000 1.0
END
