TITL C-627109-622-1707 94.2502942221916 125000 -256.335966759873 0 0 43 (C1) n - 1
REM
REM in /home/nfs/bkarasulu/CARBON/AIRSS/Generating-Clusters/LCBOP/Only-C1/SD-CG/FIRE-CG
REM
REM
REM
REM
REM
REM ./C.cell (11c1c37f851c82e70ff6c80c92926a4b)
REM AIRSS Version 0.9.1 bugfix July 2018 build 013d7b7c2542+ Fri, 06 Jul 2018 19:26:36 +0100
REM compiler GCC version 9.2.1 20190827 (Red Hat 9.2.1-1)
REM options -cpp -mtune=generic -march=x86-64 -g -O0 -fpre-include=/usr/include/finclude/math-vector-fortran.h
REM seed -1373445909 1798322323 -203235712 -2042162122 982677759 -524230839 -1834279306 -1530618469 -2063797669 -1254636461 -1790597157 -2060862856 -1037577130 307163155 1766564529 408708830 -512439115 534349914 1486493783 917173974 965077895 1653199693 626040695 530866955 -1918905396 -169104501 -1610329686 -751908166 501542495 -351969153 1607402223 1339856218 -1365402690
REM
CELL 1.54180   50.00000   50.00000   50.00000   90.00000   90.00000   90.00000
LATT -1
SFAC C  
C      1  0.4847870000000  0.4618230000000  0.3882650000000 1.0
C      1  0.4681120000000  0.4578060000000  0.3106390000000 1.0
C      1  0.5215090000000  0.5787570000000  0.5745390000000 1.0
C      1  0.4427790000000  0.5930210000000  0.5938010000000 1.0
C      1  0.5062110000000  0.5389070000000  0.5439980000000 1.0
C      1  0.4937500000000  0.4465060000000  0.5452490000000 1.0
C      1  0.4801780000000  0.5477670000000  0.5363940000000 1.0
C      1  0.4349960000000  0.5684050000000  0.5868410000000 1.0
C      1  0.5330050000000  0.4952520000000  0.4660460000000 1.0
C      1  0.4718120000000  0.4359210000000  0.4804190000000 1.0
C      1  0.4903480000000  0.4631560000000  0.4141280000000 1.0
C      1  0.5168210000000  0.5146050000000  0.5342730000000 1.0
C      1  0.4253830000000  0.3882580000000  0.5084800000000 1.0
C      1  0.4570880000000  0.4551400000000  0.2593000000000 1.0
C      1  0.4625550000000  0.4564620000000  0.2847560000000 1.0
C      1  0.4577980000000  0.5399180000000  0.5514600000000 1.0
C      1  0.4793760000000  0.6153530000000  0.5433090000000 1.0
C      1  0.4442800000000  0.4061380000000  0.5069190000000 1.0
C      1  0.5082420000000  0.6015780000000  0.5789420000000 1.0
C      1  0.5955530000000  0.4917210000000  0.5040410000000 1.0
C      1  0.4962020000000  0.4645440000000  0.4413880000000 1.0
C      1  0.5314500000000  0.5141150000000  0.5104590000000 1.0
C      1  0.6069090000000  0.4782410000000  0.5239680000000 1.0
C      1  0.4778900000000  0.5708540000000  0.5203870000000 1.0
C      1  0.5870600000000  0.4535450000000  0.5640270000000 1.0
C      1  0.5358030000000  0.4535380000000  0.5686090000000 1.0
C      1  0.5161730000000  0.4817790000000  0.4506340000000 1.0
C      1  0.4821290000000  0.4487010000000  0.4596290000000 1.0
C      1  0.4838680000000  0.6133590000000  0.5711240000000 1.0
C      1  0.5135660000000  0.4636230000000  0.5549550000000 1.0
C      1  0.4736690000000  0.4591470000000  0.3365140000000 1.0
C      1  0.4772450000000  0.5974720000000  0.5234060000000 1.0
C      1  0.4776390000000  0.4339820000000  0.5283390000000 1.0
C      1  0.4792270000000  0.4604870000000  0.3623900000000 1.0
C      1  0.5207180000000  0.5554970000000  0.5614550000000 1.0
C      1  0.6038970000000  0.4640370000000  0.5462780000000 1.0
C      1  0.4409870000000  0.5481020000000  0.5705380000000 1.0
C      1  0.5619190000000  0.4498800000000  0.5719180000000 1.0
C      1  0.4615760000000  0.6112210000000  0.5881110000000 1.0
C      1  0.5127250000000  0.4907900000000  0.5483260000000 1.0
C      1  0.5739360000000  0.5009680000000  0.4916460000000 1.0
C      1  0.4645220000000  0.4252940000000  0.5052340000000 1.0
C      1  0.5463030000000  0.5043280000000  0.4888640000000 1.0
END
