TITL C-627109-622-1685 0.000412880554553009 125000 -434.979490897819 0 0 73 (C1) n - 1
REM
REM in /home/nfs/bkarasulu/CARBON/AIRSS/Generating-Clusters/LCBOP/Only-C1/SD-CG/FIRE-CG
REM
REM
REM
REM
REM
REM ./C.cell (11c1c37f851c82e70ff6c80c92926a4b)
REM AIRSS Version 0.9.1 bugfix July 2018 build 013d7b7c2542+ Fri, 06 Jul 2018 19:26:36 +0100
REM compiler GCC version 9.2.1 20190827 (Red Hat 9.2.1-1)
REM options -cpp -mtune=generic -march=x86-64 -g -O0 -fpre-include=/usr/include/finclude/math-vector-fortran.h
REM seed -254683261 -883345536 443674194 -1515270691 243587612 -1264181748 -374467897 313408505 -860297465 -1049206959 1674014478 190182180 -1688885107 448964419 1997236192 -950161094 -440867474 -399529149 1095228056 -1943050638 -208610649 424175396 -775220600 2092100206 237007311 1273084649 -1636339720 -1582648325 1282461393 -1251838627 -1487464535 -907490804 1549931410
REM
CELL 1.54180   50.00000   50.00000   50.00000   90.00000   90.00000   90.00000
LATT -1
SFAC C  
C      1  0.5107770000000  0.5740140000000  0.5117900000000 1.0
C      1  0.5247250000000  0.4778920000000  0.5798050000000 1.0
C      1  0.5333510000000  0.4470320000000  0.4829040000000 1.0
C      1  0.6242190000000  0.4981880000000  0.5482320000000 1.0
C      1  0.4698640000000  0.4748840000000  0.4990120000000 1.0
C      1  0.5410880000000  0.4698820000000  0.5577230000000 1.0
C      1  0.5665240000000  0.4815550000000  0.4501180000000 1.0
C      1  0.5202530000000  0.5043280000000  0.5857990000000 1.0
C      1  0.5468440000000  0.5117380000000  0.4178190000000 1.0
C      1  0.4772790000000  0.4372400000000  0.4667400000000 1.0
C      1  0.5169160000000  0.4660910000000  0.4894910000000 1.0
C      1  0.5498470000000  0.4494370000000  0.5397430000000 1.0
C      1  0.4765500000000  0.5524910000000  0.4546170000000 1.0
C      1  0.3729710000000  0.3715370000000  0.4861320000000 1.0
C      1  0.4512270000000  0.4856380000000  0.5169740000000 1.0
C      1  0.4290960000000  0.5338600000000  0.4650860000000 1.0
C      1  0.5538370000000  0.5661080000000  0.4909520000000 1.0
C      1  0.5578060000000  0.4597440000000  0.4345610000000 1.0
C      1  0.4761960000000  0.4602030000000  0.4229680000000 1.0
C      1  0.4604080000000  0.4570900000000  0.4785490000000 1.0
C      1  0.4017790000000  0.4146560000000  0.4774650000000 1.0
C      1  0.4271360000000  0.5817780000000  0.5815950000000 1.0
C      1  0.4974190000000  0.4819410000000  0.5015770000000 1.0
C      1  0.4332480000000  0.4583360000000  0.4699270000000 1.0
C      1  0.5755890000000  0.5026960000000  0.5562560000000 1.0
C      1  0.5996920000000  0.5575880000000  0.5422820000000 1.0
C      1  0.4199020000000  0.5430330000000  0.4898590000000 1.0
C      1  0.4822070000000  0.4810500000000  0.4074060000000 1.0
C      1  0.4258330000000  0.5640320000000  0.5604910000000 1.0
C      1  0.5064410000000  0.5050370000000  0.5156440000000 1.0
C      1  0.5773220000000  0.5472170000000  0.5302950000000 1.0
C      1  0.5260160000000  0.5295790000000  0.5775240000000 1.0
C      1  0.4995080000000  0.5492340000000  0.4701180000000 1.0
C      1  0.5498490000000  0.4953820000000  0.5471790000000 1.0
C      1  0.4235480000000  0.4819820000000  0.4586510000000 1.0
C      1  0.4284440000000  0.4959070000000  0.5295650000000 1.0
C      1  0.4297260000000  0.5355110000000  0.5615400000000 1.0
C      1  0.5642920000000  0.5398970000000  0.4842900000000 1.0
C      1  0.4977750000000  0.5962300000000  0.5206730000000 1.0
C      1  0.5388940000000  0.4416140000000  0.4294770000000 1.0
C      1  0.5495570000000  0.5272570000000  0.4632930000000 1.0
C      1  0.4268990000000  0.5232400000000  0.5355990000000 1.0
C      1  0.4857470000000  0.4159900000000  0.4830990000000 1.0
C      1  0.4925610000000  0.5292180000000  0.5130180000000 1.0
C      1  0.4283460000000  0.5988750000000  0.6012270000000 1.0
C      1  0.4975810000000  0.5526440000000  0.4984380000000 1.0
C      1  0.5571320000000  0.5077730000000  0.4438570000000 1.0
C      1  0.4165030000000  0.4362650000000  0.4732570000000 1.0
C      1  0.5803150000000  0.4782340000000  0.5021410000000 1.0
C      1  0.5172450000000  0.4109220000000  0.5238160000000 1.0
C      1  0.5252400000000  0.5086810000000  0.4024470000000 1.0
C      1  0.5009140000000  0.4982390000000  0.3993090000000 1.0
C      1  0.4213910000000  0.5453740000000  0.5174260000000 1.0
C      1  0.5789550000000  0.5292860000000  0.5067040000000 1.0
C      1  0.5371720000000  0.5476280000000  0.5606640000000 1.0
C      1  0.5985940000000  0.5013730000000  0.5399970000000 1.0
C      1  0.5508270000000  0.5566960000000  0.5374060000000 1.0
C      1  0.5896670000000  0.5032380000000  0.5127560000000 1.0
C      1  0.5316100000000  0.5055330000000  0.5283550000000 1.0
C      1  0.5230030000000  0.5373110000000  0.4604170000000 1.0
C      1  0.5793300000000  0.4762040000000  0.4743380000000 1.0
C      1  0.5689850000000  0.4583420000000  0.5197260000000 1.0
C      1  0.4152590000000  0.5947330000000  0.5224320000000 1.0
C      1  0.5386160000000  0.5699230000000  0.5149620000000 1.0
C      1  0.3872540000000  0.3929190000000  0.4818330000000 1.0
C      1  0.4878550000000  0.4416280000000  0.4406150000000 1.0
C      1  0.5356160000000  0.4255640000000  0.5364690000000 1.0
C      1  0.4203710000000  0.5700440000000  0.5325860000000 1.0
C      1  0.4505610000000  0.5470220000000  0.4528710000000 1.0
C      1  0.4216650000000  0.5083540000000  0.4564570000000 1.0
C      1  0.5138500000000  0.4332920000000  0.4336310000000 1.0
C      1  0.4993940000000  0.4072650000000  0.5043150000000 1.0
C      1  0.4075830000000  0.4792820000000  0.5357080000000 1.0
END
