TITL C-627113-6568-2073 6107.61436133682 125000 -608.839678812189 0 0 102 (C1) n - 1
REM
REM in /home/nfs/bkarasulu/CARBON/AIRSS/Generating-Clusters/LCBOP/Only-C1/SD-CG/FIRE-CG
REM
REM
REM
REM
REM
REM ./C.cell (11c1c37f851c82e70ff6c80c92926a4b)
REM AIRSS Version 0.9.1 bugfix July 2018 build 013d7b7c2542+ Fri, 06 Jul 2018 19:26:36 +0100
REM compiler GCC version 9.2.1 20190827 (Red Hat 9.2.1-1)
REM options -cpp -mtune=generic -march=x86-64 -g -O0 -fpre-include=/usr/include/finclude/math-vector-fortran.h
REM seed 221864246 -726506912 678259308 765557198 -528921122 -633017528 926169062 798186512 350979595 -346364821 -66126322 1601607941 1440312738 919536647 1739882007 -113296768 -487948394 1306722116 -226607796 -1560391528 1250891589 -1938237641 616056609 -2002037813 677120735 -246105070 -429555065 -793450057 -1097331059 -780961013 -203091142 11098111 1826084592
REM
CELL 1.54180   50.00000   50.00000   50.00000   90.00000   90.00000   90.00000
LATT -1
SFAC C  
C      1  0.4641560000000  0.5240050000000  0.4388120000000 1.0
C      1  0.5446510000000  0.4387490000000  0.3868790000000 1.0
C      1  0.3654610000000  0.5222740000000  0.4179020000000 1.0
C      1  0.5145310000000  0.4261730000000  0.5482170000000 1.0
C      1  0.4978130000000  0.5406920000000  0.5558860000000 1.0
C      1  0.5332400000000  0.4430340000000  0.5615620000000 1.0
C      1  0.5647490000000  0.5522670000000  0.4397930000000 1.0
C      1  0.4624330000000  0.4752280000000  0.4126680000000 1.0
C      1  0.4846420000000  0.5485610000000  0.4892870000000 1.0
C      1  0.4826800000000  0.5347120000000  0.4202520000000 1.0
C      1  0.4221050000000  0.4603440000000  0.4955100000000 1.0
C      1  0.6104670000000  0.5307180000000  0.4864970000000 1.0
C      1  0.6205570000000  0.4562930000000  0.4221350000000 1.0
C      1  0.5645760000000  0.4816100000000  0.5385330000000 1.0
C      1  0.3926770000000  0.4960860000000  0.4788480000000 1.0
C      1  0.6122850000000  0.5976470000000  0.5408870000000 1.0
C      1  0.4011900000000  0.5586590000000  0.5768400000000 1.0
C      1  0.5531660000000  0.5387680000000  0.5910270000000 1.0
C      1  0.5145650000000  0.4087730000000  0.4438340000000 1.0
C      1  0.4969580000000  0.4693110000000  0.5900950000000 1.0
C      1  0.5723220000000  0.5465830000000  0.5743690000000 1.0
C      1  0.4976820000000  0.4951140000000  0.5757390000000 1.0
C      1  0.5747020000000  0.5763450000000  0.4406420000000 1.0
C      1  0.4408920000000  0.4993440000000  0.5694790000000 1.0
C      1  0.4929080000000  0.5758850000000  0.4964460000000 1.0
C      1  0.4826200000000  0.5871840000000  0.5544790000000 1.0
C      1  0.5472640000000  0.5280050000000  0.5229840000000 1.0
C      1  0.5306750000000  0.4611320000000  0.4994070000000 1.0
C      1  0.4877750000000  0.4246660000000  0.5097090000000 1.0
C      1  0.5818310000000  0.4576640000000  0.4481310000000 1.0
C      1  0.4379950000000  0.4642570000000  0.5182610000000 1.0
C      1  0.5815540000000  0.5534800000000  0.5489180000000 1.0
C      1  0.4480850000000  0.4910500000000  0.5211770000000 1.0
C      1  0.5085190000000  0.4735960000000  0.4268590000000 1.0
C      1  0.4704090000000  0.5114100000000  0.4630570000000 1.0
C      1  0.4192130000000  0.5267340000000  0.5133300000000 1.0
C      1  0.6263590000000  0.6190040000000  0.5358470000000 1.0
C      1  0.4926210000000  0.5604470000000  0.4271660000000 1.0
C      1  0.5018250000000  0.5680900000000  0.5468070000000 1.0
C      1  0.4200680000000  0.5178470000000  0.5650790000000 1.0
C      1  0.4569900000000  0.4444960000000  0.5652480000000 1.0
C      1  0.4441420000000  0.4470070000000  0.5408820000000 1.0
C      1  0.4886790000000  0.4856490000000  0.4103620000000 1.0
C      1  0.5063020000000  0.5226940000000  0.5771480000000 1.0
C      1  0.5211940000000  0.4543420000000  0.5853280000000 1.0
C      1  0.5852720000000  0.4763940000000  0.5177470000000 1.0
C      1  0.5534630000000  0.5283080000000  0.4407770000000 1.0
C      1  0.5122630000000  0.5699390000000  0.5195330000000 1.0
C      1  0.4055560000000  0.5327070000000  0.5852960000000 1.0
C      1  0.5123180000000  0.5358350000000  0.4888390000000 1.0
C      1  0.4176620000000  0.5355070000000  0.5404610000000 1.0
C      1  0.5758310000000  0.4426790000000  0.4231250000000 1.0
C      1  0.4997660000000  0.4059820000000  0.4670210000000 1.0
C      1  0.4234720000000  0.4719740000000  0.4481090000000 1.0
C      1  0.4445340000000  0.5156110000000  0.5055950000000 1.0
C      1  0.5531310000000  0.4537490000000  0.5428570000000 1.0
C      1  0.5286590000000  0.5464010000000  0.5103890000000 1.0
C      1  0.6096790000000  0.4659700000000  0.4457270000000 1.0
C      1  0.6279480000000  0.5284090000000  0.4672980000000 1.0
C      1  0.4565430000000  0.5923620000000  0.5515040000000 1.0
C      1  0.5925470000000  0.5337180000000  0.5057760000000 1.0
C      1  0.5428100000000  0.4994600000000  0.5289750000000 1.0
C      1  0.5515830000000  0.4329360000000  0.4127630000000 1.0
C      1  0.4849910000000  0.4867670000000  0.5513680000000 1.0
C      1  0.4900880000000  0.5092990000000  0.5150440000000 1.0
C      1  0.3677550000000  0.4955840000000  0.4652360000000 1.0
C      1  0.5977140000000  0.5760350000000  0.5456310000000 1.0
C      1  0.5739500000000  0.5380740000000  0.5262310000000 1.0
C      1  0.4856900000000  0.5267620000000  0.5347350000000 1.0
C      1  0.6010650000000  0.4421500000000  0.4083750000000 1.0
C      1  0.4317140000000  0.5836560000000  0.5469190000000 1.0
C      1  0.4134050000000  0.5629700000000  0.5508550000000 1.0
C      1  0.4484230000000  0.4828750000000  0.5917900000000 1.0
C      1  0.4960290000000  0.4417670000000  0.5312550000000 1.0
C      1  0.4628780000000  0.5279590000000  0.4863330000000 1.0
C      1  0.4959100000000  0.4968250000000  0.4674150000000 1.0
C      1  0.5218320000000  0.4801980000000  0.5192560000000 1.0
C      1  0.4997920000000  0.3970730000000  0.5140780000000 1.0
C      1  0.5520190000000  0.4454790000000  0.5134120000000 1.0
C      1  0.5045980000000  0.3864240000000  0.4879390000000 1.0
C      1  0.5196560000000  0.4842550000000  0.4524800000000 1.0
C      1  0.3465420000000  0.4819290000000  0.4758080000000 1.0
C      1  0.5343250000000  0.4173660000000  0.4283480000000 1.0
C      1  0.3981930000000  0.5169770000000  0.4972570000000 1.0
C      1  0.4959370000000  0.5799350000000  0.4457480000000 1.0
C      1  0.4404710000000  0.4710970000000  0.4274730000000 1.0
C      1  0.4922470000000  0.5135370000000  0.4037130000000 1.0
C      1  0.4960390000000  0.5893770000000  0.4713800000000 1.0
C      1  0.4859300000000  0.4273460000000  0.4811010000000 1.0
C      1  0.4675360000000  0.4609430000000  0.5872450000000 1.0
C      1  0.5663270000000  0.4612850000000  0.4709800000000 1.0
C      1  0.5761190000000  0.4565250000000  0.4983360000000 1.0
C      1  0.4120060000000  0.4753220000000  0.4736750000000 1.0
C      1  0.5140150000000  0.3992610000000  0.5388430000000 1.0
C      1  0.3653230000000  0.5091990000000  0.4409440000000 1.0
C      1  0.5390510000000  0.5064260000000  0.4445220000000 1.0
C      1  0.5371890000000  0.4668000000000  0.4716320000000 1.0
C      1  0.3661160000000  0.5352470000000  0.3953000000000 1.0
C      1  0.4582220000000  0.4946870000000  0.5472840000000 1.0
C      1  0.5280580000000  0.5301600000000  0.5929770000000 1.0
C      1  0.5051470000000  0.5085120000000  0.4914880000000 1.0
C      1  0.4991300000000  0.4700480000000  0.5334860000000 1.0
END
