TITL C-627106-156-188 6.14961394548236e-07 125000 -576.136010472041 0 0 93 (C1) n - 1
REM
REM in /home/nfs/bkarasulu/CARBON/AIRSS/Generating-Clusters/LCBOP/Only-C1/SD-CG/FIRE-CG
REM
REM
REM
REM
REM
REM ./C.cell (11c1c37f851c82e70ff6c80c92926a4b)
REM AIRSS Version 0.9.1 bugfix July 2018 build 013d7b7c2542+ Fri, 06 Jul 2018 19:26:36 +0100
REM compiler GCC version 9.2.1 20190827 (Red Hat 9.2.1-1)
REM options -cpp -mtune=generic -march=x86-64 -g -O0 -fpre-include=/usr/include/finclude/math-vector-fortran.h
REM seed -1854600181 -331142594 -1796113358 -1765858809 -462643889 -1007962579 -1047809583 -1228734446 -659173727 -1303324071 880057582 1226037256 -367462219 486252441 -1089239216 -690788394 -1408757365 1446317479 -1936668339 1739590872 789475392 1483478409 1610625512 830721458 1283270120 837998650 -397730322 -1914663119 2135207594 -1255965438 -1599839180 730054573 148673390
REM
CELL 1.54180   50.00000   50.00000   50.00000   90.00000   90.00000   90.00000
LATT -1
SFAC C  
C      1  0.5320020000000  0.5119490000000  0.4798670000000 1.0
C      1  0.4930350000000  0.4876520000000  0.5119350000000 1.0
C      1  0.4361810000000  0.4486910000000  0.5915400000000 1.0
C      1  0.4466160000000  0.6175290000000  0.4812200000000 1.0
C      1  0.5118240000000  0.5685920000000  0.4377710000000 1.0
C      1  0.4918900000000  0.4090230000000  0.4967820000000 1.0
C      1  0.5691830000000  0.5512340000000  0.5319180000000 1.0
C      1  0.5020980000000  0.4602360000000  0.5744890000000 1.0
C      1  0.5333620000000  0.4285950000000  0.5590360000000 1.0
C      1  0.4547860000000  0.4406430000000  0.4896180000000 1.0
C      1  0.5156600000000  0.4802690000000  0.6287960000000 1.0
C      1  0.4503830000000  0.6023370000000  0.4595220000000 1.0
C      1  0.4100880000000  0.5029020000000  0.4574410000000 1.0
C      1  0.5657060000000  0.4858560000000  0.5269370000000 1.0
C      1  0.5143440000000  0.5765130000000  0.5311740000000 1.0
C      1  0.5506500000000  0.4314040000000  0.4587180000000 1.0
C      1  0.5774550000000  0.4647370000000  0.5909390000000 1.0
C      1  0.4648520000000  0.5645020000000  0.4281040000000 1.0
C      1  0.4364780000000  0.5346490000000  0.4808510000000 1.0
C      1  0.5315220000000  0.4648670000000  0.4885270000000 1.0
C      1  0.4487750000000  0.4862090000000  0.4829810000000 1.0
C      1  0.5182110000000  0.4179390000000  0.4924170000000 1.0
C      1  0.4160210000000  0.5529590000000  0.4796290000000 1.0
C      1  0.5099830000000  0.4779390000000  0.4164150000000 1.0
C      1  0.5277170000000  0.5277570000000  0.5434810000000 1.0
C      1  0.4666970000000  0.4634320000000  0.6308900000000 1.0
C      1  0.4687830000000  0.5164760000000  0.4213250000000 1.0
C      1  0.5384750000000  0.5864600000000  0.5424300000000 1.0
C      1  0.5194730000000  0.4724240000000  0.5143690000000 1.0
C      1  0.5324130000000  0.5478670000000  0.4446040000000 1.0
C      1  0.4834420000000  0.5368600000000  0.5290110000000 1.0
C      1  0.4822750000000  0.6106350000000  0.5147610000000 1.0
C      1  0.4722850000000  0.4201930000000  0.4795280000000 1.0
C      1  0.4846950000000  0.3955100000000  0.5202210000000 1.0
C      1  0.5607730000000  0.4773470000000  0.6078290000000 1.0
C      1  0.5456170000000  0.4871010000000  0.4771190000000 1.0
C      1  0.4309080000000  0.5070250000000  0.4763690000000 1.0
C      1  0.4910800000000  0.4728520000000  0.6361870000000 1.0
C      1  0.4839560000000  0.5085490000000  0.5295610000000 1.0
C      1  0.4553090000000  0.4477320000000  0.5182610000000 1.0
C      1  0.5449100000000  0.5539590000000  0.4713520000000 1.0
C      1  0.5075340000000  0.5490410000000  0.5373790000000 1.0
C      1  0.4953310000000  0.5289360000000  0.4177510000000 1.0
C      1  0.5238990000000  0.4328810000000  0.4193370000000 1.0
C      1  0.4822870000000  0.3969600000000  0.5467960000000 1.0
C      1  0.5509800000000  0.4484340000000  0.5507970000000 1.0
C      1  0.4500450000000  0.5397690000000  0.4235030000000 1.0
C      1  0.4802370000000  0.4710690000000  0.5587710000000 1.0
C      1  0.5056370000000  0.5168170000000  0.4705970000000 1.0
C      1  0.4225450000000  0.5344130000000  0.4222460000000 1.0
C      1  0.5120360000000  0.5889520000000  0.4825760000000 1.0
C      1  0.5161360000000  0.5054460000000  0.5630080000000 1.0
C      1  0.4871320000000  0.5377240000000  0.4762620000000 1.0
C      1  0.5824120000000  0.4890930000000  0.5061540000000 1.0
C      1  0.5209600000000  0.4826910000000  0.5813100000000 1.0
C      1  0.4768580000000  0.4864890000000  0.4887330000000 1.0
C      1  0.5392200000000  0.5803800000000  0.4802660000000 1.0
C      1  0.4769250000000  0.4211060000000  0.4515120000000 1.0
C      1  0.4584970000000  0.4640360000000  0.4415820000000 1.0
C      1  0.4975100000000  0.5849370000000  0.4579140000000 1.0
C      1  0.5742090000000  0.4880680000000  0.4792000000000 1.0
C      1  0.4389160000000  0.4485170000000  0.5648840000000 1.0
C      1  0.4457180000000  0.5671230000000  0.5285520000000 1.0
C      1  0.5311020000000  0.4970410000000  0.4202830000000 1.0
C      1  0.4897630000000  0.4119650000000  0.5677330000000 1.0
C      1  0.5736880000000  0.4526860000000  0.5672080000000 1.0
C      1  0.5920600000000  0.4899530000000  0.4588050000000 1.0
C      1  0.4634310000000  0.5508050000000  0.5158900000000 1.0
C      1  0.5633120000000  0.5757680000000  0.5418680000000 1.0
C      1  0.4920130000000  0.4930140000000  0.4662200000000 1.0
C      1  0.4470370000000  0.4545540000000  0.6152130000000 1.0
C      1  0.4585790000000  0.4563210000000  0.5459860000000 1.0
C      1  0.5489750000000  0.5334030000000  0.5221900000000 1.0
C      1  0.5021420000000  0.4510440000000  0.4209210000000 1.0
C      1  0.4621150000000  0.5433670000000  0.4886490000000 1.0
C      1  0.4880880000000  0.4986170000000  0.5551030000000 1.0
C      1  0.5430690000000  0.4695940000000  0.5330730000000 1.0
C      1  0.5567210000000  0.4855590000000  0.4180150000000 1.0
C      1  0.4469850000000  0.4609090000000  0.4690720000000 1.0
C      1  0.4923720000000  0.5576680000000  0.4196060000000 1.0
C      1  0.5331620000000  0.4823150000000  0.6069560000000 1.0
C      1  0.5025020000000  0.5918790000000  0.5096520000000 1.0
C      1  0.4062910000000  0.5167970000000  0.4345640000000 1.0
C      1  0.4601690000000  0.6212050000000  0.5040410000000 1.0
C      1  0.5492850000000  0.4375520000000  0.4313190000000 1.0
C      1  0.5639130000000  0.4596230000000  0.4211890000000 1.0
C      1  0.4603450000000  0.4897760000000  0.4279380000000 1.0
C      1  0.4781820000000  0.4440380000000  0.4348010000000 1.0
C      1  0.5082990000000  0.4327780000000  0.5709040000000 1.0
C      1  0.5345060000000  0.4376830000000  0.4809090000000 1.0
C      1  0.5230360000000  0.5234750000000  0.4272240000000 1.0
C      1  0.4691180000000  0.5846290000000  0.4489100000000 1.0
C      1  0.5448070000000  0.5336950000000  0.4926960000000 1.0
END
