TITL C-627111-6168-1174 0.252776098127269 125000 -796.702830164587 0 0 129 (C1) n - 1
REM
REM in /home/nfs/bkarasulu/CARBON/AIRSS/Generating-Clusters/LCBOP/Only-C1/SD-CG/FIRE-CG
REM
REM
REM
REM
REM
REM ./C.cell (11c1c37f851c82e70ff6c80c92926a4b)
REM AIRSS Version 0.9.1 bugfix July 2018 build 013d7b7c2542+ Fri, 06 Jul 2018 19:26:36 +0100
REM compiler GCC version 9.2.1 20190827 (Red Hat 9.2.1-1)
REM options -cpp -mtune=generic -march=x86-64 -g -O0 -fpre-include=/usr/include/finclude/math-vector-fortran.h
REM seed 1837005076 -2085351622 -658488001 93003977 -438893647 374244010 -1063452963 -482479746 1963511265 -1379760184 125306248 -1693947825 -1627364860 -176559564 -1689939047 -1414325830 -488088290 568586228 -2009266551 -118083504 -1966119588 -554823228 740751316 1282848312 1730866776 -802285730 -1136058590 248067288 -1706383713 1502212054 1067104601 -99976464 677905502
REM
CELL 1.54180   50.00000   50.00000   50.00000   90.00000   90.00000   90.00000
LATT -1
SFAC C  
C      1  0.4328210000000  0.4353430000000  0.5449160000000 1.0
C      1  0.5501800000000  0.4719000000000  0.4926030000000 1.0
C      1  0.5328410000000  0.4148590000000  0.5402950000000 1.0
C      1  0.5196200000000  0.4733980000000  0.6048120000000 1.0
C      1  0.5283810000000  0.4914410000000  0.4943200000000 1.0
C      1  0.4424220000000  0.4776800000000  0.4498770000000 1.0
C      1  0.5320140000000  0.4075480000000  0.5119280000000 1.0
C      1  0.5811390000000  0.5094460000000  0.5000190000000 1.0
C      1  0.4496970000000  0.4980600000000  0.5211600000000 1.0
C      1  0.5146230000000  0.5045500000000  0.5389570000000 1.0
C      1  0.4356830000000  0.5637670000000  0.4710510000000 1.0
C      1  0.5230070000000  0.6020740000000  0.5312800000000 1.0
C      1  0.6242750000000  0.4951550000000  0.5490100000000 1.0
C      1  0.6001080000000  0.3900390000000  0.4921990000000 1.0
C      1  0.5839550000000  0.4951350000000  0.4733110000000 1.0
C      1  0.4621250000000  0.3941020000000  0.5269520000000 1.0
C      1  0.4200390000000  0.5378010000000  0.5357260000000 1.0
C      1  0.5028310000000  0.5719730000000  0.4439340000000 1.0
C      1  0.5755000000000  0.3996570000000  0.4902750000000 1.0
C      1  0.5050940000000  0.4200300000000  0.5499230000000 1.0
C      1  0.4788000000000  0.4871200000000  0.4788080000000 1.0
C      1  0.5242350000000  0.5225320000000  0.4452440000000 1.0
C      1  0.5263660000000  0.5861960000000  0.4840610000000 1.0
C      1  0.4597340000000  0.4713160000000  0.3962620000000 1.0
C      1  0.5150070000000  0.6042030000000  0.5027570000000 1.0
C      1  0.4879000000000  0.5074560000000  0.5503050000000 1.0
C      1  0.6351140000000  0.5352900000000  0.5173060000000 1.0
C      1  0.3993470000000  0.5316850000000  0.5536250000000 1.0
C      1  0.3866090000000  0.5087720000000  0.5587950000000 1.0
C      1  0.5568560000000  0.4217900000000  0.5524880000000 1.0
C      1  0.4833830000000  0.5707010000000  0.5800680000000 1.0
C      1  0.5698050000000  0.4918240000000  0.5998700000000 1.0
C      1  0.3748020000000  0.5380200000000  0.4541100000000 1.0
C      1  0.4777850000000  0.4326810000000  0.4268110000000 1.0
C      1  0.4987380000000  0.5546120000000  0.5180910000000 1.0
C      1  0.5249210000000  0.5843030000000  0.4275090000000 1.0
C      1  0.5156440000000  0.5325360000000  0.4195240000000 1.0
C      1  0.3812620000000  0.5173030000000  0.4385630000000 1.0
C      1  0.4782070000000  0.5687810000000  0.5322980000000 1.0
C      1  0.4642670000000  0.4472570000000  0.4081010000000 1.0
C      1  0.5151150000000  0.4826210000000  0.5197910000000 1.0
C      1  0.5359250000000  0.5258280000000  0.5342220000000 1.0
C      1  0.4934370000000  0.4854480000000  0.4325900000000 1.0
C      1  0.4705520000000  0.5333240000000  0.4839650000000 1.0
C      1  0.4742670000000  0.4590170000000  0.5564170000000 1.0
C      1  0.4119950000000  0.5565720000000  0.4850240000000 1.0
C      1  0.4030420000000  0.5031160000000  0.4328650000000 1.0
C      1  0.4343010000000  0.4580740000000  0.4976320000000 1.0
C      1  0.5131590000000  0.4331660000000  0.4659560000000 1.0
C      1  0.3901820000000  0.4825570000000  0.5506900000000 1.0
C      1  0.3985510000000  0.4742220000000  0.5234620000000 1.0
C      1  0.4987140000000  0.6065250000000  0.5476000000000 1.0
C      1  0.4937630000000  0.5097560000000  0.6242510000000 1.0
C      1  0.5321520000000  0.4901820000000  0.4004760000000 1.0
C      1  0.6055990000000  0.4801320000000  0.5632860000000 1.0
C      1  0.4251530000000  0.4811120000000  0.5131580000000 1.0
C      1  0.4511320000000  0.4448790000000  0.5634400000000 1.0
C      1  0.4047490000000  0.4375720000000  0.5504990000000 1.0
C      1  0.3876750000000  0.5532700000000  0.4717800000000 1.0
C      1  0.5244760000000  0.5523480000000  0.5318100000000 1.0
C      1  0.5590340000000  0.4487790000000  0.4537980000000 1.0
C      1  0.5386720000000  0.5194210000000  0.4901250000000 1.0
C      1  0.4711260000000  0.6006260000000  0.4768260000000 1.0
C      1  0.5358300000000  0.5390840000000  0.4672270000000 1.0
C      1  0.4939430000000  0.5484870000000  0.4908410000000 1.0
C      1  0.5133010000000  0.4551050000000  0.5845320000000 1.0
C      1  0.4863110000000  0.5574860000000  0.6043920000000 1.0
C      1  0.4733360000000  0.5564110000000  0.5574370000000 1.0
C      1  0.4853210000000  0.6058030000000  0.5010550000000 1.0
C      1  0.5022290000000  0.4578370000000  0.5106490000000 1.0
C      1  0.5688150000000  0.4699510000000  0.4713130000000 1.0
C      1  0.5568150000000  0.5213110000000  0.5126950000000 1.0
C      1  0.5349890000000  0.5189160000000  0.4021890000000 1.0
C      1  0.4319180000000  0.4605510000000  0.4697280000000 1.0
C      1  0.4705330000000  0.4838170000000  0.5421410000000 1.0
C      1  0.5423510000000  0.4290780000000  0.4684680000000 1.0
C      1  0.5892560000000  0.5085230000000  0.4487530000000 1.0
C      1  0.5560680000000  0.4738960000000  0.4074480000000 1.0
C      1  0.4642960000000  0.5371320000000  0.4346660000000 1.0
C      1  0.4304120000000  0.4992820000000  0.4357060000000 1.0
C      1  0.5801090000000  0.4344900000000  0.5545270000000 1.0
C      1  0.4983890000000  0.4447500000000  0.5631760000000 1.0
C      1  0.5916410000000  0.4914370000000  0.5847820000000 1.0
C      1  0.4898610000000  0.5354380000000  0.6187970000000 1.0
C      1  0.5035200000000  0.4347330000000  0.4390210000000 1.0
C      1  0.5032090000000  0.4104070000000  0.5058410000000 1.0
C      1  0.5143810000000  0.5608350000000  0.4716500000000 1.0
C      1  0.5503560000000  0.4530620000000  0.4267740000000 1.0
C      1  0.4944150000000  0.5963370000000  0.5737710000000 1.0
C      1  0.5066640000000  0.4899150000000  0.4758680000000 1.0
C      1  0.5453580000000  0.4840990000000  0.6065860000000 1.0
C      1  0.5616160000000  0.5528400000000  0.4621660000000 1.0
C      1  0.5504150000000  0.4117870000000  0.4902870000000 1.0
C      1  0.3957680000000  0.4207230000000  0.5066110000000 1.0
C      1  0.3934320000000  0.4437490000000  0.5233170000000 1.0
C      1  0.4778610000000  0.5974060000000  0.5280240000000 1.0
C      1  0.4452140000000  0.5898690000000  0.4764470000000 1.0
C      1  0.5006410000000  0.4353170000000  0.4918930000000 1.0
C      1  0.4374810000000  0.3906990000000  0.5160860000000 1.0
C      1  0.4654710000000  0.5066770000000  0.4947060000000 1.0
C      1  0.4995970000000  0.4823810000000  0.6229570000000 1.0
C      1  0.5125010000000  0.4981030000000  0.4503310000000 1.0
C      1  0.5813380000000  0.5196560000000  0.4254710000000 1.0
C      1  0.5977640000000  0.4543430000000  0.5555840000000 1.0
C      1  0.4548480000000  0.5440150000000  0.4620840000000 1.0
C      1  0.4850740000000  0.5945140000000  0.4529820000000 1.0
C      1  0.3942350000000  0.4589270000000  0.5666840000000 1.0
C      1  0.4501520000000  0.5151680000000  0.4208560000000 1.0
C      1  0.6084510000000  0.5626300000000  0.4820760000000 1.0
C      1  0.4410190000000  0.4383240000000  0.5170120000000 1.0
C      1  0.4705620000000  0.4803390000000  0.4514290000000 1.0
C      1  0.5854200000000  0.5627020000000  0.4687810000000 1.0
C      1  0.4135370000000  0.3999190000000  0.5070770000000 1.0
C      1  0.6343060000000  0.5147500000000  0.5341480000000 1.0
C      1  0.4872250000000  0.4067440000000  0.5297730000000 1.0
C      1  0.6261120000000  0.5525640000000  0.4992160000000 1.0
C      1  0.5215400000000  0.4490290000000  0.4221750000000 1.0
C      1  0.6244210000000  0.3809350000000  0.4945590000000 1.0
C      1  0.4864250000000  0.4645450000000  0.6389800000000 1.0
C      1  0.5660180000000  0.6028220000000  0.4005860000000 1.0
C      1  0.5364970000000  0.5775390000000  0.5375310000000 1.0
C      1  0.4679900000000  0.5289730000000  0.5538250000000 1.0
C      1  0.5450560000000  0.5944390000000  0.4136180000000 1.0
C      1  0.4441210000000  0.5231990000000  0.5379590000000 1.0
C      1  0.5623930000000  0.5263530000000  0.4072400000000 1.0
C      1  0.4911180000000  0.5480620000000  0.4272510000000 1.0
C      1  0.4584780000000  0.4985380000000  0.3988110000000 1.0
C      1  0.4142330000000  0.5521760000000  0.5125520000000 1.0
C      1  0.5101350000000  0.4741870000000  0.4120680000000 1.0
END
