TITL C-627107-135-2034 6.84830704344738e-05 125000 -1044.33845992682 0 0 168 (C1) n - 1
REM
REM in /home/nfs/bkarasulu/CARBON/AIRSS/Generating-Clusters/LCBOP/Only-C1/SD-CG/FIRE-CG
REM
REM
REM
REM
REM
REM ./C.cell (11c1c37f851c82e70ff6c80c92926a4b)
REM AIRSS Version 0.9.1 bugfix July 2018 build 013d7b7c2542+ Fri, 06 Jul 2018 19:26:36 +0100
REM compiler GCC version 9.2.1 20190827 (Red Hat 9.2.1-1)
REM options -cpp -mtune=generic -march=x86-64 -g -O0 -fpre-include=/usr/include/finclude/math-vector-fortran.h
REM seed -2010330858 1122238856 -197038045 31498718 -39688895 -1087547221 35915402 -1212352333 1451479917 2073713267 -434268612 -1529378 2141661642 -646059031 205573588 1681628434 1394970763 -872804163 -666120880 847250176 -604805753 -313033122 -1301042583 -1625815164 -48677501 2126748762 -369688707 441099494 186844027 220971735 1135598394 -648490125 851352018
REM
CELL 1.54180   50.00000   50.00000   50.00000   90.00000   90.00000   90.00000
LATT -1
SFAC C  
C      1  0.4847930000000  0.4270940000000  0.5192850000000 1.0
C      1  0.5475450000000  0.5347840000000  0.4662960000000 1.0
C      1  0.5837020000000  0.5534690000000  0.4989790000000 1.0
C      1  0.4376150000000  0.6110330000000  0.4901570000000 1.0
C      1  0.5828860000000  0.4711170000000  0.5298200000000 1.0
C      1  0.4548520000000  0.4614910000000  0.6509900000000 1.0
C      1  0.4472270000000  0.4111210000000  0.5678370000000 1.0
C      1  0.6188080000000  0.4667010000000  0.5561810000000 1.0
C      1  0.4943310000000  0.4122470000000  0.4589920000000 1.0
C      1  0.6177610000000  0.4910130000000  0.4431810000000 1.0
C      1  0.5299020000000  0.4010550000000  0.5269390000000 1.0
C      1  0.5800540000000  0.4517990000000  0.5093020000000 1.0
C      1  0.5628450000000  0.4768270000000  0.5481650000000 1.0
C      1  0.6194430000000  0.4727660000000  0.4868390000000 1.0
C      1  0.5970330000000  0.4531810000000  0.4855570000000 1.0
C      1  0.5569270000000  0.4115210000000  0.5302950000000 1.0
C      1  0.5309230000000  0.4665890000000  0.4657940000000 1.0
C      1  0.5360270000000  0.4379390000000  0.4574870000000 1.0
C      1  0.4152430000000  0.5921300000000  0.4853040000000 1.0
C      1  0.5358210000000  0.5745220000000  0.5880750000000 1.0
C      1  0.5060890000000  0.5502630000000  0.4514920000000 1.0
C      1  0.4283140000000  0.5228700000000  0.6257620000000 1.0
C      1  0.4510560000000  0.4924000000000  0.5576110000000 1.0
C      1  0.5538190000000  0.4442820000000  0.4018740000000 1.0
C      1  0.4777230000000  0.5974230000000  0.4444980000000 1.0
C      1  0.5704520000000  0.5036440000000  0.4963700000000 1.0
C      1  0.5953790000000  0.5655990000000  0.5609890000000 1.0
C      1  0.4539600000000  0.5058550000000  0.4909250000000 1.0
C      1  0.6685920000000  0.5241280000000  0.4701340000000 1.0
C      1  0.4558990000000  0.5529900000000  0.5103760000000 1.0
C      1  0.4396120000000  0.4656010000000  0.5173230000000 1.0
C      1  0.5266650000000  0.5032290000000  0.5659350000000 1.0
C      1  0.5346670000000  0.5495900000000  0.5789240000000 1.0
C      1  0.5857950000000  0.4401260000000  0.4619440000000 1.0
C      1  0.5308490000000  0.4442570000000  0.5084050000000 1.0
C      1  0.5272670000000  0.4692450000000  0.4952640000000 1.0
C      1  0.4513520000000  0.5104580000000  0.4619700000000 1.0
C      1  0.4820960000000  0.6020000000000  0.5217200000000 1.0
C      1  0.5034940000000  0.5963370000000  0.4549390000000 1.0
C      1  0.4822520000000  0.4749350000000  0.3718750000000 1.0
C      1  0.4299020000000  0.5538650000000  0.5877710000000 1.0
C      1  0.4150780000000  0.4553810000000  0.4568570000000 1.0
C      1  0.5286390000000  0.4563990000000  0.4072210000000 1.0
C      1  0.4461180000000  0.5566690000000  0.4433930000000 1.0
C      1  0.4428680000000  0.3871170000000  0.5572790000000 1.0
C      1  0.5428110000000  0.5006730000000  0.4318850000000 1.0
C      1  0.4715550000000  0.5345880000000  0.5745710000000 1.0
C      1  0.5011190000000  0.5027400000000  0.5538900000000 1.0
C      1  0.4540430000000  0.4338700000000  0.4226480000000 1.0
C      1  0.4279290000000  0.4740430000000  0.4152470000000 1.0
C      1  0.4226180000000  0.5283880000000  0.5990360000000 1.0
C      1  0.5016000000000  0.3573090000000  0.5341590000000 1.0
C      1  0.3983710000000  0.5043180000000  0.4957820000000 1.0
C      1  0.4390470000000  0.5985710000000  0.5345920000000 1.0
C      1  0.4083950000000  0.5099170000000  0.5830250000000 1.0
C      1  0.5642280000000  0.5484760000000  0.4256240000000 1.0
C      1  0.4141400000000  0.4456230000000  0.4843820000000 1.0
C      1  0.4619640000000  0.4928120000000  0.4426930000000 1.0
C      1  0.4007670000000  0.4816870000000  0.4508720000000 1.0
C      1  0.3978430000000  0.5051640000000  0.4671720000000 1.0
C      1  0.5893780000000  0.5746840000000  0.5157980000000 1.0
C      1  0.4078380000000  0.5698850000000  0.5805500000000 1.0
C      1  0.5816830000000  0.4307420000000  0.5718690000000 1.0
C      1  0.3927250000000  0.5033070000000  0.5602660000000 1.0
C      1  0.5667020000000  0.6218200000000  0.5214450000000 1.0
C      1  0.4731520000000  0.4247970000000  0.4729680000000 1.0
C      1  0.4676430000000  0.4500110000000  0.4623710000000 1.0
C      1  0.5018050000000  0.4920720000000  0.5280200000000 1.0
C      1  0.4817890000000  0.4738490000000  0.5238020000000 1.0
C      1  0.4033880000000  0.4868630000000  0.4222170000000 1.0
C      1  0.4616900000000  0.4340810000000  0.6076420000000 1.0
C      1  0.5097680000000  0.4456670000000  0.5781470000000 1.0
C      1  0.5995260000000  0.5588630000000  0.4574960000000 1.0
C      1  0.5874470000000  0.5399110000000  0.5586900000000 1.0
C      1  0.4637170000000  0.4301440000000  0.5800520000000 1.0
C      1  0.5419480000000  0.5996830000000  0.4801830000000 1.0
C      1  0.6450280000000  0.5119170000000  0.4753450000000 1.0
C      1  0.4550330000000  0.6123080000000  0.5144180000000 1.0
C      1  0.3982500000000  0.5502610000000  0.5095050000000 1.0
C      1  0.5617270000000  0.6134380000000  0.5695300000000 1.0
C      1  0.3923340000000  0.4568160000000  0.5000700000000 1.0
C      1  0.5127060000000  0.4218750000000  0.5154970000000 1.0
C      1  0.6056440000000  0.5438160000000  0.4827570000000 1.0
C      1  0.4355470000000  0.5324080000000  0.4527130000000 1.0
C      1  0.4375230000000  0.4407400000000  0.5021140000000 1.0
C      1  0.5651560000000  0.5268200000000  0.5472010000000 1.0
C      1  0.5746930000000  0.4113240000000  0.5521320000000 1.0
C      1  0.4786470000000  0.4447510000000  0.4113140000000 1.0
C      1  0.4784550000000  0.4734140000000  0.4532570000000 1.0
C      1  0.5617880000000  0.3977740000000  0.4689450000000 1.0
C      1  0.5591620000000  0.4399560000000  0.5869120000000 1.0
C      1  0.4544230000000  0.4888140000000  0.4123930000000 1.0
C      1  0.4014520000000  0.5820360000000  0.4625380000000 1.0
C      1  0.6345080000000  0.4865000000000  0.4653960000000 1.0
C      1  0.4816980000000  0.4487350000000  0.5376210000000 1.0
C      1  0.5163030000000  0.4924970000000  0.3027390000000 1.0
C      1  0.5121650000000  0.5996310000000  0.4825780000000 1.0
C      1  0.5582440000000  0.5468240000000  0.4881410000000 1.0
C      1  0.5211560000000  0.3750810000000  0.5312170000000 1.0
C      1  0.4420600000000  0.5274950000000  0.5056770000000 1.0
C      1  0.4124680000000  0.5739300000000  0.5074090000000 1.0
C      1  0.5787040000000  0.4425970000000  0.4119970000000 1.0
C      1  0.5608690000000  0.4252590000000  0.4639470000000 1.0
C      1  0.3711690000000  0.5209360000000  0.5555540000000 1.0
C      1  0.5170740000000  0.4949480000000  0.5046970000000 1.0
C      1  0.5931800000000  0.4432880000000  0.4347770000000 1.0
C      1  0.5897480000000  0.5852590000000  0.5416700000000 1.0
C      1  0.5418050000000  0.4791350000000  0.5664610000000 1.0
C      1  0.4604470000000  0.4822580000000  0.5066920000000 1.0
C      1  0.5612170000000  0.3715870000000  0.4728930000000 1.0
C      1  0.4127060000000  0.5261680000000  0.5071870000000 1.0
C      1  0.4368460000000  0.5725150000000  0.5222000000000 1.0
C      1  0.4311380000000  0.4491340000000  0.4315340000000 1.0
C      1  0.6181970000000  0.4940400000000  0.5089650000000 1.0
C      1  0.4951200000000  0.5389570000000  0.4281770000000 1.0
C      1  0.5570760000000  0.6157360000000  0.4972650000000 1.0
C      1  0.4532190000000  0.3647360000000  0.5472380000000 1.0
C      1  0.5487490000000  0.5279030000000  0.4376830000000 1.0
C      1  0.5053420000000  0.4767210000000  0.4550920000000 1.0
C      1  0.4306370000000  0.4780600000000  0.5419510000000 1.0
C      1  0.4847000000000  0.4428080000000  0.5654390000000 1.0
C      1  0.4584990000000  0.5160730000000  0.4012650000000 1.0
C      1  0.5727890000000  0.4956750000000  0.4687490000000 1.0
C      1  0.4659020000000  0.5838460000000  0.5693450000000 1.0
C      1  0.3858020000000  0.5002460000000  0.4057140000000 1.0
C      1  0.4437910000000  0.6005590000000  0.5619190000000 1.0
C      1  0.5751180000000  0.6093960000000  0.5452760000000 1.0
C      1  0.5047130000000  0.4866120000000  0.3253370000000 1.0
C      1  0.4600550000000  0.4432000000000  0.6324640000000 1.0
C      1  0.5660770000000  0.5150010000000  0.5209630000000 1.0
C      1  0.4985590000000  0.5422080000000  0.4790860000000 1.0
C      1  0.4732050000000  0.4696020000000  0.3977170000000 1.0
C      1  0.4572980000000  0.5582590000000  0.5793050000000 1.0
C      1  0.3832620000000  0.5669730000000  0.5701690000000 1.0
C      1  0.6056470000000  0.4464750000000  0.5693770000000 1.0
C      1  0.5137910000000  0.4261050000000  0.4431890000000 1.0
C      1  0.4029310000000  0.4856480000000  0.5403650000000 1.0
C      1  0.5578860000000  0.4351670000000  0.5135780000000 1.0
C      1  0.4757890000000  0.3530920000000  0.5391770000000 1.0
C      1  0.6229240000000  0.5209760000000  0.4932500000000 1.0
C      1  0.5503650000000  0.4854870000000  0.4553050000000 1.0
C      1  0.4946150000000  0.5868200000000  0.5012670000000 1.0
C      1  0.5416760000000  0.5271130000000  0.5638630000000 1.0
C      1  0.3925610000000  0.4823290000000  0.5131270000000 1.0
C      1  0.5066650000000  0.4399590000000  0.4183450000000 1.0
C      1  0.5599200000000  0.3460190000000  0.4778080000000 1.0
C      1  0.4461130000000  0.4859720000000  0.6565430000000 1.0
C      1  0.5934030000000  0.5002850000000  0.4498510000000 1.0
C      1  0.5738150000000  0.5681520000000  0.4449540000000 1.0
C      1  0.3697330000000  0.5144050000000  0.3908690000000 1.0
C      1  0.4859970000000  0.5918990000000  0.5493090000000 1.0
C      1  0.4363530000000  0.5086130000000  0.6466320000000 1.0
C      1  0.4069620000000  0.5308460000000  0.4560390000000 1.0
C      1  0.5217750000000  0.5745930000000  0.4469830000000 1.0
C      1  0.5103000000000  0.5182870000000  0.4897290000000 1.0
C      1  0.3679730000000  0.5472530000000  0.5602240000000 1.0
C      1  0.5360120000000  0.4551810000000  0.5804600000000 1.0
C      1  0.4930330000000  0.4806390000000  0.3483670000000 1.0
C      1  0.5458740000000  0.5990910000000  0.5855780000000 1.0
C      1  0.6093420000000  0.4817940000000  0.5334690000000 1.0
C      1  0.4631240000000  0.4248190000000  0.4997720000000 1.0
C      1  0.4572160000000  0.5807330000000  0.4405410000000 1.0
C      1  0.4745670000000  0.5088750000000  0.5635770000000 1.0
C      1  0.4827630000000  0.5598770000000  0.4970210000000 1.0
C      1  0.3946310000000  0.5565980000000  0.4550610000000 1.0
C      1  0.4783150000000  0.5329430000000  0.4083310000000 1.0
C      1  0.5498090000000  0.5826300000000  0.4567390000000 1.0
C      1  0.5306370000000  0.4848460000000  0.4117360000000 1.0
END
