TITL C-627107-135-391 -1.35228622107097e-06 125000 -846.684706235626 0 0 139 (C1) n - 1
REM
REM in /home/nfs/bkarasulu/CARBON/AIRSS/Generating-Clusters/LCBOP/Only-C1/SD-CG/FIRE-CG
REM
REM
REM
REM
REM
REM ./C.cell (11c1c37f851c82e70ff6c80c92926a4b)
REM AIRSS Version 0.9.1 bugfix July 2018 build 013d7b7c2542+ Fri, 06 Jul 2018 19:26:36 +0100
REM compiler GCC version 9.2.1 20190827 (Red Hat 9.2.1-1)
REM options -cpp -mtune=generic -march=x86-64 -g -O0 -fpre-include=/usr/include/finclude/math-vector-fortran.h
REM seed -691121367 -184710471 1978609267 648183842 2119619086 -382800888 62117169 -1438969029 -34990602 -521045823 274888594 1509722754 269840865 1860511297 -534986281 968982634 1964626492 -1728643928 1359635145 651141093 602896764 1030312271 461066484 -127344685 -413130504 1904052179 43030662 1068345449 1012357350 -1798069469 -316933030 2129270321 -779369295
REM
CELL 1.54180   50.00000   50.00000   50.00000   90.00000   90.00000   90.00000
LATT -1
SFAC C  
C      1  0.4860690000000  0.4581990000000  0.4785180000000 1.0
C      1  0.4939740000000  0.5928900000000  0.4807850000000 1.0
C      1  0.4695600000000  0.4698500000000  0.5691780000000 1.0
C      1  0.5365040000000  0.5248130000000  0.4335480000000 1.0
C      1  0.5402760000000  0.4021900000000  0.4364370000000 1.0
C      1  0.3837090000000  0.4806730000000  0.4845040000000 1.0
C      1  0.5575390000000  0.4801190000000  0.4110660000000 1.0
C      1  0.5737760000000  0.5672530000000  0.5307960000000 1.0
C      1  0.5148750000000  0.6423620000000  0.4309670000000 1.0
C      1  0.5031390000000  0.6097150000000  0.5615830000000 1.0
C      1  0.6217140000000  0.5277340000000  0.4515950000000 1.0
C      1  0.5673070000000  0.5122040000000  0.5533530000000 1.0
C      1  0.5361210000000  0.5205450000000  0.4870290000000 1.0
C      1  0.5153400000000  0.5202890000000  0.5926710000000 1.0
C      1  0.5411450000000  0.5083840000000  0.5118230000000 1.0
C      1  0.6036950000000  0.4300430000000  0.4969810000000 1.0
C      1  0.6030040000000  0.5342730000000  0.4685180000000 1.0
C      1  0.6210920000000  0.4613510000000  0.5345970000000 1.0
C      1  0.4270290000000  0.5601830000000  0.4679500000000 1.0
C      1  0.5038330000000  0.6211470000000  0.4413160000000 1.0
C      1  0.4301750000000  0.4762790000000  0.5892260000000 1.0
C      1  0.6101830000000  0.4392820000000  0.4707710000000 1.0
C      1  0.5144800000000  0.5724500000000  0.4852580000000 1.0
C      1  0.5022480000000  0.5336660000000  0.5329490000000 1.0
C      1  0.5807560000000  0.4780150000000  0.4656590000000 1.0
C      1  0.4285880000000  0.5800660000000  0.4472620000000 1.0
C      1  0.5610920000000  0.4156690000000  0.4511730000000 1.0
C      1  0.5540760000000  0.4825160000000  0.4557130000000 1.0
C      1  0.5214720000000  0.4569740000000  0.5843660000000 1.0
C      1  0.5305710000000  0.4267270000000  0.4911320000000 1.0
C      1  0.4560210000000  0.5800590000000  0.5197110000000 1.0
C      1  0.4032880000000  0.5044530000000  0.5360090000000 1.0
C      1  0.4056160000000  0.4513610000000  0.5424460000000 1.0
C      1  0.4151520000000  0.4315290000000  0.4203870000000 1.0
C      1  0.4491060000000  0.4541630000000  0.5824860000000 1.0
C      1  0.5425870000000  0.4761350000000  0.5822210000000 1.0
C      1  0.4704270000000  0.5356060000000  0.5999410000000 1.0
C      1  0.4649350000000  0.4673160000000  0.4165130000000 1.0
C      1  0.5179640000000  0.4422130000000  0.5384760000000 1.0
C      1  0.5016510000000  0.4241730000000  0.4504350000000 1.0
C      1  0.4287960000000  0.5165480000000  0.4006140000000 1.0
C      1  0.5619440000000  0.4255760000000  0.5276810000000 1.0
C      1  0.4025250000000  0.4777840000000  0.5388490000000 1.0
C      1  0.4288690000000  0.4965850000000  0.4778090000000 1.0
C      1  0.4880300000000  0.5119940000000  0.5967490000000 1.0
C      1  0.4854330000000  0.5586710000000  0.5920390000000 1.0
C      1  0.3759710000000  0.5428570000000  0.5444050000000 1.0
C      1  0.4576550000000  0.4273480000000  0.5760940000000 1.0
C      1  0.4173920000000  0.5504650000000  0.5211720000000 1.0
C      1  0.4688180000000  0.4447820000000  0.5242600000000 1.0
C      1  0.4750990000000  0.3973300000000  0.4835040000000 1.0
C      1  0.4796980000000  0.5782170000000  0.4350760000000 1.0
C      1  0.4943450000000  0.3980960000000  0.5899110000000 1.0
C      1  0.5586060000000  0.5684900000000  0.4338900000000 1.0
C      1  0.4980620000000  0.5008810000000  0.4167440000000 1.0
C      1  0.4952180000000  0.4840590000000  0.5335140000000 1.0
C      1  0.3771640000000  0.5332960000000  0.4388620000000 1.0
C      1  0.5792250000000  0.5649380000000  0.5588120000000 1.0
C      1  0.4863010000000  0.5481930000000  0.4312060000000 1.0
C      1  0.5811980000000  0.4875620000000  0.5543380000000 1.0
C      1  0.5273150000000  0.4415600000000  0.4103510000000 1.0
C      1  0.4663510000000  0.4491120000000  0.4969320000000 1.0
C      1  0.4412470000000  0.4416440000000  0.4859330000000 1.0
C      1  0.5237680000000  0.5905470000000  0.5632480000000 1.0
C      1  0.5904400000000  0.5574970000000  0.5100460000000 1.0
C      1  0.4471680000000  0.5562900000000  0.5634240000000 1.0
C      1  0.5624390000000  0.5227820000000  0.5798380000000 1.0
C      1  0.5085800000000  0.4383800000000  0.5663740000000 1.0
C      1  0.5331220000000  0.4261780000000  0.5205420000000 1.0
C      1  0.5403260000000  0.5673800000000  0.4939830000000 1.0
C      1  0.4179860000000  0.4280760000000  0.5480530000000 1.0
C      1  0.5834140000000  0.5444530000000  0.4856040000000 1.0
C      1  0.5768100000000  0.4213230000000  0.5020790000000 1.0
C      1  0.5829900000000  0.4813910000000  0.4933530000000 1.0
C      1  0.5677400000000  0.4406210000000  0.5517570000000 1.0
C      1  0.5071540000000  0.4876870000000  0.3927740000000 1.0
C      1  0.5540770000000  0.5443480000000  0.4777530000000 1.0
C      1  0.4613140000000  0.4175590000000  0.5302230000000 1.0
C      1  0.4515080000000  0.5450620000000  0.4651790000000 1.0
C      1  0.4679680000000  0.3990850000000  0.5096440000000 1.0
C      1  0.5656560000000  0.4705090000000  0.5105340000000 1.0
C      1  0.4511430000000  0.5845320000000  0.4321390000000 1.0
C      1  0.5078310000000  0.5269620000000  0.4258680000000 1.0
C      1  0.5076340000000  0.6358980000000  0.5556680000000 1.0
C      1  0.4877100000000  0.5102050000000  0.5257660000000 1.0
C      1  0.4452920000000  0.5324150000000  0.5829010000000 1.0
C      1  0.4713440000000  0.5538450000000  0.4829010000000 1.0
C      1  0.5252880000000  0.5623160000000  0.5647120000000 1.0
C      1  0.4444910000000  0.4790710000000  0.4615970000000 1.0
C      1  0.5189670000000  0.4699000000000  0.5296770000000 1.0
C      1  0.4145470000000  0.5576770000000  0.4933570000000 1.0
C      1  0.4713720000000  0.4945640000000  0.5822840000000 1.0
C      1  0.4395450000000  0.5621910000000  0.5358300000000 1.0
C      1  0.4781790000000  0.4088930000000  0.4574640000000 1.0
C      1  0.4351270000000  0.4516830000000  0.4601420000000 1.0
C      1  0.4422080000000  0.5030730000000  0.5840590000000 1.0
C      1  0.4344090000000  0.4322670000000  0.4396230000000 1.0
C      1  0.6072110000000  0.4810380000000  0.5463220000000 1.0
C      1  0.5459470000000  0.5668460000000  0.5221820000000 1.0
C      1  0.3907940000000  0.5175970000000  0.4552960000000 1.0
C      1  0.5502910000000  0.4987910000000  0.4319400000000 1.0
C      1  0.5121680000000  0.4439280000000  0.4718020000000 1.0
C      1  0.4686880000000  0.5738250000000  0.5742120000000 1.0
C      1  0.4868570000000  0.4215520000000  0.5773160000000 1.0
C      1  0.4710790000000  0.5091120000000  0.5028220000000 1.0
C      1  0.5087940000000  0.5223580000000  0.4781580000000 1.0
C      1  0.4773770000000  0.5992120000000  0.5663930000000 1.0
C      1  0.5191730000000  0.4198750000000  0.4282590000000 1.0
C      1  0.5297150000000  0.5468590000000  0.5392260000000 1.0
C      1  0.5545310000000  0.4515080000000  0.4144350000000 1.0
C      1  0.5732930000000  0.5491190000000  0.5804420000000 1.0
C      1  0.4433100000000  0.5071150000000  0.4996620000000 1.0
C      1  0.6192660000000  0.4402970000000  0.5181390000000 1.0
C      1  0.4991670000000  0.5485010000000  0.4802610000000 1.0
C      1  0.4926640000000  0.5980440000000  0.4522100000000 1.0
C      1  0.5649760000000  0.4663400000000  0.5651860000000 1.0
C      1  0.5106690000000  0.5009860000000  0.3692050000000 1.0
C      1  0.5498840000000  0.5463060000000  0.4474000000000 1.0
C      1  0.4703590000000  0.5805450000000  0.4952360000000 1.0
C      1  0.4551080000000  0.4129800000000  0.4415440000000 1.0
C      1  0.4867610000000  0.5045860000000  0.4788360000000 1.0
C      1  0.3990510000000  0.5323760000000  0.5337850000000 1.0
C      1  0.5124680000000  0.5492970000000  0.5862110000000 1.0
C      1  0.5575440000000  0.4191460000000  0.4795780000000 1.0
C      1  0.5115900000000  0.4595420000000  0.3952450000000 1.0
C      1  0.5321280000000  0.4657940000000  0.4630400000000 1.0
C      1  0.5479720000000  0.5225560000000  0.5351760000000 1.0
C      1  0.4810150000000  0.4839060000000  0.4319660000000 1.0
C      1  0.6009720000000  0.4604470000000  0.4563400000000 1.0
C      1  0.5704750000000  0.4354540000000  0.4320530000000 1.0
C      1  0.4439750000000  0.4172770000000  0.5527150000000 1.0
C      1  0.4762460000000  0.4823420000000  0.4615660000000 1.0
C      1  0.5400170000000  0.5057280000000  0.5892460000000 1.0
C      1  0.4436930000000  0.5238770000000  0.4207110000000 1.0
C      1  0.3649480000000  0.5495800000000  0.4225790000000 1.0
C      1  0.4748830000000  0.4663690000000  0.5420830000000 1.0
C      1  0.5406310000000  0.4808480000000  0.5161050000000 1.0
C      1  0.4009870000000  0.4986620000000  0.4731530000000 1.0
C      1  0.4604310000000  0.5359610000000  0.4394680000000 1.0
END
