TITL C-627106-156-567 0.170493356878993 125000 -1060.43195959946 0 0 173 (C1) n - 1
REM
REM in /home/nfs/bkarasulu/CARBON/AIRSS/Generating-Clusters/LCBOP/Only-C1/SD-CG/FIRE-CG
REM
REM
REM
REM
REM
REM ./C.cell (11c1c37f851c82e70ff6c80c92926a4b)
REM AIRSS Version 0.9.1 bugfix July 2018 build 013d7b7c2542+ Fri, 06 Jul 2018 19:26:36 +0100
REM compiler GCC version 9.2.1 20190827 (Red Hat 9.2.1-1)
REM options -cpp -mtune=generic -march=x86-64 -g -O0 -fpre-include=/usr/include/finclude/math-vector-fortran.h
REM seed -803489353 -1508780425 27947063 2143523872 460190549 -1316940046 1178565356 -642575349 755861080 1202329998 292317512 -1234377487 -504692138 1618727466 -269397184 -383034811 2054459979 -1424982719 -377204974 564585848 -174857075 517375899 577911912 2053920226 -542994940 1904962506 -2140794542 1960576212 1413773214 1932194705 1033672107 1070665146 1175130767
REM
CELL 1.54180   50.00000   50.00000   50.00000   90.00000   90.00000   90.00000
LATT -1
SFAC C  
C      1  0.3861070000000  0.5328070000000  0.5328490000000 1.0
C      1  0.5416360000000  0.5138460000000  0.5286320000000 1.0
C      1  0.4648680000000  0.5706890000000  0.5964500000000 1.0
C      1  0.4904100000000  0.5583570000000  0.4741060000000 1.0
C      1  0.5214400000000  0.4557960000000  0.5739260000000 1.0
C      1  0.5218900000000  0.3780240000000  0.4996230000000 1.0
C      1  0.5131610000000  0.5402110000000  0.3831010000000 1.0
C      1  0.4518460000000  0.4311800000000  0.5937890000000 1.0
C      1  0.4690400000000  0.4420520000000  0.5414070000000 1.0
C      1  0.5862270000000  0.4784290000000  0.5610980000000 1.0
C      1  0.5794350000000  0.6062050000000  0.5562840000000 1.0
C      1  0.4673410000000  0.5969450000000  0.5837160000000 1.0
C      1  0.5212950000000  0.5378490000000  0.4500790000000 1.0
C      1  0.4808430000000  0.5428230000000  0.5444880000000 1.0
C      1  0.4934220000000  0.5604850000000  0.5962400000000 1.0
C      1  0.4687360000000  0.4912450000000  0.5281870000000 1.0
C      1  0.5166010000000  0.4660400000000  0.3922470000000 1.0
C      1  0.4451120000000  0.5499770000000  0.4242780000000 1.0
C      1  0.4847360000000  0.5262030000000  0.4133090000000 1.0
C      1  0.4993440000000  0.4495050000000  0.5919130000000 1.0
C      1  0.5890480000000  0.4766910000000  0.4326320000000 1.0
C      1  0.4684540000000  0.5619230000000  0.5273050000000 1.0
C      1  0.4149690000000  0.5848110000000  0.5067440000000 1.0
C      1  0.4946280000000  0.3889130000000  0.4987660000000 1.0
C      1  0.5244880000000  0.4309700000000  0.4751220000000 1.0
C      1  0.4598270000000  0.4038870000000  0.4661870000000 1.0
C      1  0.4447510000000  0.5023790000000  0.4053320000000 1.0
C      1  0.4858120000000  0.4909490000000  0.4498260000000 1.0
C      1  0.4400070000000  0.4192100000000  0.5128510000000 1.0
C      1  0.5134450000000  0.5132280000000  0.6137080000000 1.0
C      1  0.5447560000000  0.4034960000000  0.5410630000000 1.0
C      1  0.4864420000000  0.5756480000000  0.4115120000000 1.0
C      1  0.6076560000000  0.4493960000000  0.4789850000000 1.0
C      1  0.3862950000000  0.4993010000000  0.4903920000000 1.0
C      1  0.4168580000000  0.4869390000000  0.5234220000000 1.0
C      1  0.4567140000000  0.5484300000000  0.5030870000000 1.0
C      1  0.4474140000000  0.6033740000000  0.5331910000000 1.0
C      1  0.4232280000000  0.5656930000000  0.5292660000000 1.0
C      1  0.4975060000000  0.5229390000000  0.5087880000000 1.0
C      1  0.4493730000000  0.4346990000000  0.3953230000000 1.0
C      1  0.5596120000000  0.5706630000000  0.4147600000000 1.0
C      1  0.4538200000000  0.4209080000000  0.4180000000000 1.0
C      1  0.5225580000000  0.5988390000000  0.5175090000000 1.0
C      1  0.3901440000000  0.4724220000000  0.4814510000000 1.0
C      1  0.5852330000000  0.5029530000000  0.4432420000000 1.0
C      1  0.5059510000000  0.5383470000000  0.5323570000000 1.0
C      1  0.4027580000000  0.5424910000000  0.4891390000000 1.0
C      1  0.4404450000000  0.4060770000000  0.4875600000000 1.0
C      1  0.5367670000000  0.5890710000000  0.5736850000000 1.0
C      1  0.5349840000000  0.4465910000000  0.5214420000000 1.0
C      1  0.4198610000000  0.5434850000000  0.4359700000000 1.0
C      1  0.4211280000000  0.4696080000000  0.5672750000000 1.0
C      1  0.5393800000000  0.5479950000000  0.5948720000000 1.0
C      1  0.5565640000000  0.3972150000000  0.4718680000000 1.0
C      1  0.5902830000000  0.5092490000000  0.4894690000000 1.0
C      1  0.5888070000000  0.5034940000000  0.5170770000000 1.0
C      1  0.4914550000000  0.4011350000000  0.5949910000000 1.0
C      1  0.5183310000000  0.4171820000000  0.4489850000000 1.0
C      1  0.4839780000000  0.4737420000000  0.5972300000000 1.0
C      1  0.5131860000000  0.5411400000000  0.6053850000000 1.0
C      1  0.5494260000000  0.4454050000000  0.5715930000000 1.0
C      1  0.5812200000000  0.5515030000000  0.5219310000000 1.0
C      1  0.4459690000000  0.4578110000000  0.3820200000000 1.0
C      1  0.5288740000000  0.5114950000000  0.4549670000000 1.0
C      1  0.4452510000000  0.4919380000000  0.4794620000000 1.0
C      1  0.5606230000000  0.4231920000000  0.5548070000000 1.0
C      1  0.6229680000000  0.4705420000000  0.3909450000000 1.0
C      1  0.4399220000000  0.4612630000000  0.4753400000000 1.0
C      1  0.5304570000000  0.4300820000000  0.4261430000000 1.0
C      1  0.4868400000000  0.6105910000000  0.4883450000000 1.0
C      1  0.5044590000000  0.5155090000000  0.3955890000000 1.0
C      1  0.5069310000000  0.4225690000000  0.3558500000000 1.0
C      1  0.3934780000000  0.5047430000000  0.5194210000000 1.0
C      1  0.5674770000000  0.4671380000000  0.5800540000000 1.0
C      1  0.5148020000000  0.4907200000000  0.4072740000000 1.0
C      1  0.4644610000000  0.4725510000000  0.5766180000000 1.0
C      1  0.4116240000000  0.4562850000000  0.4771640000000 1.0
C      1  0.5120030000000  0.4317880000000  0.5205360000000 1.0
C      1  0.4862710000000  0.5962910000000  0.5623680000000 1.0
C      1  0.4657040000000  0.4730760000000  0.4385790000000 1.0
C      1  0.4692920000000  0.4684200000000  0.5482830000000 1.0
C      1  0.5088640000000  0.5840390000000  0.5729700000000 1.0
C      1  0.6036000000000  0.4992170000000  0.5696450000000 1.0
C      1  0.4660190000000  0.4210050000000  0.5242070000000 1.0
C      1  0.4723720000000  0.5070920000000  0.4716560000000 1.0
C      1  0.4951710000000  0.6031480000000  0.5145030000000 1.0
C      1  0.5575900000000  0.4836570000000  0.6014400000000 1.0
C      1  0.4161160000000  0.4624100000000  0.5393650000000 1.0
C      1  0.4414170000000  0.4558770000000  0.5828320000000 1.0
C      1  0.5521260000000  0.4682890000000  0.5276200000000 1.0
C      1  0.5176500000000  0.4825280000000  0.5601330000000 1.0
C      1  0.4289320000000  0.5851970000000  0.5503220000000 1.0
C      1  0.5379100000000  0.5485010000000  0.4948100000000 1.0
C      1  0.5758060000000  0.4526160000000  0.4423940000000 1.0
C      1  0.5963730000000  0.4025100000000  0.4977420000000 1.0
C      1  0.4106010000000  0.5203390000000  0.4502900000000 1.0
C      1  0.4246790000000  0.4989880000000  0.5694410000000 1.0
C      1  0.4309550000000  0.5464490000000  0.4911260000000 1.0
C      1  0.4180550000000  0.5688900000000  0.5731480000000 1.0
C      1  0.4345450000000  0.4119560000000  0.6043260000000 1.0
C      1  0.5111590000000  0.4179630000000  0.3823090000000 1.0
C      1  0.5309970000000  0.5342850000000  0.5446560000000 1.0
C      1  0.5085970000000  0.4480390000000  0.3464320000000 1.0
C      1  0.5857460000000  0.5223210000000  0.4645500000000 1.0
C      1  0.5416890000000  0.5207500000000  0.5012470000000 1.0
C      1  0.4648830000000  0.5709570000000  0.4321880000000 1.0
C      1  0.4707590000000  0.5147900000000  0.5505320000000 1.0
C      1  0.5602820000000  0.5664230000000  0.5056590000000 1.0
C      1  0.5106270000000  0.5664030000000  0.3967110000000 1.0
C      1  0.4439870000000  0.4847400000000  0.3833450000000 1.0
C      1  0.3940790000000  0.5212610000000  0.4732110000000 1.0
C      1  0.5431720000000  0.5369000000000  0.5693660000000 1.0
C      1  0.5387220000000  0.3976050000000  0.5140110000000 1.0
C      1  0.5798770000000  0.5515250000000  0.4600430000000 1.0
C      1  0.6123780000000  0.4451950000000  0.5054730000000 1.0
C      1  0.5482620000000  0.4503620000000  0.4364160000000 1.0
C      1  0.3864930000000  0.5802770000000  0.5065210000000 1.0
C      1  0.4377130000000  0.5617460000000  0.5931890000000 1.0
C      1  0.5344740000000  0.6104470000000  0.4648020000000 1.0
C      1  0.6047970000000  0.5234970000000  0.5576290000000 1.0
C      1  0.4611300000000  0.5981340000000  0.4809730000000 1.0
C      1  0.4571140000000  0.4509170000000  0.4547260000000 1.0
C      1  0.4394180000000  0.6007350000000  0.5030340000000 1.0
C      1  0.5580230000000  0.5972930000000  0.4674650000000 1.0
C      1  0.4299460000000  0.5390090000000  0.5382200000000 1.0
C      1  0.5184580000000  0.4377250000000  0.4015410000000 1.0
C      1  0.6010780000000  0.4223450000000  0.5182710000000 1.0
C      1  0.4181880000000  0.3939490000000  0.6136690000000 1.0
C      1  0.5436750000000  0.4163390000000  0.4912520000000 1.0
C      1  0.5390040000000  0.4995650000000  0.6130040000000 1.0
C      1  0.5097460000000  0.3903110000000  0.4551010000000 1.0
C      1  0.4701530000000  0.5763680000000  0.4613400000000 1.0
C      1  0.5833880000000  0.4077750000000  0.4719510000000 1.0
C      1  0.4847500000000  0.3902600000000  0.4711260000000 1.0
C      1  0.4570580000000  0.5278800000000  0.4094100000000 1.0
C      1  0.4913180000000  0.4957410000000  0.6128300000000 1.0
C      1  0.4428960000000  0.4887410000000  0.4299710000000 1.0
C      1  0.5480480000000  0.5747810000000  0.5956570000000 1.0
C      1  0.5323410000000  0.5026860000000  0.4821140000000 1.0
C      1  0.5361990000000  0.4887110000000  0.5392640000000 1.0
C      1  0.6031590000000  0.6162210000000  0.5602720000000 1.0
C      1  0.5331230000000  0.3779630000000  0.4702620000000 1.0
C      1  0.4296190000000  0.5002270000000  0.4523150000000 1.0
C      1  0.5927860000000  0.5279730000000  0.5325560000000 1.0
C      1  0.5755640000000  0.5587500000000  0.4326280000000 1.0
C      1  0.4987390000000  0.5391060000000  0.4337200000000 1.0
C      1  0.3840120000000  0.5516360000000  0.5093940000000 1.0
C      1  0.4813120000000  0.4266200000000  0.5937640000000 1.0
C      1  0.5359130000000  0.5769970000000  0.4040450000000 1.0
C      1  0.5792220000000  0.4792030000000  0.5321810000000 1.0
C      1  0.5870740000000  0.4240900000000  0.5430190000000 1.0
C      1  0.4427520000000  0.4928220000000  0.5106660000000 1.0
C      1  0.5192410000000  0.5547110000000  0.4731680000000 1.0
C      1  0.5717640000000  0.5742140000000  0.4782270000000 1.0
C      1  0.5199540000000  0.4588470000000  0.4753070000000 1.0
C      1  0.5471030000000  0.5875720000000  0.5245970000000 1.0
C      1  0.4965460000000  0.5023800000000  0.5647450000000 1.0
C      1  0.6066740000000  0.4737400000000  0.4110300000000 1.0
C      1  0.3936060000000  0.5476840000000  0.5602480000000 1.0
C      1  0.5150630000000  0.4903700000000  0.4382350000000 1.0
C      1  0.4784430000000  0.5340360000000  0.4876820000000 1.0
C      1  0.5893230000000  0.4353940000000  0.4616290000000 1.0
C      1  0.4576880000000  0.4239940000000  0.4458000000000 1.0
C      1  0.4209080000000  0.4370140000000  0.5259710000000 1.0
C      1  0.4407190000000  0.5188870000000  0.5559330000000 1.0
C      1  0.5085260000000  0.6159530000000  0.4704390000000 1.0
C      1  0.4945190000000  0.4934360000000  0.5102320000000 1.0
C      1  0.5137990000000  0.4683400000000  0.3637520000000 1.0
C      1  0.4757690000000  0.5921560000000  0.5344780000000 1.0
C      1  0.4909690000000  0.4123760000000  0.5148490000000 1.0
C      1  0.5546820000000  0.5941290000000  0.5515660000000 1.0
C      1  0.5295170000000  0.4672400000000  0.4493110000000 1.0
C      1  0.5140420000000  0.4813950000000  0.4920130000000 1.0
END
