TITL C-627109-622-1056 3268.9679096523 125000 -977.252260910305 0 0 160 (C1) n - 1
REM
REM in /home/nfs/bkarasulu/CARBON/AIRSS/Generating-Clusters/LCBOP/Only-C1/SD-CG/FIRE-CG
REM
REM
REM
REM
REM
REM ./C.cell (11c1c37f851c82e70ff6c80c92926a4b)
REM AIRSS Version 0.9.1 bugfix July 2018 build 013d7b7c2542+ Fri, 06 Jul 2018 19:26:36 +0100
REM compiler GCC version 9.2.1 20190827 (Red Hat 9.2.1-1)
REM options -cpp -mtune=generic -march=x86-64 -g -O0 -fpre-include=/usr/include/finclude/math-vector-fortran.h
REM seed 392558447 969312513 -1644244875 -696550503 -1533322632 917139585 1642400880 1985115079 -216563046 1352656319 -1880631980 839292009 341370402 17978549 -118273806 -698512397 -927537034 164008588 -712833760 650681582 2106600591 -217006482 -1153860247 1236519829 -1969930917 -872500286 -568729099 -316042530 2061799620 -741248352 -1097628545 -2123758633 903112771
REM
CELL 1.54180   50.00000   50.00000   50.00000   90.00000   90.00000   90.00000
LATT -1
SFAC C  
C      1  0.5589300000000  0.6010720000000  0.4225140000000 1.0
C      1  0.4418750000000  0.4028200000000  0.4787740000000 1.0
C      1  0.6165840000000  0.5447150000000  0.5004120000000 1.0
C      1  0.4923180000000  0.5317420000000  0.6044950000000 1.0
C      1  0.5121090000000  0.4880750000000  0.5208940000000 1.0
C      1  0.4164650000000  0.4622870000000  0.5684370000000 1.0
C      1  0.5379970000000  0.5935970000000  0.4390930000000 1.0
C      1  0.4700440000000  0.5197490000000  0.4614050000000 1.0
C      1  0.4901190000000  0.4757560000000  0.3888560000000 1.0
C      1  0.5315250000000  0.3905320000000  0.4513710000000 1.0
C      1  0.4450940000000  0.4632540000000  0.4125660000000 1.0
C      1  0.5665200000000  0.4135520000000  0.4791960000000 1.0
C      1  0.4097770000000  0.5047790000000  0.5075390000000 1.0
C      1  0.5633780000000  0.4302800000000  0.5534100000000 1.0
C      1  0.4444380000000  0.5174790000000  0.5376310000000 1.0
C      1  0.4583270000000  0.5118520000000  0.4049280000000 1.0
C      1  0.6245460000000  0.6136300000000  0.3802730000000 1.0
C      1  0.4783240000000  0.4948000000000  0.4734940000000 1.0
C      1  0.5685000000000  0.4302200000000  0.5239710000000 1.0
C      1  0.4744080000000  0.4302790000000  0.4452150000000 1.0
C      1  0.4897100000000  0.5331740000000  0.4449870000000 1.0
C      1  0.4817110000000  0.5445920000000  0.5374270000000 1.0
C      1  0.4489460000000  0.3928220000000  0.5042180000000 1.0
C      1  0.5193380000000  0.4290880000000  0.5731980000000 1.0
C      1  0.4986650000000  0.5609160000000  0.4496780000000 1.0
C      1  0.3938560000000  0.4776180000000  0.4592580000000 1.0
C      1  0.4690660000000  0.4829460000000  0.5989100000000 1.0
C      1  0.4017170000000  0.4271060000000  0.5026460000000 1.0
C      1  0.5011370000000  0.5151650000000  0.4245710000000 1.0
C      1  0.5244350000000  0.4807290000000  0.4979250000000 1.0
C      1  0.4199900000000  0.5256280000000  0.4653840000000 1.0
C      1  0.5326290000000  0.4429990000000  0.4096880000000 1.0
C      1  0.4969730000000  0.5027250000000  0.3781770000000 1.0
C      1  0.4852370000000  0.4944000000000  0.5568320000000 1.0
C      1  0.4502990000000  0.5418150000000  0.4986520000000 1.0
C      1  0.4418810000000  0.5268260000000  0.5927690000000 1.0
C      1  0.4957980000000  0.3772210000000  0.5093320000000 1.0
C      1  0.4845160000000  0.5765280000000  0.4998930000000 1.0
C      1  0.4027330000000  0.5260690000000  0.4886850000000 1.0
C      1  0.5477360000000  0.4656570000000  0.4917160000000 1.0
C      1  0.4654160000000  0.4771250000000  0.5456000000000 1.0
C      1  0.4183980000000  0.4714350000000  0.4176260000000 1.0
C      1  0.5089110000000  0.4778620000000  0.5652800000000 1.0
C      1  0.5123870000000  0.4657830000000  0.4065270000000 1.0
C      1  0.5741330000000  0.4715140000000  0.5373850000000 1.0
C      1  0.5308360000000  0.6118050000000  0.5136390000000 1.0
C      1  0.5091510000000  0.4909030000000  0.4733840000000 1.0
C      1  0.4198190000000  0.5534670000000  0.5581400000000 1.0
C      1  0.5353270000000  0.4104410000000  0.3664100000000 1.0
C      1  0.5358530000000  0.5515140000000  0.5547920000000 1.0
C      1  0.4142050000000  0.4232350000000  0.5287700000000 1.0
C      1  0.5666570000000  0.5112570000000  0.4870810000000 1.0
C      1  0.4698350000000  0.4563510000000  0.5022540000000 1.0
C      1  0.4614640000000  0.4079640000000  0.4584510000000 1.0
C      1  0.4384670000000  0.5280420000000  0.4208750000000 1.0
C      1  0.4205460000000  0.4216790000000  0.4804820000000 1.0
C      1  0.4665840000000  0.5890340000000  0.5541510000000 1.0
C      1  0.4157930000000  0.4829720000000  0.5500950000000 1.0
C      1  0.5521880000000  0.5218880000000  0.4647880000000 1.0
C      1  0.5467160000000  0.5108600000000  0.5361750000000 1.0
C      1  0.5673740000000  0.4584920000000  0.5627360000000 1.0
C      1  0.6653910000000  0.5682470000000  0.5004220000000 1.0
C      1  0.5883690000000  0.4336140000000  0.4716450000000 1.0
C      1  0.4047550000000  0.4897370000000  0.4348960000000 1.0
C      1  0.4170810000000  0.4352210000000  0.5571340000000 1.0
C      1  0.4671400000000  0.5133530000000  0.6014410000000 1.0
C      1  0.5124220000000  0.5364840000000  0.4836470000000 1.0
C      1  0.5127470000000  0.6100360000000  0.5347580000000 1.0
C      1  0.5547730000000  0.4316240000000  0.4343380000000 1.0
C      1  0.4419380000000  0.5563800000000  0.4301590000000 1.0
C      1  0.5381650000000  0.3981210000000  0.5249360000000 1.0
C      1  0.3742250000000  0.4621230000000  0.4739060000000 1.0
C      1  0.5400190000000  0.4139260000000  0.5578290000000 1.0
C      1  0.3936850000000  0.5507070000000  0.4989790000000 1.0
C      1  0.6026910000000  0.4779120000000  0.5023640000000 1.0
C      1  0.3794240000000  0.4433320000000  0.4937050000000 1.0
C      1  0.4014240000000  0.5054260000000  0.5373280000000 1.0
C      1  0.6049960000000  0.5233850000000  0.4532220000000 1.0
C      1  0.5519260000000  0.5096860000000  0.5096100000000 1.0
C      1  0.4429480000000  0.5852320000000  0.4768340000000 1.0
C      1  0.4931690000000  0.5792580000000  0.4725490000000 1.0
C      1  0.4867940000000  0.5199390000000  0.3993790000000 1.0
C      1  0.5494000000000  0.4108660000000  0.4550450000000 1.0
C      1  0.6037010000000  0.4507360000000  0.4903460000000 1.0
C      1  0.5342370000000  0.4263100000000  0.3870500000000 1.0
C      1  0.5743210000000  0.4733870000000  0.4480030000000 1.0
C      1  0.4455900000000  0.4651450000000  0.5918910000000 1.0
C      1  0.5179160000000  0.4711150000000  0.4531220000000 1.0
C      1  0.5989110000000  0.5122850000000  0.5441400000000 1.0
C      1  0.4569540000000  0.5859450000000  0.5030920000000 1.0
C      1  0.5174430000000  0.5308650000000  0.5659930000000 1.0
C      1  0.5115550000000  0.4494490000000  0.5540850000000 1.0
C      1  0.4971760000000  0.4696050000000  0.5940870000000 1.0
C      1  0.5130770000000  0.3987750000000  0.5120080000000 1.0
C      1  0.5806060000000  0.6059960000000  0.4081130000000 1.0
C      1  0.5198020000000  0.5720140000000  0.4332520000000 1.0
C      1  0.6022830000000  0.5455190000000  0.4748580000000 1.0
C      1  0.5938660000000  0.4956170000000  0.4556530000000 1.0
C      1  0.4444320000000  0.4257700000000  0.5667360000000 1.0
C      1  0.4050240000000  0.5272170000000  0.5586410000000 1.0
C      1  0.5088830000000  0.4417790000000  0.5977930000000 1.0
C      1  0.5249370000000  0.5173930000000  0.4676940000000 1.0
C      1  0.4590640000000  0.4422410000000  0.4248860000000 1.0
C      1  0.5313950000000  0.6070130000000  0.4637660000000 1.0
C      1  0.4897430000000  0.4405040000000  0.4883440000000 1.0
C      1  0.5582940000000  0.5334560000000  0.5498210000000 1.0
C      1  0.4473160000000  0.5863470000000  0.5312570000000 1.0
C      1  0.4878980000000  0.5637300000000  0.5914340000000 1.0
C      1  0.5482670000000  0.5642240000000  0.5102910000000 1.0
C      1  0.4021920000000  0.5695030000000  0.5162680000000 1.0
C      1  0.5281000000000  0.4913420000000  0.5450680000000 1.0
C      1  0.5598540000000  0.4087300000000  0.5076630000000 1.0
C      1  0.6080020000000  0.5329570000000  0.5254310000000 1.0
C      1  0.5456920000000  0.6037010000000  0.4886420000000 1.0
C      1  0.5032770000000  0.6056710000000  0.4676020000000 1.0
C      1  0.4411460000000  0.5527720000000  0.5785680000000 1.0
C      1  0.5612330000000  0.5465310000000  0.4546600000000 1.0
C      1  0.4155670000000  0.5160380000000  0.5850300000000 1.0
C      1  0.4216960000000  0.5725080000000  0.5365920000000 1.0
C      1  0.5074000000000  0.5828770000000  0.5787630000000 1.0
C      1  0.5339460000000  0.5736260000000  0.5743720000000 1.0
C      1  0.5128300000000  0.4862250000000  0.4276190000000 1.0
C      1  0.4588680000000  0.4265200000000  0.5415010000000 1.0
C      1  0.4663910000000  0.4524780000000  0.5307730000000 1.0
C      1  0.5235330000000  0.5212330000000  0.5910150000000 1.0
C      1  0.5127640000000  0.4422310000000  0.5277580000000 1.0
C      1  0.4593410000000  0.4805030000000  0.4907280000000 1.0
C      1  0.4419770000000  0.4909460000000  0.5438230000000 1.0
C      1  0.4523020000000  0.4377590000000  0.5909160000000 1.0
C      1  0.5803420000000  0.4452140000000  0.4445780000000 1.0
C      1  0.5900440000000  0.4957860000000  0.4844400000000 1.0
C      1  0.5572760000000  0.5056440000000  0.5860610000000 1.0
C      1  0.4409710000000  0.5746730000000  0.4511540000000 1.0
C      1  0.4300010000000  0.4858760000000  0.4940230000000 1.0
C      1  0.4471190000000  0.5312090000000  0.4731290000000 1.0
C      1  0.4984170000000  0.5635020000000  0.5225330000000 1.0
C      1  0.4180740000000  0.4704980000000  0.4731200000000 1.0
C      1  0.5604220000000  0.4765950000000  0.5840460000000 1.0
C      1  0.4945400000000  0.4442830000000  0.4605110000000 1.0
C      1  0.4179610000000  0.5153290000000  0.4383620000000 1.0
C      1  0.4693380000000  0.3741040000000  0.5073780000000 1.0
C      1  0.5974160000000  0.4860940000000  0.5306900000000 1.0
C      1  0.4264820000000  0.4450620000000  0.4664920000000 1.0
C      1  0.5481190000000  0.4696560000000  0.4619610000000 1.0
C      1  0.4615980000000  0.4820290000000  0.3996830000000 1.0
C      1  0.6419090000000  0.5569460000000  0.5005820000000 1.0
C      1  0.5777620000000  0.5625180000000  0.4721280000000 1.0
C      1  0.5632990000000  0.4567470000000  0.5144600000000 1.0
C      1  0.5267100000000  0.5612890000000  0.5279210000000 1.0
C      1  0.5054020000000  0.4257070000000  0.5064870000000 1.0
C      1  0.4953080000000  0.5984310000000  0.5555710000000 1.0
C      1  0.4628910000000  0.5703310000000  0.5773670000000 1.0
C      1  0.4914770000000  0.5056660000000  0.5154590000000 1.0
C      1  0.6027280000000  0.6099610000000  0.3940630000000 1.0
C      1  0.4939760000000  0.5269630000000  0.4999500000000 1.0
C      1  0.4923400000000  0.5238300000000  0.5546960000000 1.0
C      1  0.4412980000000  0.4102820000000  0.5249540000000 1.0
C      1  0.5619200000000  0.5790390000000  0.4903490000000 1.0
C      1  0.5776180000000  0.5195290000000  0.5663630000000 1.0
C      1  0.4572460000000  0.5378940000000  0.5251620000000 1.0
END
