TITL C-627108-131-90 5.63795335104396e-08 125000 -842.984063508789 0 0 137 (C1) n - 1
REM
REM in /home/nfs/bkarasulu/CARBON/AIRSS/Generating-Clusters/LCBOP/Only-C1/SD-CG/FIRE-CG
REM
REM
REM
REM
REM
REM ./C.cell (11c1c37f851c82e70ff6c80c92926a4b)
REM AIRSS Version 0.9.1 bugfix July 2018 build 013d7b7c2542+ Fri, 06 Jul 2018 19:26:36 +0100
REM compiler GCC version 9.2.1 20190827 (Red Hat 9.2.1-1)
REM options -cpp -mtune=generic -march=x86-64 -g -O0 -fpre-include=/usr/include/finclude/math-vector-fortran.h
REM seed 998739727 1083263494 -1495664737 277684078 1289874080 -1017569899 382810694 -1424579905 -1921222049 1004961547 -1657811938 -969096568 1932638250 306500214 1910887456 -1065614590 -751969818 1068691384 -1359989001 89094429 215455324 -747658687 130573121 -817780138 1343102713 1520489752 -1997591318 -45448538 1051965407 355523185 -1921760568 1482752953 1803862255
REM
CELL 1.54180   50.00000   50.00000   50.00000   90.00000   90.00000   90.00000
LATT -1
SFAC C  
C      1  0.5001610000000  0.4564100000000  0.4632410000000 1.0
C      1  0.6133450000000  0.4691080000000  0.5125810000000 1.0
C      1  0.5638890000000  0.4449320000000  0.5286290000000 1.0
C      1  0.5875010000000  0.5382960000000  0.5122930000000 1.0
C      1  0.6061070000000  0.5139610000000  0.4240330000000 1.0
C      1  0.5092330000000  0.4090100000000  0.4320970000000 1.0
C      1  0.4972920000000  0.5148780000000  0.5729300000000 1.0
C      1  0.5082240000000  0.4926140000000  0.4919990000000 1.0
C      1  0.4313330000000  0.4605580000000  0.4418580000000 1.0
C      1  0.5045720000000  0.4841910000000  0.4649040000000 1.0
C      1  0.5137370000000  0.4999840000000  0.4432830000000 1.0
C      1  0.4742160000000  0.6015330000000  0.5154920000000 1.0
C      1  0.5037350000000  0.5253340000000  0.4404000000000 1.0
C      1  0.5930030000000  0.4732560000000  0.4675620000000 1.0
C      1  0.5699400000000  0.4647510000000  0.4453420000000 1.0
C      1  0.5743250000000  0.4904920000000  0.5694400000000 1.0
C      1  0.4546150000000  0.5560010000000  0.4245450000000 1.0
C      1  0.4983340000000  0.5394060000000  0.6132130000000 1.0
C      1  0.4715590000000  0.4770110000000  0.4114210000000 1.0
C      1  0.5334290000000  0.4897370000000  0.4257000000000 1.0
C      1  0.5262080000000  0.4633400000000  0.4165750000000 1.0
C      1  0.4909610000000  0.6079810000000  0.4926470000000 1.0
C      1  0.5085870000000  0.4574390000000  0.5913250000000 1.0
C      1  0.4430400000000  0.4045770000000  0.4620120000000 1.0
C      1  0.4500310000000  0.4814560000000  0.5242270000000 1.0
C      1  0.5600850000000  0.5103990000000  0.4564110000000 1.0
C      1  0.4977720000000  0.5397830000000  0.5585500000000 1.0
C      1  0.4068730000000  0.4426850000000  0.5179450000000 1.0
C      1  0.5679430000000  0.5590260000000  0.5025160000000 1.0
C      1  0.4184300000000  0.4399180000000  0.5429120000000 1.0
C      1  0.4722050000000  0.3558180000000  0.5337220000000 1.0
C      1  0.3920690000000  0.5044730000000  0.4910530000000 1.0
C      1  0.5500230000000  0.4868510000000  0.5868990000000 1.0
C      1  0.4518160000000  0.5287360000000  0.5460530000000 1.0
C      1  0.5363080000000  0.5030160000000  0.4985580000000 1.0
C      1  0.5324900000000  0.6107510000000  0.4689950000000 1.0
C      1  0.5530330000000  0.5214490000000  0.6203820000000 1.0
C      1  0.4936140000000  0.5388020000000  0.4622620000000 1.0
C      1  0.5491820000000  0.5729680000000  0.5214070000000 1.0
C      1  0.4572650000000  0.4481020000000  0.5777310000000 1.0
C      1  0.5014360000000  0.4820280000000  0.5393920000000 1.0
C      1  0.5529390000000  0.4396590000000  0.5984370000000 1.0
C      1  0.4535730000000  0.4544590000000  0.4226530000000 1.0
C      1  0.5374960000000  0.5086370000000  0.6015700000000 1.0
C      1  0.4068460000000  0.5872640000000  0.5296550000000 1.0
C      1  0.4978540000000  0.4742390000000  0.5121460000000 1.0
C      1  0.4952210000000  0.3784170000000  0.4979960000000 1.0
C      1  0.4534120000000  0.5634100000000  0.4527370000000 1.0
C      1  0.5138940000000  0.5631050000000  0.6102590000000 1.0
C      1  0.4882980000000  0.6045570000000  0.5398760000000 1.0
C      1  0.4790410000000  0.5475990000000  0.5134820000000 1.0
C      1  0.5692410000000  0.4581410000000  0.5044410000000 1.0
C      1  0.5325520000000  0.4214370000000  0.4447720000000 1.0
C      1  0.5177580000000  0.5615650000000  0.4147410000000 1.0
C      1  0.4402430000000  0.4324030000000  0.5609630000000 1.0
C      1  0.5370880000000  0.4611410000000  0.5918040000000 1.0
C      1  0.4921800000000  0.6067400000000  0.4434130000000 1.0
C      1  0.5509610000000  0.5287000000000  0.5403800000000 1.0
C      1  0.4809360000000  0.6162320000000  0.4204390000000 1.0
C      1  0.4034840000000  0.4527760000000  0.4903710000000 1.0
C      1  0.4584080000000  0.5407160000000  0.4948610000000 1.0
C      1  0.4504540000000  0.5864760000000  0.5076130000000 1.0
C      1  0.5901120000000  0.5022410000000  0.5470860000000 1.0
C      1  0.4432630000000  0.4101890000000  0.4881440000000 1.0
C      1  0.5402130000000  0.5547710000000  0.5423660000000 1.0
C      1  0.4881010000000  0.3948190000000  0.4477740000000 1.0
C      1  0.4245310000000  0.4486370000000  0.4690530000000 1.0
C      1  0.5621800000000  0.4928830000000  0.4327760000000 1.0
C      1  0.5451430000000  0.4459040000000  0.4337320000000 1.0
C      1  0.4618890000000  0.5063710000000  0.4128740000000 1.0
C      1  0.4541330000000  0.5865140000000  0.4713530000000 1.0
C      1  0.3859240000000  0.5723060000000  0.4710920000000 1.0
C      1  0.5201770000000  0.6004520000000  0.4454040000000 1.0
C      1  0.5503410000000  0.5641090000000  0.4535310000000 1.0
C      1  0.3896940000000  0.4777920000000  0.4887000000000 1.0
C      1  0.6036550000000  0.5016630000000  0.4728210000000 1.0
C      1  0.4353280000000  0.5250070000000  0.4993940000000 1.0
C      1  0.5034570000000  0.5567590000000  0.5043060000000 1.0
C      1  0.5716460000000  0.4178420000000  0.5277130000000 1.0
C      1  0.5179460000000  0.4363340000000  0.5319130000000 1.0
C      1  0.4842850000000  0.4947060000000  0.5573080000000 1.0
C      1  0.4539980000000  0.4526320000000  0.5115250000000 1.0
C      1  0.4821850000000  0.4527090000000  0.5875010000000 1.0
C      1  0.5099350000000  0.4379230000000  0.4826280000000 1.0
C      1  0.5830260000000  0.5030190000000  0.4146260000000 1.0
C      1  0.5554440000000  0.5505960000000  0.4782250000000 1.0
C      1  0.5517280000000  0.4770580000000  0.4945140000000 1.0
C      1  0.4772220000000  0.5409670000000  0.5398880000000 1.0
C      1  0.4574470000000  0.4992300000000  0.5467930000000 1.0
C      1  0.4321610000000  0.5743180000000  0.5282900000000 1.0
C      1  0.4486240000000  0.4582420000000  0.4833590000000 1.0
C      1  0.3845210000000  0.6001290000000  0.5335660000000 1.0
C      1  0.4355500000000  0.5529700000000  0.5497850000000 1.0
C      1  0.5227230000000  0.5712440000000  0.5859670000000 1.0
C      1  0.4621720000000  0.4072440000000  0.4419350000000 1.0
C      1  0.4653730000000  0.4280410000000  0.4218690000000 1.0
C      1  0.5097390000000  0.5168170000000  0.5983840000000 1.0
C      1  0.5322340000000  0.5968770000000  0.5183800000000 1.0
C      1  0.5306270000000  0.4200230000000  0.4736810000000 1.0
C      1  0.5043510000000  0.4459480000000  0.5089450000000 1.0
C      1  0.5315130000000  0.5761510000000  0.4353520000000 1.0
C      1  0.5226930000000  0.3817620000000  0.5020110000000 1.0
C      1  0.4989620000000  0.4675130000000  0.4062610000000 1.0
C      1  0.5202440000000  0.6071200000000  0.4940830000000 1.0
C      1  0.4346920000000  0.5594730000000  0.5776820000000 1.0
C      1  0.5650390000000  0.4022130000000  0.5066730000000 1.0
C      1  0.4524770000000  0.4073280000000  0.5545070000000 1.0
C      1  0.4383310000000  0.5068690000000  0.4295680000000 1.0
C      1  0.6017650000000  0.5143580000000  0.5000980000000 1.0
C      1  0.5389570000000  0.5058270000000  0.5288980000000 1.0
C      1  0.4885620000000  0.3786190000000  0.4706480000000 1.0
C      1  0.6142110000000  0.5147480000000  0.4498550000000 1.0
C      1  0.4773620000000  0.6034460000000  0.4676990000000 1.0
C      1  0.5412690000000  0.4002780000000  0.4917490000000 1.0
C      1  0.4664010000000  0.5430030000000  0.4680180000000 1.0
C      1  0.4701260000000  0.5434730000000  0.6131230000000 1.0
C      1  0.4431920000000  0.4983620000000  0.5010950000000 1.0
C      1  0.4998200000000  0.5395580000000  0.4160780000000 1.0
C      1  0.5948410000000  0.4592730000000  0.4930220000000 1.0
C      1  0.5106290000000  0.5526180000000  0.4791570000000 1.0
C      1  0.4927060000000  0.4227220000000  0.4122550000000 1.0
C      1  0.4774280000000  0.3793090000000  0.5204420000000 1.0
C      1  0.4476460000000  0.4862020000000  0.4761650000000 1.0
C      1  0.4486810000000  0.5531580000000  0.5999550000000 1.0
C      1  0.5156670000000  0.6042200000000  0.5408720000000 1.0
C      1  0.4646040000000  0.4033610000000  0.5294660000000 1.0
C      1  0.5790480000000  0.5278130000000  0.5384870000000 1.0
C      1  0.5489730000000  0.5225750000000  0.4788000000000 1.0
C      1  0.4556350000000  0.4226750000000  0.5106690000000 1.0
C      1  0.4714210000000  0.5351480000000  0.4109650000000 1.0
C      1  0.5303700000000  0.4813490000000  0.5424710000000 1.0
C      1  0.5396140000000  0.4534140000000  0.5405520000000 1.0
C      1  0.4077050000000  0.5282370000000  0.4925750000000 1.0
C      1  0.4354880000000  0.4888390000000  0.4503060000000 1.0
C      1  0.6064640000000  0.4947770000000  0.5231130000000 1.0
C      1  0.5196200000000  0.5578570000000  0.5612810000000 1.0
C      1  0.3969630000000  0.5523380000000  0.4837030000000 1.0
END
