TITL C-627107-135-623 0.192722670782911 125000 -348.163322102896 0 0 57 (C1) n - 1
REM
REM in /home/nfs/bkarasulu/CARBON/AIRSS/Generating-Clusters/LCBOP/Only-C1/SD-CG/FIRE-CG
REM
REM
REM
REM
REM
REM ./C.cell (11c1c37f851c82e70ff6c80c92926a4b)
REM AIRSS Version 0.9.1 bugfix July 2018 build 013d7b7c2542+ Fri, 06 Jul 2018 19:26:36 +0100
REM compiler GCC version 9.2.1 20190827 (Red Hat 9.2.1-1)
REM options -cpp -mtune=generic -march=x86-64 -g -O0 -fpre-include=/usr/include/finclude/math-vector-fortran.h
REM seed -771127312 -1495336961 -1862606958 651505975 2068458415 -1702046458 -1414339179 -1825617451 630874274 -840257531 -566052362 813216964 2063423769 -862354778 -1772656586 -1146865388 -2096131883 9217307 -946533696 -1337351344 -1938862890 1237361232 328171024 867325614 1566937210 466559749 1291564716 1306452348 -843137483 -278673908 -1157224228 2062476215 1397283085
REM
CELL 1.54180   50.00000   50.00000   50.00000   90.00000   90.00000   90.00000
LATT -1
SFAC C  
C      1  0.4720540000000  0.5247890000000  0.5295670000000 1.0
C      1  0.4884740000000  0.4366120000000  0.4935530000000 1.0
C      1  0.3850460000000  0.5396980000000  0.4252430000000 1.0
C      1  0.4544770000000  0.5566790000000  0.4399500000000 1.0
C      1  0.4638570000000  0.4899510000000  0.4458680000000 1.0
C      1  0.5218670000000  0.5037560000000  0.4789460000000 1.0
C      1  0.4883120000000  0.5394630000000  0.5740900000000 1.0
C      1  0.5835240000000  0.4981650000000  0.5749010000000 1.0
C      1  0.5323340000000  0.4784950000000  0.4704370000000 1.0
C      1  0.5284230000000  0.5171990000000  0.5963620000000 1.0
C      1  0.5134360000000  0.4478870000000  0.5046880000000 1.0
C      1  0.4112860000000  0.4960400000000  0.4396430000000 1.0
C      1  0.4052700000000  0.5591600000000  0.4257430000000 1.0
C      1  0.4905390000000  0.4270020000000  0.5389750000000 1.0
C      1  0.5352430000000  0.4928940000000  0.5844130000000 1.0
C      1  0.4758850000000  0.4233580000000  0.5158570000000 1.0
C      1  0.5925030000000  0.5180510000000  0.5594370000000 1.0
C      1  0.5609200000000  0.4819490000000  0.5769040000000 1.0
C      1  0.5005080000000  0.4855340000000  0.4153320000000 1.0
C      1  0.5136770000000  0.4437330000000  0.5340610000000 1.0
C      1  0.5863310000000  0.5199050000000  0.5111240000000 1.0
C      1  0.4765130000000  0.5121180000000  0.4588730000000 1.0
C      1  0.3594040000000  0.5457200000000  0.4181750000000 1.0
C      1  0.3927390000000  0.5136840000000  0.4324620000000 1.0
C      1  0.5329480000000  0.5462040000000  0.5029530000000 1.0
C      1  0.5444590000000  0.5590460000000  0.5237160000000 1.0
C      1  0.5095050000000  0.5357740000000  0.5920540000000 1.0
C      1  0.4822380000000  0.5125180000000  0.5066180000000 1.0
C      1  0.5678840000000  0.5158940000000  0.4919040000000 1.0
C      1  0.5263610000000  0.4891610000000  0.4229380000000 1.0
C      1  0.4808660000000  0.4724400000000  0.4313630000000 1.0
C      1  0.5108690000000  0.4336300000000  0.4320430000000 1.0
C      1  0.5353920000000  0.4578320000000  0.4898390000000 1.0
C      1  0.5561080000000  0.4592820000000  0.5593680000000 1.0
C      1  0.5667950000000  0.5539850000000  0.5380220000000 1.0
C      1  0.4565970000000  0.5659120000000  0.5487710000000 1.0
C      1  0.4360530000000  0.4879260000000  0.4447850000000 1.0
C      1  0.5150420000000  0.4791840000000  0.5685010000000 1.0
C      1  0.5850290000000  0.5323180000000  0.5365690000000 1.0
C      1  0.5610110000000  0.4479170000000  0.4957070000000 1.0
C      1  0.4937140000000  0.5086130000000  0.4812820000000 1.0
C      1  0.4828620000000  0.5182250000000  0.5552360000000 1.0
C      1  0.4535060000000  0.5466630000000  0.5282050000000 1.0
C      1  0.5354980000000  0.4446730000000  0.4356820000000 1.0
C      1  0.5404820000000  0.5226830000000  0.4890900000000 1.0
C      1  0.4728610000000  0.5626950000000  0.5701850000000 1.0
C      1  0.4705670000000  0.5379540000000  0.4497770000000 1.0
C      1  0.4916270000000  0.4923770000000  0.5613800000000 1.0
C      1  0.5748610000000  0.4467680000000  0.5430170000000 1.0
C      1  0.4793360000000  0.4389450000000  0.4674610000000 1.0
C      1  0.4869210000000  0.4460610000000  0.4413490000000 1.0
C      1  0.5769100000000  0.4429150000000  0.5166030000000 1.0
C      1  0.5374460000000  0.4722530000000  0.4429250000000 1.0
C      1  0.5275770000000  0.4579190000000  0.5536230000000 1.0
C      1  0.4120930000000  0.5475390000000  0.4940360000000 1.0
C      1  0.4307220000000  0.5647730000000  0.4311370000000 1.0
C      1  0.4332370000000  0.5480760000000  0.5092590000000 1.0
END
