TITL C-627113-6568-2154 1.82909914402857e-08 125000 -583.266700704071 0 0 96 (C1) n - 1
REM
REM in /home/nfs/bkarasulu/CARBON/AIRSS/Generating-Clusters/LCBOP/Only-C1/SD-CG/FIRE-CG
REM
REM
REM
REM
REM
REM ./C.cell (11c1c37f851c82e70ff6c80c92926a4b)
REM AIRSS Version 0.9.1 bugfix July 2018 build 013d7b7c2542+ Fri, 06 Jul 2018 19:26:36 +0100
REM compiler GCC version 9.2.1 20190827 (Red Hat 9.2.1-1)
REM options -cpp -mtune=generic -march=x86-64 -g -O0 -fpre-include=/usr/include/finclude/math-vector-fortran.h
REM seed 1523303257 1797812005 248246715 -1297279199 469870787 -1214841618 470285872 974360530 645327104 2055613296 1366714230 112190727 668711024 -1496698028 597881746 -1816821971 279668762 1396903830 -1248376162 1757311561 -1097170851 1366892448 1991639432 1607264303 457989138 -1436817284 210124479 -54173112 95915338 1817996395 -741130778 -130402897 1861059434
REM
CELL 1.54180   50.00000   50.00000   50.00000   90.00000   90.00000   90.00000
LATT -1
SFAC C  
C      1  0.4545200000000  0.5611500000000  0.4285880000000 1.0
C      1  0.4320920000000  0.4819320000000  0.4385700000000 1.0
C      1  0.5493570000000  0.5597960000000  0.4865430000000 1.0
C      1  0.4792830000000  0.4171970000000  0.4422520000000 1.0
C      1  0.4792750000000  0.5627480000000  0.4430100000000 1.0
C      1  0.4687200000000  0.4372070000000  0.5512270000000 1.0
C      1  0.4833680000000  0.5799510000000  0.5171360000000 1.0
C      1  0.4482090000000  0.4954530000000  0.4180740000000 1.0
C      1  0.5367030000000  0.4673480000000  0.5775630000000 1.0
C      1  0.5146850000000  0.5451760000000  0.5260140000000 1.0
C      1  0.5132350000000  0.4177730000000  0.5247790000000 1.0
C      1  0.5433550000000  0.5210420000000  0.4286760000000 1.0
C      1  0.5336170000000  0.4544240000000  0.4367780000000 1.0
C      1  0.5807570000000  0.4831340000000  0.5531290000000 1.0
C      1  0.5660240000000  0.5105870000000  0.4425590000000 1.0
C      1  0.4209810000000  0.5447170000000  0.4854220000000 1.0
C      1  0.4741110000000  0.5710390000000  0.4704170000000 1.0
C      1  0.4629120000000  0.5736580000000  0.4975920000000 1.0
C      1  0.4824520000000  0.4833190000000  0.4595910000000 1.0
C      1  0.5052230000000  0.5805060000000  0.5621640000000 1.0
C      1  0.4632680000000  0.4227520000000  0.4959600000000 1.0
C      1  0.5345100000000  0.4374750000000  0.5208990000000 1.0
C      1  0.5201320000000  0.4899340000000  0.5386330000000 1.0
C      1  0.4448870000000  0.4580220000000  0.4516160000000 1.0
C      1  0.5765840000000  0.4843860000000  0.4413700000000 1.0
C      1  0.4633780000000  0.4666490000000  0.4751310000000 1.0
C      1  0.4091060000000  0.5269120000000  0.5274280000000 1.0
C      1  0.4928630000000  0.4858640000000  0.5420080000000 1.0
C      1  0.5060870000000  0.4133670000000  0.4536300000000 1.0
C      1  0.4474270000000  0.4568480000000  0.5465640000000 1.0
C      1  0.4061680000000  0.5025870000000  0.5427640000000 1.0
C      1  0.4965770000000  0.5217950000000  0.4175450000000 1.0
C      1  0.4384440000000  0.4322990000000  0.5057220000000 1.0
C      1  0.4566470000000  0.4331800000000  0.4407640000000 1.0
C      1  0.3901020000000  0.4813720000000  0.4991360000000 1.0
C      1  0.4320950000000  0.5479620000000  0.4363760000000 1.0
C      1  0.4548910000000  0.5190800000000  0.4706640000000 1.0
C      1  0.5097720000000  0.4491590000000  0.4815770000000 1.0
C      1  0.5295970000000  0.4862540000000  0.5112330000000 1.0
C      1  0.6067800000000  0.4914400000000  0.5134620000000 1.0
C      1  0.5724460000000  0.5236980000000  0.4667950000000 1.0
C      1  0.4682730000000  0.5226520000000  0.5165500000000 1.0
C      1  0.5780200000000  0.4608750000000  0.5344120000000 1.0
C      1  0.5251880000000  0.5733360000000  0.4885660000000 1.0
C      1  0.4736890000000  0.5090370000000  0.4540830000000 1.0
C      1  0.5841430000000  0.4654340000000  0.4589770000000 1.0
C      1  0.5269660000000  0.4585880000000  0.5022960000000 1.0
C      1  0.5461840000000  0.5699730000000  0.5878680000000 1.0
C      1  0.4711430000000  0.5112200000000  0.4251000000000 1.0
C      1  0.5801490000000  0.5745640000000  0.6277170000000 1.0
C      1  0.5859130000000  0.5631450000000  0.5193400000000 1.0
C      1  0.4762990000000  0.4891760000000  0.5646020000000 1.0
C      1  0.4395160000000  0.5326170000000  0.5592870000000 1.0
C      1  0.4922620000000  0.4254230000000  0.5438580000000 1.0
C      1  0.5555890000000  0.4430770000000  0.5397660000000 1.0
C      1  0.5499900000000  0.5312540000000  0.4826590000000 1.0
C      1  0.5208720000000  0.4382780000000  0.4566870000000 1.0
C      1  0.4194580000000  0.5207910000000  0.5022400000000 1.0
C      1  0.3966620000000  0.4894260000000  0.4739670000000 1.0
C      1  0.4807040000000  0.4436840000000  0.4851670000000 1.0
C      1  0.5631960000000  0.5724270000000  0.6080280000000 1.0
C      1  0.5985330000000  0.5179690000000  0.5092240000000 1.0
C      1  0.5964470000000  0.5243110000000  0.4813600000000 1.0
C      1  0.5883620000000  0.4578850000000  0.4844010000000 1.0
C      1  0.4283590000000  0.5302680000000  0.4595020000000 1.0
C      1  0.5020380000000  0.5485460000000  0.4306480000000 1.0
C      1  0.5927080000000  0.4666730000000  0.5107410000000 1.0
C      1  0.4369000000000  0.5623350000000  0.5048190000000 1.0
C      1  0.5297070000000  0.5657400000000  0.5658580000000 1.0
C      1  0.4145310000000  0.5007830000000  0.4544350000000 1.0
C      1  0.5362540000000  0.5461840000000  0.5453500000000 1.0
C      1  0.5466770000000  0.4442020000000  0.5670690000000 1.0
C      1  0.4536090000000  0.4788630000000  0.5017510000000 1.0
C      1  0.5214230000000  0.5044530000000  0.4188730000000 1.0
C      1  0.4934060000000  0.4714630000000  0.4367130000000 1.0
C      1  0.4753640000000  0.3986200000000  0.5034050000000 1.0
C      1  0.4796770000000  0.4795780000000  0.5181690000000 1.0
C      1  0.4920950000000  0.5287310000000  0.5267690000000 1.0
C      1  0.4301590000000  0.5036720000000  0.5601610000000 1.0
C      1  0.3930920000000  0.4831920000000  0.5263300000000 1.0
C      1  0.5362570000000  0.4911030000000  0.5617150000000 1.0
C      1  0.5126030000000  0.3960690000000  0.4760740000000 1.0
C      1  0.5040140000000  0.3993460000000  0.5035140000000 1.0
C      1  0.5612730000000  0.5295280000000  0.5445090000000 1.0
C      1  0.5843270000000  0.5359560000000  0.5274960000000 1.0
C      1  0.5086570000000  0.5683390000000  0.5100940000000 1.0
C      1  0.5310960000000  0.5475710000000  0.4330860000000 1.0
C      1  0.4387010000000  0.4578260000000  0.5186060000000 1.0
C      1  0.5613530000000  0.5036120000000  0.5571130000000 1.0
C      1  0.4479260000000  0.5083560000000  0.4991860000000 1.0
C      1  0.5718120000000  0.5724460000000  0.4982700000000 1.0
C      1  0.5189790000000  0.4767520000000  0.4260190000000 1.0
C      1  0.4488110000000  0.4819250000000  0.5614990000000 1.0
C      1  0.5366250000000  0.5091510000000  0.4954330000000 1.0
C      1  0.4850450000000  0.5869660000000  0.5448120000000 1.0
C      1  0.4283260000000  0.5474170000000  0.5364630000000 1.0
END
