TITL C-627111-6168-1799 -9.95694533553167e-07 125000 -687.269755422057 0 0 112 (C1) n - 1
REM
REM in /home/nfs/bkarasulu/CARBON/AIRSS/Generating-Clusters/LCBOP/Only-C1/SD-CG/FIRE-CG
REM
REM
REM
REM
REM
REM ./C.cell (11c1c37f851c82e70ff6c80c92926a4b)
REM AIRSS Version 0.9.1 bugfix July 2018 build 013d7b7c2542+ Fri, 06 Jul 2018 19:26:36 +0100
REM compiler GCC version 9.2.1 20190827 (Red Hat 9.2.1-1)
REM options -cpp -mtune=generic -march=x86-64 -g -O0 -fpre-include=/usr/include/finclude/math-vector-fortran.h
REM seed 783972493 647300919 1332584037 1054617749 1194085857 1175138313 -1372908698 -1272908925 -65802100 445797782 903989706 1781726852 -1154671570 1349373307 1511720860 -793390413 -1279975349 -1624052636 2029511052 -275479148 -2111565683 -364066184 -1737944727 -566618451 1433095319 1476392391 -1457963608 -373241724 2068569295 356092080 -280303765 -2005563135 997036625
REM
CELL 1.54180   50.00000   50.00000   50.00000   90.00000   90.00000   90.00000
LATT -1
SFAC C  
C      1  0.4784360000000  0.4470170000000  0.5798480000000 1.0
C      1  0.5594620000000  0.4261670000000  0.4550940000000 1.0
C      1  0.5115690000000  0.5444210000000  0.5055470000000 1.0
C      1  0.5350120000000  0.3997830000000  0.4934830000000 1.0
C      1  0.5255620000000  0.4100430000000  0.5182970000000 1.0
C      1  0.5473020000000  0.4192870000000  0.5359040000000 1.0
C      1  0.4838890000000  0.3969320000000  0.4490220000000 1.0
C      1  0.4646730000000  0.5890180000000  0.4634120000000 1.0
C      1  0.5356140000000  0.5257330000000  0.6003530000000 1.0
C      1  0.5362600000000  0.6125240000000  0.5020810000000 1.0
C      1  0.5130040000000  0.5402260000000  0.5987320000000 1.0
C      1  0.4692120000000  0.4953700000000  0.5775670000000 1.0
C      1  0.5513220000000  0.4327980000000  0.4284740000000 1.0
C      1  0.4970190000000  0.4952660000000  0.5294550000000 1.0
C      1  0.4678950000000  0.3934420000000  0.4706880000000 1.0
C      1  0.4925010000000  0.5826750000000  0.4607440000000 1.0
C      1  0.4788610000000  0.4839190000000  0.4060230000000 1.0
C      1  0.5285930000000  0.4727490000000  0.4090930000000 1.0
C      1  0.4163600000000  0.4608130000000  0.5143880000000 1.0
C      1  0.4773500000000  0.5085160000000  0.4210000000000 1.0
C      1  0.5180940000000  0.4863720000000  0.4569340000000 1.0
C      1  0.4795980000000  0.4900610000000  0.4831800000000 1.0
C      1  0.4401220000000  0.5763720000000  0.5350020000000 1.0
C      1  0.5242760000000  0.4557460000000  0.5162180000000 1.0
C      1  0.5448210000000  0.4677500000000  0.5020040000000 1.0
C      1  0.4502910000000  0.4511510000000  0.4538220000000 1.0
C      1  0.4146530000000  0.4826670000000  0.4616900000000 1.0
C      1  0.5251860000000  0.4597350000000  0.5446280000000 1.0
C      1  0.4774680000000  0.4813510000000  0.5117950000000 1.0
C      1  0.4522960000000  0.4962260000000  0.5196010000000 1.0
C      1  0.5296340000000  0.5564410000000  0.4864370000000 1.0
C      1  0.4312560000000  0.4689070000000  0.4428560000000 1.0
C      1  0.4813150000000  0.5206770000000  0.5693740000000 1.0
C      1  0.4112880000000  0.4708180000000  0.4878650000000 1.0
C      1  0.4977310000000  0.4209370000000  0.5178810000000 1.0
C      1  0.4538830000000  0.5991160000000  0.4883420000000 1.0
C      1  0.4729560000000  0.4095900000000  0.5241350000000 1.0
C      1  0.5987130000000  0.4929210000000  0.4996390000000 1.0
C      1  0.4575670000000  0.4329400000000  0.5700020000000 1.0
C      1  0.5746530000000  0.5355310000000  0.4877510000000 1.0
C      1  0.4993330000000  0.5858070000000  0.5608490000000 1.0
C      1  0.5692070000000  0.4575000000000  0.4925530000000 1.0
C      1  0.4148880000000  0.4803580000000  0.5371820000000 1.0
C      1  0.5668310000000  0.4997960000000  0.6258160000000 1.0
C      1  0.5164510000000  0.5375540000000  0.5335260000000 1.0
C      1  0.5505390000000  0.5407650000000  0.4200270000000 1.0
C      1  0.5699110000000  0.4877900000000  0.5509450000000 1.0
C      1  0.5855810000000  0.5096840000000  0.4801240000000 1.0
C      1  0.4482650000000  0.4164840000000  0.5118170000000 1.0
C      1  0.4941060000000  0.4732120000000  0.4657860000000 1.0
C      1  0.4880250000000  0.5800150000000  0.5154030000000 1.0
C      1  0.4873130000000  0.4731960000000  0.5740080000000 1.0
C      1  0.4531750000000  0.4746620000000  0.3982580000000 1.0
C      1  0.5897050000000  0.5161500000000  0.4324960000000 1.0
C      1  0.4398390000000  0.5457750000000  0.4807620000000 1.0
C      1  0.4388520000000  0.4294590000000  0.4669340000000 1.0
C      1  0.4461700000000  0.5755090000000  0.4458680000000 1.0
C      1  0.4932970000000  0.4147940000000  0.4308750000000 1.0
C      1  0.5563400000000  0.5063970000000  0.6013230000000 1.0
C      1  0.4363460000000  0.4421310000000  0.5539010000000 1.0
C      1  0.4526490000000  0.5674860000000  0.5609730000000 1.0
C      1  0.5314750000000  0.5203740000000  0.4220050000000 1.0
C      1  0.5053570000000  0.4771770000000  0.5528390000000 1.0
C      1  0.4262620000000  0.4685760000000  0.5611590000000 1.0
C      1  0.4457460000000  0.5952420000000  0.5141710000000 1.0
C      1  0.5166480000000  0.5127860000000  0.4449950000000 1.0
C      1  0.4329220000000  0.5517810000000  0.4537740000000 1.0
C      1  0.4786110000000  0.4545690000000  0.4512910000000 1.0
C      1  0.5426990000000  0.5296600000000  0.5419520000000 1.0
C      1  0.5354460000000  0.5932200000000  0.5232080000000 1.0
C      1  0.5174110000000  0.5028680000000  0.5078170000000 1.0
C      1  0.5816360000000  0.4984520000000  0.4530690000000 1.0
C      1  0.5563160000000  0.5060570000000  0.5332460000000 1.0
C      1  0.5687260000000  0.4731030000000  0.4459630000000 1.0
C      1  0.4848360000000  0.5545250000000  0.5023460000000 1.0
C      1  0.5084900000000  0.5885080000000  0.5341160000000 1.0
C      1  0.4485600000000  0.4098150000000  0.4839040000000 1.0
C      1  0.4318400000000  0.4368300000000  0.5248610000000 1.0
C      1  0.5794070000000  0.5740080000000  0.5378240000000 1.0
C      1  0.4971460000000  0.4491270000000  0.5105090000000 1.0
C      1  0.4197050000000  0.5493860000000  0.4994400000000 1.0
C      1  0.5990980000000  0.5719500000000  0.5547680000000 1.0
C      1  0.4252190000000  0.5309300000000  0.5436880000000 1.0
C      1  0.4320060000000  0.4719010000000  0.4148620000000 1.0
C      1  0.5006310000000  0.4640600000000  0.4106950000000 1.0
C      1  0.4418810000000  0.4864680000000  0.5776030000000 1.0
C      1  0.4283020000000  0.5052060000000  0.5320620000000 1.0
C      1  0.4763580000000  0.5165150000000  0.4717400000000 1.0
C      1  0.5578030000000  0.5740140000000  0.5201840000000 1.0
C      1  0.4373120000000  0.5428610000000  0.5671080000000 1.0
C      1  0.4945730000000  0.5212990000000  0.5440390000000 1.0
C      1  0.4794460000000  0.5685970000000  0.5720690000000 1.0
C      1  0.4229080000000  0.5540060000000  0.5264170000000 1.0
C      1  0.4888020000000  0.5438590000000  0.5844850000000 1.0
C      1  0.4921670000000  0.4429630000000  0.4288030000000 1.0
C      1  0.5507170000000  0.4615350000000  0.4238850000000 1.0
C      1  0.5320730000000  0.5000310000000  0.4022150000000 1.0
C      1  0.5487380000000  0.4062760000000  0.4714200000000 1.0
C      1  0.5706220000000  0.4508570000000  0.4655930000000 1.0
C      1  0.5191550000000  0.5794090000000  0.4705970000000 1.0
C      1  0.5667650000000  0.4935110000000  0.5783410000000 1.0
C      1  0.5772120000000  0.5373160000000  0.4215440000000 1.0
C      1  0.4667680000000  0.5390310000000  0.4864140000000 1.0
C      1  0.5320140000000  0.6042830000000  0.4765380000000 1.0
C      1  0.5800450000000  0.4635110000000  0.5380260000000 1.0
C      1  0.4881920000000  0.5188920000000  0.4451810000000 1.0
C      1  0.5672470000000  0.4373550000000  0.5422410000000 1.0
C      1  0.4069990000000  0.5085500000000  0.4531800000000 1.0
C      1  0.4151370000000  0.5325190000000  0.4435560000000 1.0
C      1  0.5566940000000  0.5562570000000  0.4965980000000 1.0
C      1  0.5441210000000  0.4953120000000  0.5095530000000 1.0
C      1  0.5892380000000  0.4681280000000  0.5103180000000 1.0
END
