TITL C-627112-676-1900 1.65501560340988e-05 125000 -523.153510243862 0 0 87 (C1) n - 1
REM
REM in /home/nfs/bkarasulu/CARBON/AIRSS/Generating-Clusters/LCBOP/Only-C1/SD-CG/FIRE-CG
REM
REM
REM
REM
REM
REM ./C.cell (11c1c37f851c82e70ff6c80c92926a4b)
REM AIRSS Version 0.9.1 bugfix July 2018 build 013d7b7c2542+ Fri, 06 Jul 2018 19:26:36 +0100
REM compiler GCC version 9.2.1 20190827 (Red Hat 9.2.1-1)
REM options -cpp -mtune=generic -march=x86-64 -g -O0 -fpre-include=/usr/include/finclude/math-vector-fortran.h
REM seed -1684616994 119483036 -448547309 -190420880 -1413027994 -840117453 1673990575 1973814078 -1760980288 863585080 -583156738 2115826089 -534040450 1049750848 -1913269230 -199064813 -1084005713 539098485 911050780 362602618 -1594803351 1750603029 914473804 786111675 -375402056 153664110 1678590615 1742541905 534234694 104623066 -1101310011 -458935033 1532063124
REM
CELL 1.54180   50.00000   50.00000   50.00000   90.00000   90.00000   90.00000
LATT -1
SFAC C  
C      1  0.3805990000000  0.4942990000000  0.5504770000000 1.0
C      1  0.5757510000000  0.4633160000000  0.5604480000000 1.0
C      1  0.5457320000000  0.5452100000000  0.5703360000000 1.0
C      1  0.4848140000000  0.4838190000000  0.4497850000000 1.0
C      1  0.4079380000000  0.4374070000000  0.4498900000000 1.0
C      1  0.4439130000000  0.4437560000000  0.4170180000000 1.0
C      1  0.4803650000000  0.4263250000000  0.5124420000000 1.0
C      1  0.6071350000000  0.5148970000000  0.4929400000000 1.0
C      1  0.5109860000000  0.6115790000000  0.4944700000000 1.0
C      1  0.6067150000000  0.4941340000000  0.5122240000000 1.0
C      1  0.4641550000000  0.5092090000000  0.4855500000000 1.0
C      1  0.5707330000000  0.4318500000000  0.5236940000000 1.0
C      1  0.5197320000000  0.5194470000000  0.4367450000000 1.0
C      1  0.3757070000000  0.4872860000000  0.4541880000000 1.0
C      1  0.3758540000000  0.4736790000000  0.4276970000000 1.0
C      1  0.4041620000000  0.4731100000000  0.4185280000000 1.0
C      1  0.4858290000000  0.5777720000000  0.4714320000000 1.0
C      1  0.5336260000000  0.6066140000000  0.6448810000000 1.0
C      1  0.5329950000000  0.4557600000000  0.5311750000000 1.0
C      1  0.5253740000000  0.4893110000000  0.4735080000000 1.0
C      1  0.5550520000000  0.4094380000000  0.5161270000000 1.0
C      1  0.5346220000000  0.5597450000000  0.5896830000000 1.0
C      1  0.5548690000000  0.5111360000000  0.5347110000000 1.0
C      1  0.5873980000000  0.4477580000000  0.5067660000000 1.0
C      1  0.5003080000000  0.5539040000000  0.5312980000000 1.0
C      1  0.4656420000000  0.5118070000000  0.5155130000000 1.0
C      1  0.3721540000000  0.4846530000000  0.5272540000000 1.0
C      1  0.5211040000000  0.5445410000000  0.4511040000000 1.0
C      1  0.4135020000000  0.4989470000000  0.4289890000000 1.0
C      1  0.5691290000000  0.5386020000000  0.4696410000000 1.0
C      1  0.4941920000000  0.5521870000000  0.4615800000000 1.0
C      1  0.4816740000000  0.5955800000000  0.5446040000000 1.0
C      1  0.3937730000000  0.5050960000000  0.5708090000000 1.0
C      1  0.3968920000000  0.5071800000000  0.4499360000000 1.0
C      1  0.5294680000000  0.5403490000000  0.4979220000000 1.0
C      1  0.5350710000000  0.4492990000000  0.4513120000000 1.0
C      1  0.4900560000000  0.5796470000000  0.5938140000000 1.0
C      1  0.5300740000000  0.4618330000000  0.4772700000000 1.0
C      1  0.5416330000000  0.5446290000000  0.4724720000000 1.0
C      1  0.5169920000000  0.5772220000000  0.6027690000000 1.0
C      1  0.4700910000000  0.4477660000000  0.4197770000000 1.0
C      1  0.4950030000000  0.5891260000000  0.4964910000000 1.0
C      1  0.5189470000000  0.4587360000000  0.4286520000000 1.0
C      1  0.5939820000000  0.5029830000000  0.4480890000000 1.0
C      1  0.4587940000000  0.4113340000000  0.4716950000000 1.0
C      1  0.4594150000000  0.4587440000000  0.4819370000000 1.0
C      1  0.4674090000000  0.5924160000000  0.4562460000000 1.0
C      1  0.5310250000000  0.5063200000000  0.4142700000000 1.0
C      1  0.4657610000000  0.4840980000000  0.4713600000000 1.0
C      1  0.4900330000000  0.5793490000000  0.5232830000000 1.0
C      1  0.4501540000000  0.6060010000000  0.4422160000000 1.0
C      1  0.4905170000000  0.4617570000000  0.4323920000000 1.0
C      1  0.5257710000000  0.5923560000000  0.6245290000000 1.0
C      1  0.6049090000000  0.4365210000000  0.4880910000000 1.0
C      1  0.5307390000000  0.4789790000000  0.4116780000000 1.0
C      1  0.4182420000000  0.4494690000000  0.4262470000000 1.0
C      1  0.5876590000000  0.4510180000000  0.4445670000000 1.0
C      1  0.6058550000000  0.4375930000000  0.4613070000000 1.0
C      1  0.5579150000000  0.4487400000000  0.5438330000000 1.0
C      1  0.3776910000000  0.4693180000000  0.4762820000000 1.0
C      1  0.5081400000000  0.4997150000000  0.4540420000000 1.0
C      1  0.4581550000000  0.4912640000000  0.5329570000000 1.0
C      1  0.4629630000000  0.4661920000000  0.5408430000000 1.0
C      1  0.5042840000000  0.5262930000000  0.4969840000000 1.0
C      1  0.3703540000000  0.4761740000000  0.5021870000000 1.0
C      1  0.5454310000000  0.5359300000000  0.5440000000000 1.0
C      1  0.5290130000000  0.4026930000000  0.5134460000000 1.0
C      1  0.4835910000000  0.5296110000000  0.4763060000000 1.0
C      1  0.4660300000000  0.4319020000000  0.4882250000000 1.0
C      1  0.5982220000000  0.4785800000000  0.5586250000000 1.0
C      1  0.4101810000000  0.5174260000000  0.5876090000000 1.0
C      1  0.3922210000000  0.4455960000000  0.4702980000000 1.0
C      1  0.4726710000000  0.4420810000000  0.5345150000000 1.0
C      1  0.4288760000000  0.5316020000000  0.5999840000000 1.0
C      1  0.5615430000000  0.4919230000000  0.5171320000000 1.0
C      1  0.5028720000000  0.4091390000000  0.5130390000000 1.0
C      1  0.6132740000000  0.4918710000000  0.5400000000000 1.0
C      1  0.4880230000000  0.5294050000000  0.5218090000000 1.0
C      1  0.4491760000000  0.5474130000000  0.6064460000000 1.0
C      1  0.5913250000000  0.5208900000000  0.4697780000000 1.0
C      1  0.5838520000000  0.4763910000000  0.5081650000000 1.0
C      1  0.4838330000000  0.5951710000000  0.5712510000000 1.0
C      1  0.5612330000000  0.4413970000000  0.4447560000000 1.0
C      1  0.5293830000000  0.5499680000000  0.5254320000000 1.0
C      1  0.5271730000000  0.4544830000000  0.5044490000000 1.0
C      1  0.5926160000000  0.4780530000000  0.4386040000000 1.0
C      1  0.4699320000000  0.5638850000000  0.6051760000000 1.0
END
