TITL C-627106-156-668 -2515.78883172799 125000 -962.437308014556 0 0 159 (C1) n - 1
REM
REM in /home/nfs/bkarasulu/CARBON/AIRSS/Generating-Clusters/LCBOP/Only-C1/SD-CG/FIRE-CG
REM
REM
REM
REM
REM
REM ./C.cell (11c1c37f851c82e70ff6c80c92926a4b)
REM AIRSS Version 0.9.1 bugfix July 2018 build 013d7b7c2542+ Fri, 06 Jul 2018 19:26:36 +0100
REM compiler GCC version 9.2.1 20190827 (Red Hat 9.2.1-1)
REM options -cpp -mtune=generic -march=x86-64 -g -O0 -fpre-include=/usr/include/finclude/math-vector-fortran.h
REM seed 288022863 1914159479 1132785591 786154349 -938667649 -1472728431 -1830208659 -8645609 978541689 -1383656384 1787303074 -1911147420 1737498626 802009435 51597656 -465256758 -1101340889 1687175424 -447731729 1827453971 -138033958 1738869860 -1323505116 -893746349 1122755802 -1899087693 -1711070872 1240989825 1008660784 913324389 943464004 514059533 -1622664963
REM
CELL 1.54180   50.00000   50.00000   50.00000   90.00000   90.00000   90.00000
LATT -1
SFAC C  
C      1  0.4857220000000  0.5675410000000  0.3804960000000 1.0
C      1  0.5086090000000  0.4257060000000  0.5572290000000 1.0
C      1  0.5475820000000  0.4088250000000  0.4694350000000 1.0
C      1  0.5949620000000  0.5333310000000  0.4356830000000 1.0
C      1  0.3914260000000  0.5376020000000  0.4467680000000 1.0
C      1  0.4632310000000  0.4178670000000  0.5653170000000 1.0
C      1  0.5698780000000  0.5515810000000  0.5716670000000 1.0
C      1  0.5903040000000  0.5319720000000  0.5080860000000 1.0
C      1  0.5068500000000  0.3977760000000  0.5479820000000 1.0
C      1  0.4282570000000  0.5363400000000  0.5660650000000 1.0
C      1  0.5450130000000  0.4823730000000  0.6205120000000 1.0
C      1  0.4430310000000  0.4871430000000  0.5494720000000 1.0
C      1  0.3983930000000  0.4102320000000  0.4841200000000 1.0
C      1  0.4980590000000  0.4833020000000  0.4100240000000 1.0
C      1  0.4624490000000  0.4342740000000  0.5403830000000 1.0
C      1  0.5514120000000  0.4665970000000  0.5643330000000 1.0
C      1  0.5779210000000  0.4613400000000  0.5666720000000 1.0
C      1  0.5012460000000  0.4996400000000  0.6086520000000 1.0
C      1  0.5661450000000  0.5304900000000  0.4920330000000 1.0
C      1  0.4322790000000  0.4954220000000  0.5033650000000 1.0
C      1  0.4694600000000  0.4628210000000  0.5998730000000 1.0
C      1  0.5807650000000  0.4455630000000  0.5239280000000 1.0
C      1  0.5209900000000  0.4302760000000  0.5817280000000 1.0
C      1  0.4614000000000  0.5720030000000  0.5613960000000 1.0
C      1  0.4209680000000  0.4239960000000  0.4748390000000 1.0
C      1  0.4650650000000  0.3920160000000  0.5231370000000 1.0
C      1  0.5506780000000  0.5697860000000  0.5835030000000 1.0
C      1  0.6043760000000  0.5181400000000  0.4585600000000 1.0
C      1  0.4358570000000  0.4915060000000  0.5769410000000 1.0
C      1  0.5338950000000  0.5524910000000  0.5246620000000 1.0
C      1  0.4222170000000  0.4946820000000  0.5299480000000 1.0
C      1  0.5124990000000  0.5934670000000  0.4402210000000 1.0
C      1  0.4100430000000  0.4540130000000  0.4332450000000 1.0
C      1  0.5244630000000  0.3937360000000  0.5244010000000 1.0
C      1  0.5781150000000  0.5768790000000  0.4787910000000 1.0
C      1  0.4561660000000  0.4355290000000  0.4092890000000 1.0
C      1  0.5230610000000  0.6113750000000  0.5437590000000 1.0
C      1  0.4511560000000  0.4178700000000  0.5182250000000 1.0
C      1  0.5595620000000  0.5549860000000  0.4803560000000 1.0
C      1  0.5409890000000  0.5124030000000  0.5820170000000 1.0
C      1  0.5499350000000  0.5600910000000  0.4265320000000 1.0
C      1  0.5105330000000  0.5468300000000  0.5773860000000 1.0
C      1  0.5676620000000  0.5225920000000  0.5739310000000 1.0
C      1  0.4379810000000  0.5830400000000  0.5153570000000 1.0
C      1  0.5579910000000  0.4659580000000  0.4205340000000 1.0
C      1  0.4557090000000  0.4785110000000  0.4992090000000 1.0
C      1  0.5639400000000  0.4604240000000  0.5075230000000 1.0
C      1  0.5621580000000  0.5950030000000  0.5199950000000 1.0
C      1  0.5212930000000  0.4544140000000  0.5026150000000 1.0
C      1  0.4213630000000  0.5703900000000  0.4945280000000 1.0
C      1  0.4774350000000  0.5327150000000  0.5404330000000 1.0
C      1  0.5120130000000  0.5396900000000  0.4816580000000 1.0
C      1  0.4258620000000  0.5831530000000  0.4691510000000 1.0
C      1  0.5096830000000  0.5896120000000  0.5563800000000 1.0
C      1  0.3737100000000  0.4944710000000  0.5359300000000 1.0
C      1  0.5058790000000  0.5484350000000  0.4529320000000 1.0
C      1  0.5056850000000  0.4956630000000  0.5070250000000 1.0
C      1  0.5809090000000  0.4533780000000  0.4303500000000 1.0
C      1  0.4272620000000  0.5079180000000  0.4365090000000 1.0
C      1  0.4802610000000  0.5449140000000  0.4341870000000 1.0
C      1  0.4563130000000  0.3956490000000  0.4353940000000 1.0
C      1  0.4567740000000  0.5627410000000  0.4381160000000 1.0
C      1  0.5467580000000  0.5575290000000  0.3990850000000 1.0
C      1  0.3772690000000  0.3981750000000  0.4934750000000 1.0
C      1  0.4685850000000  0.5123110000000  0.4623680000000 1.0
C      1  0.4951120000000  0.5900300000000  0.3917320000000 1.0
C      1  0.4604270000000  0.5979180000000  0.5023280000000 1.0
C      1  0.4573460000000  0.4891430000000  0.5942010000000 1.0
C      1  0.6030790000000  0.5056440000000  0.5090720000000 1.0
C      1  0.5210070000000  0.5125620000000  0.4892160000000 1.0
C      1  0.4681940000000  0.5496170000000  0.4985140000000 1.0
C      1  0.4590080000000  0.4701570000000  0.4456810000000 1.0
C      1  0.4911510000000  0.4392500000000  0.5375840000000 1.0
C      1  0.4217100000000  0.4674780000000  0.4121390000000 1.0
C      1  0.4755020000000  0.5267830000000  0.4091930000000 1.0
C      1  0.5303530000000  0.4576430000000  0.4766410000000 1.0
C      1  0.5934500000000  0.4635940000000  0.5425890000000 1.0
C      1  0.5012700000000  0.4379000000000  0.5114380000000 1.0
C      1  0.5198630000000  0.3995540000000  0.4725710000000 1.0
C      1  0.4327840000000  0.5535530000000  0.4253200000000 1.0
C      1  0.3956420000000  0.5380600000000  0.5364150000000 1.0
C      1  0.5364300000000  0.5088010000000  0.4246530000000 1.0
C      1  0.3970050000000  0.5089730000000  0.5341980000000 1.0
C      1  0.5301200000000  0.5016840000000  0.6062020000000 1.0
C      1  0.4621180000000  0.5625570000000  0.6130350000000 1.0
C      1  0.5499540000000  0.5071790000000  0.4885640000000 1.0
C      1  0.4576420000000  0.4529380000000  0.4868590000000 1.0
C      1  0.4930360000000  0.4715190000000  0.6137490000000 1.0
C      1  0.4784450000000  0.4877730000000  0.5136830000000 1.0
C      1  0.4316660000000  0.5214430000000  0.4914710000000 1.0
C      1  0.4420880000000  0.4302950000000  0.4940090000000 1.0
C      1  0.5511070000000  0.4043320000000  0.5256030000000 1.0
C      1  0.5232360000000  0.4768250000000  0.5201350000000 1.0
C      1  0.4137590000000  0.5555930000000  0.5504060000000 1.0
C      1  0.5855080000000  0.5835220000000  0.5053890000000 1.0
C      1  0.5255750000000  0.5673970000000  0.4415760000000 1.0
C      1  0.5981190000000  0.4919200000000  0.5355310000000 1.0
C      1  0.5337070000000  0.4743230000000  0.5457900000000 1.0
C      1  0.4782610000000  0.5421400000000  0.3854500000000 1.0
C      1  0.5939470000000  0.5578380000000  0.5215030000000 1.0
C      1  0.5121010000000  0.5552040000000  0.5071470000000 1.0
C      1  0.4217770000000  0.4314000000000  0.4464980000000 1.0
C      1  0.4200180000000  0.5144990000000  0.5812680000000 1.0
C      1  0.3901200000000  0.5395840000000  0.4737190000000 1.0
C      1  0.4354890000000  0.5749610000000  0.5437180000000 1.0
C      1  0.4667480000000  0.5485910000000  0.5898960000000 1.0
C      1  0.5630460000000  0.4813350000000  0.4886270000000 1.0
C      1  0.4123170000000  0.5429280000000  0.4910860000000 1.0
C      1  0.5106110000000  0.3893590000000  0.4987200000000 1.0
C      1  0.5835870000000  0.4496230000000  0.4583050000000 1.0
C      1  0.4510420000000  0.5317110000000  0.5494560000000 1.0
C      1  0.4493510000000  0.4644630000000  0.4037650000000 1.0
C      1  0.5336060000000  0.5281860000000  0.5385710000000 1.0
C      1  0.5768390000000  0.5599020000000  0.5454980000000 1.0
C      1  0.5203840000000  0.4516370000000  0.4517740000000 1.0
C      1  0.5692590000000  0.4256980000000  0.4675140000000 1.0
C      1  0.4642130000000  0.4363010000000  0.5884020000000 1.0
C      1  0.5529490000000  0.5708770000000  0.5328040000000 1.0
C      1  0.5987910000000  0.4013920000000  0.5311360000000 1.0
C      1  0.4495170000000  0.4962340000000  0.4484150000000 1.0
C      1  0.5321220000000  0.4551470000000  0.4259990000000 1.0
C      1  0.4956820000000  0.4379470000000  0.4550020000000 1.0
C      1  0.5020650000000  0.4357230000000  0.3945600000000 1.0
C      1  0.4711450000000  0.5961300000000  0.4748950000000 1.0
C      1  0.4998060000000  0.4093470000000  0.4529200000000 1.0
C      1  0.4860160000000  0.5557150000000  0.5221880000000 1.0
C      1  0.5101560000000  0.5005940000000  0.4299890000000 1.0
C      1  0.4520540000000  0.5830270000000  0.4576230000000 1.0
C      1  0.4818730000000  0.4212690000000  0.4073880000000 1.0
C      1  0.4582590000000  0.5759850000000  0.6350320000000 1.0
C      1  0.5455750000000  0.4555070000000  0.6190630000000 1.0
C      1  0.4149300000000  0.5326930000000  0.4319270000000 1.0
C      1  0.4758660000000  0.5140050000000  0.5980310000000 1.0
C      1  0.4404410000000  0.4186930000000  0.4289740000000 1.0
C      1  0.5868140000000  0.5086550000000  0.5571630000000 1.0
C      1  0.4728770000000  0.4888780000000  0.5425700000000 1.0
C      1  0.5870920000000  0.5784210000000  0.4524700000000 1.0
C      1  0.5231060000000  0.5721850000000  0.5756780000000 1.0
C      1  0.5349500000000  0.4363120000000  0.6036650000000 1.0
C      1  0.4963730000000  0.6013830000000  0.4627450000000 1.0
C      1  0.4770140000000  0.3928020000000  0.5515970000000 1.0
C      1  0.4576870000000  0.5292370000000  0.4825640000000 1.0
C      1  0.4855610000000  0.5777890000000  0.5448950000000 1.0
C      1  0.5766960000000  0.4172100000000  0.5269510000000 1.0
C      1  0.4946870000000  0.5059720000000  0.4529810000000 1.0
C      1  0.5574320000000  0.4938720000000  0.4167920000000 1.0
C      1  0.4829560000000  0.3825160000000  0.5027930000000 1.0
C      1  0.5776110000000  0.5569360000000  0.4360560000000 1.0
C      1  0.5183550000000  0.5210920000000  0.5631350000000 1.0
C      1  0.4718020000000  0.4911010000000  0.4039610000000 1.0
C      1  0.5124230000000  0.4591930000000  0.4056480000000 1.0
C      1  0.6043640000000  0.4973350000000  0.4792650000000 1.0
C      1  0.5446180000000  0.6157320000000  0.5275120000000 1.0
C      1  0.5866500000000  0.4750070000000  0.4726370000000 1.0
C      1  0.5051200000000  0.6012490000000  0.4140130000000 1.0
C      1  0.4916390000000  0.5103750000000  0.5516930000000 1.0
C      1  0.4843300000000  0.4010810000000  0.4298860000000 1.0
C      1  0.4719320000000  0.4516330000000  0.4622030000000 1.0
C      1  0.6050730000000  0.5259300000000  0.4110650000000 1.0
END
