TITL C-627113-6568-685 -2.36503389358207e-07 125000 -143.363007974713 0 0 25 (C1) n - 1
REM
REM in /home/nfs/bkarasulu/CARBON/AIRSS/Generating-Clusters/LCBOP/Only-C1/SD-CG/FIRE-CG
REM
REM
REM
REM
REM
REM ./C.cell (11c1c37f851c82e70ff6c80c92926a4b)
REM AIRSS Version 0.9.1 bugfix July 2018 build 013d7b7c2542+ Fri, 06 Jul 2018 19:26:36 +0100
REM compiler GCC version 9.2.1 20190827 (Red Hat 9.2.1-1)
REM options -cpp -mtune=generic -march=x86-64 -g -O0 -fpre-include=/usr/include/finclude/math-vector-fortran.h
REM seed -1391500284 672810486 -981458715 1680590530 -1064195319 1516305482 -1290045426 -1465427812 2114641879 341568300 1288364906 -1475810368 1703790983 1028471219 -1416687213 2055777697 -1079573346 242226734 898655870 775487313 307662696 -540654014 -713488829 -1447821117 -912226733 -281820252 -1038401783 347535395 1228188613 -353887277 -2030162903 -26195368 588824289
REM
CELL 1.54180   50.00000   50.00000   50.00000   90.00000   90.00000   90.00000
LATT -1
SFAC C  
C      1  0.5335700000000  0.5167280000000  0.4690210000000 1.0
C      1  0.5083190000000  0.5573350000000  0.4531070000000 1.0
C      1  0.4598510000000  0.4795360000000  0.5222370000000 1.0
C      1  0.4883410000000  0.5119290000000  0.4814960000000 1.0
C      1  0.5326970000000  0.5434430000000  0.5183610000000 1.0
C      1  0.5144680000000  0.4734410000000  0.4905630000000 1.0
C      1  0.5170560000000  0.5044060000000  0.4912190000000 1.0
C      1  0.4860970000000  0.4739410000000  0.5303280000000 1.0
C      1  0.5450740000000  0.4575590000000  0.5424520000000 1.0
C      1  0.4450210000000  0.5449670000000  0.4897080000000 1.0
C      1  0.4612190000000  0.5599540000000  0.4746120000000 1.0
C      1  0.4847610000000  0.4747870000000  0.4521940000000 1.0
C      1  0.5452020000000  0.4840410000000  0.5482260000000 1.0
C      1  0.5279650000000  0.5391460000000  0.4550030000000 1.0
C      1  0.5241470000000  0.5018080000000  0.5416370000000 1.0
C      1  0.4838250000000  0.5646000000000  0.4611000000000 1.0
C      1  0.5251680000000  0.5170630000000  0.5175560000000 1.0
C      1  0.5254210000000  0.4432870000000  0.5277650000000 1.0
C      1  0.5062660000000  0.4601340000000  0.5147370000000 1.0
C      1  0.5052690000000  0.4627870000000  0.4655950000000 1.0
C      1  0.5247410000000  0.4161090000000  0.5261770000000 1.0
C      1  0.4432950000000  0.4988750000000  0.5139480000000 1.0
C      1  0.4981820000000  0.4923650000000  0.5484320000000 1.0
C      1  0.4384290000000  0.5229360000000  0.5033470000000 1.0
C      1  0.4756160000000  0.4988180000000  0.4611790000000 1.0
END
