TITL C-627106-156-1605 0.17430112810702 125000 -287.073224964568 0 0 49 (C1) n - 1
REM
REM in /home/nfs/bkarasulu/CARBON/AIRSS/Generating-Clusters/LCBOP/Only-C1/SD-CG/FIRE-CG
REM
REM
REM
REM
REM
REM ./C.cell (11c1c37f851c82e70ff6c80c92926a4b)
REM AIRSS Version 0.9.1 bugfix July 2018 build 013d7b7c2542+ Fri, 06 Jul 2018 19:26:36 +0100
REM compiler GCC version 9.2.1 20190827 (Red Hat 9.2.1-1)
REM options -cpp -mtune=generic -march=x86-64 -g -O0 -fpre-include=/usr/include/finclude/math-vector-fortran.h
REM seed -1548762577 509750470 946277095 1621822906 936485931 2037518876 -1034164846 1626592581 1084492251 -1254775322 -501713728 855608197 1302319830 2080796661 -1335771728 183629342 -1823454334 -1014009892 429469326 1529340940 -1290415979 1463347595 187517095 -1545763336 -1374503772 -35626857 2087699409 -1932943010 962298236 -217363028 -732739836 -1562756129 829034340
REM
CELL 1.54180   50.00000   50.00000   50.00000   90.00000   90.00000   90.00000
LATT -1
SFAC C  
C      1  0.4383360000000  0.4790920000000  0.5042400000000 1.0
C      1  0.5089810000000  0.4663760000000  0.5198920000000 1.0
C      1  0.5221890000000  0.4253310000000  0.4787090000000 1.0
C      1  0.4184210000000  0.4064950000000  0.5292660000000 1.0
C      1  0.4659150000000  0.5446370000000  0.4691990000000 1.0
C      1  0.5450180000000  0.5704670000000  0.5536800000000 1.0
C      1  0.4826000000000  0.4745550000000  0.5248540000000 1.0
C      1  0.4792680000000  0.4968280000000  0.5424560000000 1.0
C      1  0.4956340000000  0.4366990000000  0.4717180000000 1.0
C      1  0.4609520000000  0.5052660000000  0.4236810000000 1.0
C      1  0.4226150000000  0.5200820000000  0.4777520000000 1.0
C      1  0.4781060000000  0.5591260000000  0.4908880000000 1.0
C      1  0.4924210000000  0.4578490000000  0.4540040000000 1.0
C      1  0.5640070000000  0.5840950000000  0.5661650000000 1.0
C      1  0.5863610000000  0.5268350000000  0.4198080000000 1.0
C      1  0.4887910000000  0.3970510000000  0.4938890000000 1.0
C      1  0.4599640000000  0.4628870000000  0.5117890000000 1.0
C      1  0.4817880000000  0.5046370000000  0.4422040000000 1.0
C      1  0.5398300000000  0.4429850000000  0.4913540000000 1.0
C      1  0.5434640000000  0.5086330000000  0.4467960000000 1.0
C      1  0.4387130000000  0.5390230000000  0.4679660000000 1.0
C      1  0.5537190000000  0.5133550000000  0.4941930000000 1.0
C      1  0.4995630000000  0.4823970000000  0.4427790000000 1.0
C      1  0.4374200000000  0.4201310000000  0.5177680000000 1.0
C      1  0.4578050000000  0.4350470000000  0.5057590000000 1.0
C      1  0.5105840000000  0.5298250000000  0.4766700000000 1.0
C      1  0.4678780000000  0.4788240000000  0.5860980000000 1.0
C      1  0.5654230000000  0.5178640000000  0.4324690000000 1.0
C      1  0.4745470000000  0.4629790000000  0.6056840000000 1.0
C      1  0.4612830000000  0.4951280000000  0.5643640000000 1.0
C      1  0.5158330000000  0.3987080000000  0.4881250000000 1.0
C      1  0.4758540000000  0.4224850000000  0.4882390000000 1.0
C      1  0.5364050000000  0.5192370000000  0.4723460000000 1.0
C      1  0.5731420000000  0.5307430000000  0.5022360000000 1.0
C      1  0.5027840000000  0.5467330000000  0.4992950000000 1.0
C      1  0.5083300000000  0.5412060000000  0.5263070000000 1.0
C      1  0.5499860000000  0.4883930000000  0.5063820000000 1.0
C      1  0.5342360000000  0.4653880000000  0.5075460000000 1.0
C      1  0.5264280000000  0.4884970000000  0.4371160000000 1.0
C      1  0.4195530000000  0.5056770000000  0.3913100000000 1.0
C      1  0.4378690000000  0.5092810000000  0.5641540000000 1.0
C      1  0.4237730000000  0.4975460000000  0.4919070000000 1.0
C      1  0.4403310000000  0.5053350000000  0.4070490000000 1.0
C      1  0.6021320000000  0.6112710000000  0.5910160000000 1.0
C      1  0.5830660000000  0.5976820000000  0.5785900000000 1.0
C      1  0.4866770000000  0.5261580000000  0.4599140000000 1.0
C      1  0.5266280000000  0.5565050000000  0.5407040000000 1.0
C      1  0.4944910000000  0.5200190000000  0.5384320000000 1.0
C      1  0.6208840000000  0.6246370000000  0.6032380000000 1.0
END
