TITL C-627108-131-1418 -8.3619630673367e-07 125000 -661.438815645812 0 0 108 (C1) n - 1
REM
REM in /home/nfs/bkarasulu/CARBON/AIRSS/Generating-Clusters/LCBOP/Only-C1/SD-CG/FIRE-CG
REM
REM
REM
REM
REM
REM ./C.cell (11c1c37f851c82e70ff6c80c92926a4b)
REM AIRSS Version 0.9.1 bugfix July 2018 build 013d7b7c2542+ Fri, 06 Jul 2018 19:26:36 +0100
REM compiler GCC version 9.2.1 20190827 (Red Hat 9.2.1-1)
REM options -cpp -mtune=generic -march=x86-64 -g -O0 -fpre-include=/usr/include/finclude/math-vector-fortran.h
REM seed -622171411 1653770118 -1764894054 637360697 1764439189 -858603110 1926661677 -267334263 355901075 417562874 -39252983 -1591300456 -1018588941 -171893546 -226638530 -2001582889 479543687 -1637576327 1227476620 961576389 -887620012 1883399730 -617714769 -684693817 890565600 -1757681966 -1503717334 -2055878360 985472583 668434144 -1050746444 1109834928 -670207189
REM
CELL 1.54180   50.00000   50.00000   50.00000   90.00000   90.00000   90.00000
LATT -1
SFAC C  
C      1  0.5376490000000  0.6019850000000  0.4534660000000 1.0
C      1  0.4842510000000  0.5138970000000  0.4066090000000 1.0
C      1  0.4661980000000  0.5718930000000  0.5333060000000 1.0
C      1  0.4664680000000  0.5041300000000  0.4268130000000 1.0
C      1  0.5678410000000  0.4775090000000  0.4389880000000 1.0
C      1  0.3907220000000  0.5253810000000  0.5067990000000 1.0
C      1  0.5134910000000  0.3991900000000  0.4732610000000 1.0
C      1  0.5121960000000  0.4370520000000  0.5597600000000 1.0
C      1  0.5258530000000  0.5542500000000  0.4968760000000 1.0
C      1  0.6296000000000  0.4856300000000  0.5224470000000 1.0
C      1  0.5827700000000  0.5225580000000  0.5806660000000 1.0
C      1  0.4760050000000  0.4137510000000  0.5030630000000 1.0
C      1  0.5939610000000  0.4579210000000  0.5041000000000 1.0
C      1  0.3913330000000  0.4999560000000  0.4969310000000 1.0
C      1  0.5128540000000  0.5892130000000  0.4466330000000 1.0
C      1  0.5189420000000  0.4286910000000  0.5337510000000 1.0
C      1  0.5555830000000  0.4268870000000  0.4520740000000 1.0
C      1  0.5017170000000  0.4014260000000  0.4994050000000 1.0
C      1  0.4380360000000  0.5112040000000  0.4925610000000 1.0
C      1  0.4264530000000  0.4627490000000  0.4975240000000 1.0
C      1  0.4454800000000  0.4520570000000  0.5428660000000 1.0
C      1  0.5087840000000  0.5071690000000  0.5924480000000 1.0
C      1  0.4384370000000  0.5030170000000  0.5726880000000 1.0
C      1  0.5776690000000  0.5207200000000  0.5318000000000 1.0
C      1  0.4351620000000  0.4723390000000  0.5239150000000 1.0
C      1  0.5205530000000  0.5486960000000  0.4696170000000 1.0
C      1  0.4276850000000  0.4276430000000  0.4383220000000 1.0
C      1  0.5657840000000  0.5787560000000  0.4873960000000 1.0
C      1  0.4525930000000  0.4964770000000  0.4730640000000 1.0
C      1  0.4322850000000  0.5440850000000  0.5527320000000 1.0
C      1  0.5639790000000  0.4760130000000  0.5484480000000 1.0
C      1  0.4826340000000  0.6189770000000  0.4704040000000 1.0
C      1  0.5642840000000  0.4788240000000  0.5953180000000 1.0
C      1  0.5415630000000  0.5767530000000  0.5020090000000 1.0
C      1  0.4745400000000  0.5326790000000  0.3890270000000 1.0
C      1  0.5825290000000  0.5559170000000  0.4928280000000 1.0
C      1  0.5034790000000  0.5245970000000  0.5278080000000 1.0
C      1  0.4336420000000  0.5162880000000  0.5481070000000 1.0
C      1  0.4041510000000  0.5488890000000  0.5114960000000 1.0
C      1  0.5860320000000  0.6085190000000  0.4543210000000 1.0
C      1  0.4761670000000  0.4754340000000  0.5779540000000 1.0
C      1  0.5336660000000  0.5691790000000  0.5586280000000 1.0
C      1  0.5303800000000  0.3806750000000  0.5339280000000 1.0
C      1  0.5785270000000  0.5291300000000  0.5028380000000 1.0
C      1  0.5178420000000  0.4022510000000  0.5231410000000 1.0
C      1  0.4321370000000  0.5435990000000  0.4767000000000 1.0
C      1  0.4583220000000  0.5579570000000  0.5096510000000 1.0
C      1  0.5693740000000  0.4490420000000  0.4986530000000 1.0
C      1  0.5576590000000  0.4927610000000  0.4613230000000 1.0
C      1  0.4742630000000  0.5351690000000  0.4663660000000 1.0
C      1  0.4811340000000  0.5138140000000  0.6013910000000 1.0
C      1  0.5371280000000  0.4988740000000  0.4033800000000 1.0
C      1  0.4406700000000  0.4245170000000  0.5355530000000 1.0
C      1  0.4844200000000  0.5131890000000  0.5103620000000 1.0
C      1  0.4939630000000  0.4880910000000  0.4989720000000 1.0
C      1  0.5425130000000  0.5429310000000  0.5653060000000 1.0
C      1  0.5372580000000  0.5094310000000  0.4993780000000 1.0
C      1  0.5825840000000  0.4921220000000  0.5345760000000 1.0
C      1  0.4968780000000  0.3911420000000  0.4518870000000 1.0
C      1  0.4723070000000  0.4413850000000  0.4946410000000 1.0
C      1  0.5595230000000  0.4882010000000  0.4139490000000 1.0
C      1  0.5678820000000  0.4491180000000  0.4427910000000 1.0
C      1  0.4485880000000  0.5654810000000  0.5543190000000 1.0
C      1  0.4207680000000  0.4751540000000  0.4304360000000 1.0
C      1  0.4372070000000  0.4287570000000  0.4633180000000 1.0
C      1  0.4743300000000  0.5364830000000  0.4960090000000 1.0
C      1  0.4071160000000  0.4802210000000  0.4549130000000 1.0
C      1  0.5383020000000  0.4109550000000  0.4653680000000 1.0
C      1  0.5789500000000  0.5014870000000  0.5971380000000 1.0
C      1  0.4417340000000  0.4914690000000  0.4207400000000 1.0
C      1  0.5002610000000  0.4529990000000  0.4282120000000 1.0
C      1  0.4856830000000  0.5974370000000  0.4525870000000 1.0
C      1  0.5287570000000  0.4852630000000  0.4612690000000 1.0
C      1  0.4660980000000  0.4538420000000  0.5631820000000 1.0
C      1  0.5112480000000  0.5059280000000  0.4038000000000 1.0
C      1  0.4846960000000  0.4322630000000  0.5657100000000 1.0
C      1  0.5182040000000  0.4938070000000  0.4855520000000 1.0
C      1  0.5510770000000  0.4686280000000  0.5723400000000 1.0
C      1  0.4698760000000  0.5095870000000  0.4544040000000 1.0
C      1  0.4877380000000  0.6130000000000  0.5205490000000 1.0
C      1  0.4635580000000  0.5789480000000  0.4502860000000 1.0
C      1  0.6033210000000  0.4788660000000  0.5203150000000 1.0
C      1  0.5637070000000  0.5966540000000  0.4648270000000 1.0
C      1  0.5048840000000  0.4795290000000  0.5822670000000 1.0
C      1  0.4844760000000  0.6240660000000  0.4965380000000 1.0
C      1  0.4295480000000  0.5579480000000  0.5011660000000 1.0
C      1  0.5180610000000  0.4485250000000  0.5131760000000 1.0
C      1  0.4203560000000  0.4480540000000  0.4223390000000 1.0
C      1  0.4359760000000  0.5020160000000  0.5224110000000 1.0
C      1  0.5121340000000  0.5829710000000  0.5501140000000 1.0
C      1  0.5000600000000  0.5291480000000  0.5543660000000 1.0
C      1  0.5429700000000  0.4518140000000  0.5007290000000 1.0
C      1  0.4877080000000  0.4042190000000  0.4303380000000 1.0
C      1  0.4886030000000  0.5893640000000  0.5357160000000 1.0
C      1  0.5264200000000  0.5313990000000  0.5131650000000 1.0
C      1  0.5631520000000  0.5102280000000  0.4855100000000 1.0
C      1  0.5238150000000  0.4604340000000  0.5725710000000 1.0
C      1  0.4057630000000  0.4787810000000  0.4834550000000 1.0
C      1  0.4534030000000  0.5539840000000  0.4593060000000 1.0
C      1  0.5684780000000  0.5322820000000  0.5577720000000 1.0
C      1  0.4611020000000  0.4975820000000  0.5878500000000 1.0
C      1  0.4556410000000  0.4065320000000  0.5215510000000 1.0
C      1  0.5142010000000  0.4699710000000  0.4431690000000 1.0
C      1  0.4455900000000  0.4456350000000  0.4842280000000 1.0
C      1  0.5203100000000  0.5261660000000  0.5742680000000 1.0
C      1  0.5159600000000  0.5611600000000  0.4464110000000 1.0
C      1  0.4925610000000  0.4598480000000  0.5036820000000 1.0
C      1  0.4898220000000  0.4294140000000  0.4216100000000 1.0
END
