TITL C-627106-156-499 1.33184304740243e-07 125000 -371.582523222841 0 0 61 (C1) n - 1
REM
REM in /home/nfs/bkarasulu/CARBON/AIRSS/Generating-Clusters/LCBOP/Only-C1/SD-CG/FIRE-CG
REM
REM
REM
REM
REM
REM ./C.cell (11c1c37f851c82e70ff6c80c92926a4b)
REM AIRSS Version 0.9.1 bugfix July 2018 build 013d7b7c2542+ Fri, 06 Jul 2018 19:26:36 +0100
REM compiler GCC version 9.2.1 20190827 (Red Hat 9.2.1-1)
REM options -cpp -mtune=generic -march=x86-64 -g -O0 -fpre-include=/usr/include/finclude/math-vector-fortran.h
REM seed 1678984822 1685128021 1695557007 -2062078941 151569634 -266572145 -442102834 311046669 928517835 -588172863 -578259759 -1469147477 1339244042 1033293519 -389016302 275910729 140406751 -2027368666 1146421885 -1312781990 539591068 1011413913 1306772376 1741424700 143129502 260736374 -1978212476 243410512 195761680 769842348 -829019058 -610320625 1128474499
REM
CELL 1.54180   50.00000   50.00000   50.00000   90.00000   90.00000   90.00000
LATT -1
SFAC C  
C      1  0.4603170000000  0.4298450000000  0.4960750000000 1.0
C      1  0.4829130000000  0.4730660000000  0.5955400000000 1.0
C      1  0.4754180000000  0.4520890000000  0.4309910000000 1.0
C      1  0.4692260000000  0.4803220000000  0.4294830000000 1.0
C      1  0.5036550000000  0.5831710000000  0.4872230000000 1.0
C      1  0.5061210000000  0.4812170000000  0.4545820000000 1.0
C      1  0.4624930000000  0.5174900000000  0.5782350000000 1.0
C      1  0.4423360000000  0.5077170000000  0.5596400000000 1.0
C      1  0.5183970000000  0.4376500000000  0.4544280000000 1.0
C      1  0.4714660000000  0.5456900000000  0.5786750000000 1.0
C      1  0.5126150000000  0.4684210000000  0.5617020000000 1.0
C      1  0.4833960000000  0.4983850000000  0.5818420000000 1.0
C      1  0.5619350000000  0.4942740000000  0.4776280000000 1.0
C      1  0.5678290000000  0.4775800000000  0.4998450000000 1.0
C      1  0.4678480000000  0.5678830000000  0.5135550000000 1.0
C      1  0.5918560000000  0.5321500000000  0.4775080000000 1.0
C      1  0.4957050000000  0.4846450000000  0.4804700000000 1.0
C      1  0.4710740000000  0.5531660000000  0.4688270000000 1.0
C      1  0.5523580000000  0.4789990000000  0.4552570000000 1.0
C      1  0.4631160000000  0.4025480000000  0.5397780000000 1.0
C      1  0.5453960000000  0.5438360000000  0.4831710000000 1.0
C      1  0.4322210000000  0.5136130000000  0.4858440000000 1.0
C      1  0.4761670000000  0.5740330000000  0.4867830000000 1.0
C      1  0.4451510000000  0.4904130000000  0.4404390000000 1.0
C      1  0.4723300000000  0.4245530000000  0.4707370000000 1.0
C      1  0.5323610000000  0.5554590000000  0.4597510000000 1.0
C      1  0.5353230000000  0.4388860000000  0.5012310000000 1.0
C      1  0.4850010000000  0.5547350000000  0.5548300000000 1.0
C      1  0.5591220000000  0.4529920000000  0.5067920000000 1.0
C      1  0.5146840000000  0.5745350000000  0.5135900000000 1.0
C      1  0.4473800000000  0.4724960000000  0.5227930000000 1.0
C      1  0.4999310000000  0.5124210000000  0.5369030000000 1.0
C      1  0.5652760000000  0.5230240000000  0.4795880000000 1.0
C      1  0.5282770000000  0.4647920000000  0.4502850000000 1.0
C      1  0.6167850000000  0.5409090000000  0.4755910000000 1.0
C      1  0.4592840000000  0.5400280000000  0.5187800000000 1.0
C      1  0.4762630000000  0.4088100000000  0.5621190000000 1.0
C      1  0.4860250000000  0.5295280000000  0.4672520000000 1.0
C      1  0.5370540000000  0.5566860000000  0.5082700000000 1.0
C      1  0.5112470000000  0.5140800000000  0.5115360000000 1.0
C      1  0.4402470000000  0.4984800000000  0.5322670000000 1.0
C      1  0.5117940000000  0.4506240000000  0.5113740000000 1.0
C      1  0.4914030000000  0.5736770000000  0.5331220000000 1.0
C      1  0.4962320000000  0.5119430000000  0.4878170000000 1.0
C      1  0.4641340000000  0.4565170000000  0.5063720000000 1.0
C      1  0.4896240000000  0.4264180000000  0.5770190000000 1.0
C      1  0.5025570000000  0.4953420000000  0.5590710000000 1.0
C      1  0.4558690000000  0.4097090000000  0.5150780000000 1.0
C      1  0.4795410000000  0.5315270000000  0.5378760000000 1.0
C      1  0.5207800000000  0.5815700000000  0.4643990000000 1.0
C      1  0.4927730000000  0.4966420000000  0.4343710000000 1.0
C      1  0.5214520000000  0.5393130000000  0.4387190000000 1.0
C      1  0.4976540000000  0.5238680000000  0.4412850000000 1.0
C      1  0.4977110000000  0.4526360000000  0.5811280000000 1.0
C      1  0.4335550000000  0.5023390000000  0.4615370000000 1.0
C      1  0.5260450000000  0.6029790000000  0.4483390000000 1.0
C      1  0.4904990000000  0.4655850000000  0.5006110000000 1.0
C      1  0.5313080000000  0.4250570000000  0.4765510000000 1.0
C      1  0.4890350000000  0.4347240000000  0.4498190000000 1.0
C      1  0.4411150000000  0.5193920000000  0.5119640000000 1.0
C      1  0.6413190000000  0.5495190000000  0.4737080000000 1.0
END
