TITL C-627107-135-124 -5.87675292194361e-07 125000 -339.936176202152 0 0 57 (C1) n - 1
REM
REM in /home/nfs/bkarasulu/CARBON/AIRSS/Generating-Clusters/LCBOP/Only-C1/SD-CG/FIRE-CG
REM
REM
REM
REM
REM
REM ./C.cell (11c1c37f851c82e70ff6c80c92926a4b)
REM AIRSS Version 0.9.1 bugfix July 2018 build 013d7b7c2542+ Fri, 06 Jul 2018 19:26:36 +0100
REM compiler GCC version 9.2.1 20190827 (Red Hat 9.2.1-1)
REM options -cpp -mtune=generic -march=x86-64 -g -O0 -fpre-include=/usr/include/finclude/math-vector-fortran.h
REM seed -50263685 -1663904112 -1585271727 -1303415149 1510261345 1384702766 1863241852 -31854716 80431452 19285583 181393263 -314308043 2036384934 -1763821243 -796541800 -1909985705 114693186 -1374645643 628920666 -400628945 -1680012306 519691711 402088579 54031054 393871506 -1077358367 340287374 1058589006 703784806 1146617042 -1976395068 1411229109 883923079
REM
CELL 1.54180   50.00000   50.00000   50.00000   90.00000   90.00000   90.00000
LATT -1
SFAC C  
C      1  0.4705640000000  0.5322340000000  0.4305610000000 1.0
C      1  0.5136630000000  0.4813130000000  0.5589200000000 1.0
C      1  0.5530580000000  0.4587530000000  0.4884020000000 1.0
C      1  0.5566260000000  0.5024050000000  0.5194060000000 1.0
C      1  0.4417620000000  0.5638690000000  0.5310870000000 1.0
C      1  0.4127700000000  0.5271860000000  0.5178600000000 1.0
C      1  0.4520790000000  0.5873970000000  0.5198250000000 1.0
C      1  0.4001450000000  0.5038690000000  0.5150620000000 1.0
C      1  0.4068300000000  0.4789870000000  0.5078870000000 1.0
C      1  0.5506130000000  0.5165840000000  0.4708150000000 1.0
C      1  0.4891720000000  0.4768940000000  0.5438830000000 1.0
C      1  0.6053950000000  0.4551480000000  0.5421620000000 1.0
C      1  0.5374320000000  0.4681190000000  0.5486820000000 1.0
C      1  0.4299730000000  0.4670070000000  0.5019330000000 1.0
C      1  0.5650060000000  0.5166110000000  0.4958920000000 1.0
C      1  0.4577020000000  0.4727610000000  0.5019060000000 1.0
C      1  0.4522750000000  0.5354310000000  0.4911200000000 1.0
C      1  0.5601240000000  0.5006030000000  0.4488190000000 1.0
C      1  0.4676300000000  0.4359700000000  0.5311780000000 1.0
C      1  0.4841740000000  0.5716490000000  0.4629830000000 1.0
C      1  0.4376460000000  0.5619520000000  0.5580550000000 1.0
C      1  0.5135220000000  0.5192410000000  0.5103880000000 1.0
C      1  0.5772730000000  0.4553440000000  0.5009330000000 1.0
C      1  0.5628440000000  0.4812220000000  0.5385250000000 1.0
C      1  0.5228510000000  0.5266390000000  0.4656250000000 1.0
C      1  0.4719840000000  0.4633390000000  0.5253350000000 1.0
C      1  0.5183970000000  0.5462930000000  0.5510130000000 1.0
C      1  0.4539110000000  0.5086260000000  0.4372660000000 1.0
C      1  0.5152200000000  0.5448450000000  0.5233250000000 1.0
C      1  0.5059700000000  0.4625400000000  0.4279000000000 1.0
C      1  0.4311440000000  0.5222700000000  0.4500930000000 1.0
C      1  0.5243670000000  0.4223510000000  0.5300180000000 1.0
C      1  0.4651950000000  0.4860970000000  0.4515490000000 1.0
C      1  0.4738730000000  0.5164390000000  0.4873020000000 1.0
C      1  0.5097950000000  0.5670840000000  0.5063550000000 1.0
C      1  0.5300710000000  0.5197260000000  0.4180800000000 1.0
C      1  0.6262040000000  0.4473620000000  0.5557830000000 1.0
C      1  0.4714320000000  0.5950640000000  0.5030330000000 1.0
C      1  0.4364380000000  0.5418060000000  0.5138760000000 1.0
C      1  0.5301290000000  0.4666100000000  0.5039680000000 1.0
C      1  0.4662360000000  0.5545500000000  0.4493040000000 1.0
C      1  0.5304180000000  0.4718430000000  0.4220060000000 1.0
C      1  0.4665060000000  0.4895740000000  0.4804230000000 1.0
C      1  0.4787230000000  0.4118700000000  0.5340500000000 1.0
C      1  0.4431730000000  0.5442470000000  0.4653310000000 1.0
C      1  0.5192200000000  0.5342440000000  0.4384410000000 1.0
C      1  0.5831060000000  0.4633990000000  0.5278980000000 1.0
C      1  0.5051050000000  0.4022560000000  0.5335570000000 1.0
C      1  0.4820480000000  0.4678470000000  0.4385630000000 1.0
C      1  0.4910390000000  0.5800770000000  0.4893590000000 1.0
C      1  0.5017460000000  0.5219270000000  0.4849390000000 1.0
C      1  0.5289680000000  0.4495220000000  0.5276660000000 1.0
C      1  0.5158030000000  0.5035330000000  0.5758410000000 1.0
C      1  0.5287960000000  0.4955500000000  0.5119530000000 1.0
C      1  0.5113980000000  0.3759150000000  0.5362600000000 1.0
C      1  0.5181240000000  0.5299670000000  0.5722030000000 1.0
C      1  0.5443330000000  0.4960380000000  0.4254030000000 1.0
END
