TITL C-627110-360-844 3.40178706613735e-07 125000 -175.606090615104 0 0 30 (C1) n - 1
REM
REM in /home/nfs/bkarasulu/CARBON/AIRSS/Generating-Clusters/LCBOP/Only-C1/SD-CG/FIRE-CG
REM
REM
REM
REM
REM
REM ./C.cell (11c1c37f851c82e70ff6c80c92926a4b)
REM AIRSS Version 0.9.1 bugfix July 2018 build 013d7b7c2542+ Fri, 06 Jul 2018 19:26:36 +0100
REM compiler GCC version 9.2.1 20190827 (Red Hat 9.2.1-1)
REM options -cpp -mtune=generic -march=x86-64 -g -O0 -fpre-include=/usr/include/finclude/math-vector-fortran.h
REM seed 184094495 -199917097 1462151882 1106254450 740071072 2108530856 -443051786 1768311586 551145726 -1656714067 -769555503 952798739 -312995666 -926550624 493756270 2139144131 -507968524 1978989144 1505928962 -1443164470 116023997 -1272892091 -468113571 -1705040994 -1416654004 603395098 1674413846 1631789499 -1965414972 1020017181 -1644866632 742675140 -485793412
REM
CELL 1.54180   50.00000   50.00000   50.00000   90.00000   90.00000   90.00000
LATT -1
SFAC C  
C      1  0.5696060000000  0.5324440000000  0.4566360000000 1.0
C      1  0.5386160000000  0.5454040000000  0.5073790000000 1.0
C      1  0.5892460000000  0.5466500000000  0.4470640000000 1.0
C      1  0.4839020000000  0.4724950000000  0.5012470000000 1.0
C      1  0.4896770000000  0.5037820000000  0.5699870000000 1.0
C      1  0.5075880000000  0.4826140000000  0.4886530000000 1.0
C      1  0.4853180000000  0.5550690000000  0.5564220000000 1.0
C      1  0.5113770000000  0.4336780000000  0.4386350000000 1.0
C      1  0.5249200000000  0.4988390000000  0.5051580000000 1.0
C      1  0.4754260000000  0.4409460000000  0.4119500000000 1.0
C      1  0.4852710000000  0.4877350000000  0.5915980000000 1.0
C      1  0.4747710000000  0.4857030000000  0.5251310000000 1.0
C      1  0.5147200000000  0.4799940000000  0.4611780000000 1.0
C      1  0.4949240000000  0.4931390000000  0.5442460000000 1.0
C      1  0.5349160000000  0.4978150000000  0.4525900000000 1.0
C      1  0.4492980000000  0.4972960000000  0.5263590000000 1.0
C      1  0.5392240000000  0.5208550000000  0.4939570000000 1.0
C      1  0.4568950000000  0.4288990000000  0.4846710000000 1.0
C      1  0.5205950000000  0.4960930000000  0.5328250000000 1.0
C      1  0.4944200000000  0.4220740000000  0.4196460000000 1.0
C      1  0.4892560000000  0.5318520000000  0.5718920000000 1.0
C      1  0.4705190000000  0.4499310000000  0.4918330000000 1.0
C      1  0.5033280000000  0.4614820000000  0.4438710000000 1.0
C      1  0.4588730000000  0.5602290000000  0.5482970000000 1.0
C      1  0.4391010000000  0.5452900000000  0.5380440000000 1.0
C      1  0.5265100000000  0.5615570000000  0.5247780000000 1.0
C      1  0.5071970000000  0.5658450000000  0.5426490000000 1.0
C      1  0.4356830000000  0.5199740000000  0.5300600000000 1.0
C      1  0.5486390000000  0.5176450000000  0.4672460000000 1.0
C      1  0.4801850000000  0.4646710000000  0.4259960000000 1.0
END
