TITL C-627107-135-1411 -2226.5902763171 125000 -966.317523384418 0 0 159 (C1) n - 1
REM
REM in /home/nfs/bkarasulu/CARBON/AIRSS/Generating-Clusters/LCBOP/Only-C1/SD-CG/FIRE-CG
REM
REM
REM
REM
REM
REM ./C.cell (11c1c37f851c82e70ff6c80c92926a4b)
REM AIRSS Version 0.9.1 bugfix July 2018 build 013d7b7c2542+ Fri, 06 Jul 2018 19:26:36 +0100
REM compiler GCC version 9.2.1 20190827 (Red Hat 9.2.1-1)
REM options -cpp -mtune=generic -march=x86-64 -g -O0 -fpre-include=/usr/include/finclude/math-vector-fortran.h
REM seed -1350252198 366844081 691291497 -899451238 -646444609 -1866428783 -491621817 -778257108 -1670261040 910538045 -550015509 -936451931 -1398058709 810166411 871462048 52032247 421891252 -1572083266 -1260462548 127807382 260147025 -1872941419 744036574 778424116 952497705 -1818326905 390952272 1162401171 179082430 1239592345 487530878 827664662 -909705236
REM
CELL 1.54180   50.00000   50.00000   50.00000   90.00000   90.00000   90.00000
LATT -1
SFAC C  
C      1  0.4694180000000  0.5157790000000  0.4340510000000 1.0
C      1  0.4209660000000  0.4541370000000  0.4902560000000 1.0
C      1  0.5052850000000  0.5471590000000  0.4020040000000 1.0
C      1  0.3838990000000  0.5590250000000  0.4992270000000 1.0
C      1  0.5384370000000  0.4176740000000  0.4520340000000 1.0
C      1  0.4497380000000  0.4948390000000  0.3941210000000 1.0
C      1  0.5362630000000  0.3682680000000  0.5035970000000 1.0
C      1  0.4523490000000  0.5542580000000  0.5332960000000 1.0
C      1  0.4513360000000  0.5063890000000  0.4855330000000 1.0
C      1  0.3839190000000  0.5731420000000  0.5445080000000 1.0
C      1  0.5136010000000  0.4739890000000  0.5041970000000 1.0
C      1  0.6248740000000  0.5176900000000  0.5401940000000 1.0
C      1  0.5839030000000  0.5435620000000  0.5426850000000 1.0
C      1  0.4289400000000  0.5283270000000  0.5827330000000 1.0
C      1  0.6073890000000  0.4684990000000  0.4755110000000 1.0
C      1  0.4853690000000  0.4697030000000  0.5024710000000 1.0
C      1  0.5759190000000  0.3932850000000  0.4772050000000 1.0
C      1  0.5041590000000  0.5424520000000  0.4505100000000 1.0
C      1  0.4530490000000  0.4422500000000  0.5281110000000 1.0
C      1  0.4242530000000  0.5818100000000  0.5678260000000 1.0
C      1  0.5166670000000  0.4975990000000  0.5706670000000 1.0
C      1  0.5053920000000  0.3970260000000  0.4769050000000 1.0
C      1  0.4681180000000  0.6022940000000  0.5660840000000 1.0
C      1  0.5779320000000  0.5145050000000  0.4314860000000 1.0
C      1  0.5145340000000  0.5888490000000  0.5601280000000 1.0
C      1  0.4423410000000  0.6030580000000  0.5222160000000 1.0
C      1  0.5488830000000  0.4075140000000  0.5636980000000 1.0
C      1  0.5796620000000  0.3861480000000  0.5032890000000 1.0
C      1  0.5533090000000  0.4485640000000  0.5867560000000 1.0
C      1  0.5141620000000  0.5916940000000  0.4414900000000 1.0
C      1  0.5225990000000  0.4999080000000  0.5011970000000 1.0
C      1  0.5091950000000  0.4971850000000  0.4530930000000 1.0
C      1  0.4764660000000  0.4443950000000  0.5126930000000 1.0
C      1  0.4768990000000  0.5431200000000  0.4425630000000 1.0
C      1  0.4525420000000  0.5345870000000  0.4827860000000 1.0
C      1  0.4129020000000  0.5217280000000  0.4244730000000 1.0
C      1  0.4676800000000  0.4736860000000  0.3971870000000 1.0
C      1  0.4556930000000  0.5890360000000  0.4700190000000 1.0
C      1  0.4299260000000  0.5478100000000  0.4724920000000 1.0
C      1  0.4749740000000  0.5496100000000  0.4903630000000 1.0
C      1  0.5219530000000  0.5061060000000  0.4744130000000 1.0
C      1  0.4692230000000  0.4634840000000  0.5983180000000 1.0
C      1  0.5619050000000  0.4854580000000  0.4743580000000 1.0
C      1  0.5989230000000  0.5318820000000  0.4312780000000 1.0
C      1  0.5433710000000  0.5988690000000  0.4882860000000 1.0
C      1  0.5579490000000  0.3774740000000  0.5196660000000 1.0
C      1  0.5499110000000  0.5214730000000  0.4267090000000 1.0
C      1  0.5075190000000  0.5530570000000  0.5269760000000 1.0
C      1  0.5249100000000  0.4132140000000  0.5796590000000 1.0
C      1  0.4242920000000  0.5507110000000  0.5282200000000 1.0
C      1  0.5195870000000  0.4368280000000  0.5272500000000 1.0
C      1  0.4639120000000  0.5695840000000  0.4509230000000 1.0
C      1  0.4429870000000  0.3771400000000  0.5036870000000 1.0
C      1  0.4334950000000  0.4495320000000  0.4637860000000 1.0
C      1  0.5106460000000  0.4518420000000  0.5494050000000 1.0
C      1  0.5581960000000  0.4955900000000  0.5966970000000 1.0
C      1  0.4172120000000  0.3774990000000  0.4971740000000 1.0
C      1  0.4147080000000  0.5681290000000  0.4312220000000 1.0
C      1  0.5536930000000  0.3867150000000  0.5457140000000 1.0
C      1  0.5242720000000  0.5730410000000  0.4200690000000 1.0
C      1  0.4470640000000  0.6000630000000  0.4945390000000 1.0
C      1  0.5840480000000  0.4887390000000  0.5584740000000 1.0
C      1  0.5811640000000  0.4853640000000  0.4272560000000 1.0
C      1  0.4979550000000  0.4594030000000  0.5922250000000 1.0
C      1  0.5581490000000  0.4809330000000  0.4081160000000 1.0
C      1  0.5200390000000  0.5183760000000  0.5510110000000 1.0
C      1  0.5324630000000  0.5161420000000  0.5222320000000 1.0
C      1  0.4681690000000  0.3853240000000  0.5059860000000 1.0
C      1  0.5016220000000  0.5499040000000  0.4785810000000 1.0
C      1  0.4435960000000  0.5977350000000  0.5519380000000 1.0
C      1  0.5347560000000  0.4571800000000  0.5133820000000 1.0
C      1  0.3839190000000  0.4787960000000  0.5085940000000 1.0
C      1  0.5762030000000  0.4694820000000  0.5401670000000 1.0
C      1  0.6057800000000  0.5201610000000  0.4863150000000 1.0
C      1  0.5125350000000  0.5115680000000  0.3979660000000 1.0
C      1  0.5105690000000  0.4613750000000  0.3794660000000 1.0
C      1  0.4811620000000  0.5399310000000  0.6013410000000 1.0
C      1  0.5582230000000  0.4735400000000  0.5193480000000 1.0
C      1  0.5681460000000  0.5847130000000  0.4793450000000 1.0
C      1  0.3783520000000  0.4089900000000  0.4842790000000 1.0
C      1  0.5823500000000  0.4625190000000  0.6236600000000 1.0
C      1  0.4831930000000  0.4918730000000  0.4446340000000 1.0
C      1  0.4728380000000  0.4866930000000  0.5508980000000 1.0
C      1  0.5235450000000  0.6011780000000  0.4661710000000 1.0
C      1  0.4751530000000  0.5147130000000  0.6098810000000 1.0
C      1  0.4168570000000  0.5045370000000  0.4452370000000 1.0
C      1  0.5509870000000  0.4418780000000  0.4477790000000 1.0
C      1  0.4323830000000  0.4580590000000  0.5172730000000 1.0
C      1  0.4893610000000  0.5846550000000  0.5738510000000 1.0
C      1  0.5995410000000  0.5230740000000  0.5313690000000 1.0
C      1  0.5653920000000  0.4686300000000  0.6031920000000 1.0
C      1  0.4520410000000  0.4363210000000  0.5562410000000 1.0
C      1  0.5464610000000  0.5484560000000  0.4649790000000 1.0
C      1  0.5886190000000  0.5109400000000  0.5079600000000 1.0
C      1  0.4703490000000  0.4947340000000  0.5037690000000 1.0
C      1  0.4557440000000  0.5168760000000  0.4093590000000 1.0
C      1  0.4770350000000  0.4640100000000  0.4492940000000 1.0
C      1  0.4514320000000  0.4539370000000  0.4410230000000 1.0
C      1  0.5505350000000  0.3949060000000  0.4647650000000 1.0
C      1  0.5965160000000  0.4691620000000  0.4469270000000 1.0
C      1  0.3939890000000  0.3880890000000  0.4896530000000 1.0
C      1  0.5671120000000  0.4306250000000  0.5649280000000 1.0
C      1  0.4392760000000  0.5013220000000  0.5812330000000 1.0
C      1  0.4969030000000  0.4245370000000  0.5143880000000 1.0
C      1  0.5309380000000  0.5439980000000  0.5136940000000 1.0
C      1  0.4312320000000  0.4972190000000  0.4671480000000 1.0
C      1  0.6010250000000  0.4486200000000  0.5046150000000 1.0
C      1  0.5676030000000  0.5341610000000  0.5647020000000 1.0
C      1  0.5100240000000  0.4191750000000  0.4585490000000 1.0
C      1  0.3986130000000  0.4892340000000  0.5290970000000 1.0
C      1  0.4799830000000  0.5575790000000  0.5790020000000 1.0
C      1  0.5525560000000  0.4658110000000  0.4590530000000 1.0
C      1  0.4709080000000  0.5452390000000  0.5544850000000 1.0
C      1  0.4636190000000  0.4254470000000  0.4007350000000 1.0
C      1  0.4103470000000  0.5630420000000  0.4587870000000 1.0
C      1  0.4857530000000  0.4192730000000  0.3864680000000 1.0
C      1  0.3968980000000  0.5874240000000  0.5632860000000 1.0
C      1  0.5238000000000  0.4406280000000  0.5912030000000 1.0
C      1  0.3967970000000  0.5584460000000  0.5240460000000 1.0
C      1  0.4436080000000  0.4882590000000  0.5559730000000 1.0
C      1  0.4906500000000  0.4009090000000  0.5004370000000 1.0
C      1  0.4938290000000  0.5304590000000  0.5416680000000 1.0
C      1  0.5854580000000  0.5691090000000  0.4977080000000 1.0
C      1  0.4988010000000  0.4742500000000  0.5646540000000 1.0
C      1  0.4501150000000  0.5441010000000  0.4017780000000 1.0
C      1  0.4246610000000  0.4798930000000  0.5353410000000 1.0
C      1  0.5386030000000  0.5720540000000  0.5584730000000 1.0
C      1  0.4282810000000  0.5555850000000  0.5800990000000 1.0
C      1  0.6188160000000  0.4956630000000  0.4784650000000 1.0
C      1  0.4787320000000  0.5060170000000  0.5296490000000 1.0
C      1  0.5387020000000  0.5037540000000  0.4069760000000 1.0
C      1  0.5411120000000  0.5438280000000  0.5637610000000 1.0
C      1  0.4956670000000  0.4431580000000  0.4549870000000 1.0
C      1  0.5863420000000  0.4443230000000  0.5381700000000 1.0
C      1  0.5060250000000  0.4348140000000  0.3777120000000 1.0
C      1  0.4953190000000  0.4823200000000  0.3910190000000 1.0
C      1  0.5687190000000  0.4920760000000  0.5005420000000 1.0
C      1  0.4235900000000  0.5472300000000  0.4143290000000 1.0
C      1  0.5773200000000  0.5666520000000  0.5260490000000 1.0
C      1  0.3920930000000  0.4577200000000  0.4912590000000 1.0
C      1  0.5292720000000  0.5505380000000  0.4871860000000 1.0
C      1  0.5535630000000  0.5739240000000  0.4266800000000 1.0
C      1  0.5306030000000  0.5003050000000  0.5949380000000 1.0
C      1  0.3764970000000  0.4356450000000  0.4840960000000 1.0
C      1  0.4536390000000  0.4449650000000  0.5821330000000 1.0
C      1  0.4934690000000  0.5775440000000  0.5213940000000 1.0
C      1  0.4772740000000  0.5545850000000  0.3958990000000 1.0
C      1  0.5376270000000  0.5982800000000  0.5169580000000 1.0
C      1  0.4564330000000  0.4505130000000  0.4118450000000 1.0
C      1  0.5323570000000  0.5354270000000  0.4437020000000 1.0
C      1  0.5733060000000  0.5081120000000  0.5758870000000 1.0
C      1  0.5549100000000  0.5820980000000  0.5352170000000 1.0
C      1  0.5622530000000  0.5703080000000  0.4546700000000 1.0
C      1  0.4596280000000  0.4922280000000  0.6008310000000 1.0
C      1  0.3869380000000  0.5663260000000  0.4736350000000 1.0
C      1  0.5290900000000  0.3808610000000  0.4792770000000 1.0
C      1  0.5114370000000  0.5977730000000  0.5310680000000 1.0
C      1  0.6030600000000  0.5488820000000  0.4856690000000 1.0
C      1  0.4689750000000  0.5665940000000  0.5125070000000 1.0
END
