TITL C-627111-6168-1000 4497.98882568506 125000 -1036.58622334001 0 0 166 (C1) n - 1
REM
REM in /home/nfs/bkarasulu/CARBON/AIRSS/Generating-Clusters/LCBOP/Only-C1/SD-CG/FIRE-CG
REM
REM
REM
REM
REM
REM ./C.cell (11c1c37f851c82e70ff6c80c92926a4b)
REM AIRSS Version 0.9.1 bugfix July 2018 build 013d7b7c2542+ Fri, 06 Jul 2018 19:26:36 +0100
REM compiler GCC version 9.2.1 20190827 (Red Hat 9.2.1-1)
REM options -cpp -mtune=generic -march=x86-64 -g -O0 -fpre-include=/usr/include/finclude/math-vector-fortran.h
REM seed 1843951667 -1293245212 1790427597 -333615023 929838852 1202887850 -1960980995 1141042342 1423221588 -1759772840 1275865463 -1979839592 423363281 1344257301 1830604644 1030666933 -1122152566 772091501 -92099370 732497719 -75265734 -1460971685 -29837288 1546878124 -868926314 1077926314 -407889103 -1533722760 1437504999 -1799840680 -540873124 -1947959297 1489466459
REM
CELL 1.54180   50.00000   50.00000   50.00000   90.00000   90.00000   90.00000
LATT -1
SFAC C  
C      1  0.4922380000000  0.5780830000000  0.4217960000000 1.0
C      1  0.3951810000000  0.5161910000000  0.5670060000000 1.0
C      1  0.4981900000000  0.5335480000000  0.3945270000000 1.0
C      1  0.5710350000000  0.4667540000000  0.3939610000000 1.0
C      1  0.5080370000000  0.5354030000000  0.5680320000000 1.0
C      1  0.4772630000000  0.4611270000000  0.5581760000000 1.0
C      1  0.5587050000000  0.5197350000000  0.6104480000000 1.0
C      1  0.4655030000000  0.4751540000000  0.6250500000000 1.0
C      1  0.5034660000000  0.5717220000000  0.5264670000000 1.0
C      1  0.4473980000000  0.5682230000000  0.4391400000000 1.0
C      1  0.5227510000000  0.4806640000000  0.4266250000000 1.0
C      1  0.5527910000000  0.4912060000000  0.5091770000000 1.0
C      1  0.5479650000000  0.5895540000000  0.4873380000000 1.0
C      1  0.5667220000000  0.5114030000000  0.4347810000000 1.0
C      1  0.5952260000000  0.5580810000000  0.4732190000000 1.0
C      1  0.4058940000000  0.4800700000000  0.4226010000000 1.0
C      1  0.4059980000000  0.4659480000000  0.5141800000000 1.0
C      1  0.5178030000000  0.4431210000000  0.4948250000000 1.0
C      1  0.5325830000000  0.6059210000000  0.4241820000000 1.0
C      1  0.6067020000000  0.4643150000000  0.4619060000000 1.0
C      1  0.4166470000000  0.4903240000000  0.5244470000000 1.0
C      1  0.4594870000000  0.5618590000000  0.5359280000000 1.0
C      1  0.6256930000000  0.5145080000000  0.4677500000000 1.0
C      1  0.4634610000000  0.3908200000000  0.5489760000000 1.0
C      1  0.5048080000000  0.4734520000000  0.4477040000000 1.0
C      1  0.3938740000000  0.3793510000000  0.5178370000000 1.0
C      1  0.5199820000000  0.5283510000000  0.5169210000000 1.0
C      1  0.4143760000000  0.4719460000000  0.6068370000000 1.0
C      1  0.4636360000000  0.6177420000000  0.5063160000000 1.0
C      1  0.5128880000000  0.4678330000000  0.4016000000000 1.0
C      1  0.4614860000000  0.4331180000000  0.4261500000000 1.0
C      1  0.4356470000000  0.4885680000000  0.5456320000000 1.0
C      1  0.5643800000000  0.5792640000000  0.5091910000000 1.0
C      1  0.5746300000000  0.4573960000000  0.5345830000000 1.0
C      1  0.3960030000000  0.5391880000000  0.5482420000000 1.0
C      1  0.3979790000000  0.4170500000000  0.4873100000000 1.0
C      1  0.4769920000000  0.4960010000000  0.5049040000000 1.0
C      1  0.4580700000000  0.4855290000000  0.4627380000000 1.0
C      1  0.5611120000000  0.4316600000000  0.4280420000000 1.0
C      1  0.5560720000000  0.4911420000000  0.3945880000000 1.0
C      1  0.5366460000000  0.4272090000000  0.4135400000000 1.0
C      1  0.4799140000000  0.5996900000000  0.5598710000000 1.0
C      1  0.4833180000000  0.6245540000000  0.5493570000000 1.0
C      1  0.4655730000000  0.4289660000000  0.5246820000000 1.0
C      1  0.5583120000000  0.6126320000000  0.4205620000000 1.0
C      1  0.5315790000000  0.5499330000000  0.5775860000000 1.0
C      1  0.4832960000000  0.5213860000000  0.4153350000000 1.0
C      1  0.4850620000000  0.4384720000000  0.5432460000000 1.0
C      1  0.4852010000000  0.5170370000000  0.4425560000000 1.0
C      1  0.5433770000000  0.5401720000000  0.6017220000000 1.0
C      1  0.5170580000000  0.5207170000000  0.5444820000000 1.0
C      1  0.4110060000000  0.5656630000000  0.5450410000000 1.0
C      1  0.4942480000000  0.5618620000000  0.3980570000000 1.0
C      1  0.4043590000000  0.4554820000000  0.5876660000000 1.0
C      1  0.4178040000000  0.4199590000000  0.5316280000000 1.0
C      1  0.4574890000000  0.4347190000000  0.4773370000000 1.0
C      1  0.4367300000000  0.5745420000000  0.4958460000000 1.0
C      1  0.5093980000000  0.4296640000000  0.4720530000000 1.0
C      1  0.6225270000000  0.4876720000000  0.4685030000000 1.0
C      1  0.3843980000000  0.4893310000000  0.5600370000000 1.0
C      1  0.5735900000000  0.5536410000000  0.4020110000000 1.0
C      1  0.4192210000000  0.5131150000000  0.5832310000000 1.0
C      1  0.5650930000000  0.5065370000000  0.5549930000000 1.0
C      1  0.5171730000000  0.5841900000000  0.4329220000000 1.0
C      1  0.5450410000000  0.5229610000000  0.4755440000000 1.0
C      1  0.4031300000000  0.4399950000000  0.4718110000000 1.0
C      1  0.5104490000000  0.4015740000000  0.4740250000000 1.0
C      1  0.4619360000000  0.5196240000000  0.5103350000000 1.0
C      1  0.4146920000000  0.5275950000000  0.4407140000000 1.0
C      1  0.5497030000000  0.5744710000000  0.4646280000000 1.0
C      1  0.4054350000000  0.4999490000000  0.4429520000000 1.0
C      1  0.5972350000000  0.5440710000000  0.5460000000000 1.0
C      1  0.4310560000000  0.5488610000000  0.4518710000000 1.0
C      1  0.5799930000000  0.5966830000000  0.4222700000000 1.0
C      1  0.5123180000000  0.4038520000000  0.5491910000000 1.0
C      1  0.4588410000000  0.5944810000000  0.4901400000000 1.0
C      1  0.5156930000000  0.5144110000000  0.3809300000000 1.0
C      1  0.4826970000000  0.5270920000000  0.5794200000000 1.0
C      1  0.5006810000000  0.4452250000000  0.4506580000000 1.0
C      1  0.4189900000000  0.4390560000000  0.4482260000000 1.0
C      1  0.4420220000000  0.4462720000000  0.4089400000000 1.0
C      1  0.4871110000000  0.6251310000000  0.5211730000000 1.0
C      1  0.4176830000000  0.4543150000000  0.4229560000000 1.0
C      1  0.5877010000000  0.5630790000000  0.5010480000000 1.0
C      1  0.5915610000000  0.4662550000000  0.5091150000000 1.0
C      1  0.5791670000000  0.5684720000000  0.4254690000000 1.0
C      1  0.4897100000000  0.4339220000000  0.4262130000000 1.0
C      1  0.5239060000000  0.5915870000000  0.5294660000000 1.0
C      1  0.5367720000000  0.5025580000000  0.5525450000000 1.0
C      1  0.4468380000000  0.4308410000000  0.4517470000000 1.0
C      1  0.5939590000000  0.4509260000000  0.4842990000000 1.0
C      1  0.5608750000000  0.5303730000000  0.4539960000000 1.0
C      1  0.5443180000000  0.4584540000000  0.5913870000000 1.0
C      1  0.4622230000000  0.4458900000000  0.5023190000000 1.0
C      1  0.4461580000000  0.4109140000000  0.5352150000000 1.0
C      1  0.6086970000000  0.4879590000000  0.4210540000000 1.0
C      1  0.5763320000000  0.4786150000000  0.5597590000000 1.0
C      1  0.4665010000000  0.4484500000000  0.6256520000000 1.0
C      1  0.4940970000000  0.4671000000000  0.5794920000000 1.0
C      1  0.5663500000000  0.4230150000000  0.4546860000000 1.0
C      1  0.4352990000000  0.5490620000000  0.4803610000000 1.0
C      1  0.5176870000000  0.4611750000000  0.5906670000000 1.0
C      1  0.5979120000000  0.5425180000000  0.5180330000000 1.0
C      1  0.5063040000000  0.4867540000000  0.3813950000000 1.0
C      1  0.4128880000000  0.5148770000000  0.5111080000000 1.0
C      1  0.4724180000000  0.5817670000000  0.4428340000000 1.0
C      1  0.4555330000000  0.4990450000000  0.6134630000000 1.0
C      1  0.6003810000000  0.4633860000000  0.4333320000000 1.0
C      1  0.5011340000000  0.3756050000000  0.5141140000000 1.0
C      1  0.5462750000000  0.4663000000000  0.5236150000000 1.0
C      1  0.3916170000000  0.5576480000000  0.5045450000000 1.0
C      1  0.5674830000000  0.4139130000000  0.5048940000000 1.0
C      1  0.5072760000000  0.5537720000000  0.4753850000000 1.0
C      1  0.5470630000000  0.4947240000000  0.4227100000000 1.0
C      1  0.3950440000000  0.4613260000000  0.5612960000000 1.0
C      1  0.4625450000000  0.5232060000000  0.5599750000000 1.0
C      1  0.5598060000000  0.5385530000000  0.3846720000000 1.0
C      1  0.5205400000000  0.3866340000000  0.4960200000000 1.0
C      1  0.4597510000000  0.3893690000000  0.5770580000000 1.0
C      1  0.5261780000000  0.4468740000000  0.5211860000000 1.0
C      1  0.5702880000000  0.4958670000000  0.6054070000000 1.0
C      1  0.5111160000000  0.4393400000000  0.4069390000000 1.0
C      1  0.5122210000000  0.4311060000000  0.5405760000000 1.0
C      1  0.4025570000000  0.4653180000000  0.4852560000000 1.0
C      1  0.5495930000000  0.5782040000000  0.5347400000000 1.0
C      1  0.5085420000000  0.5521440000000  0.5055560000000 1.0
C      1  0.4826120000000  0.4905330000000  0.4511800000000 1.0
C      1  0.5133360000000  0.6023220000000  0.4856050000000 1.0
C      1  0.5678720000000  0.4736070000000  0.5875230000000 1.0
C      1  0.4650620000000  0.4721430000000  0.5132970000000 1.0
C      1  0.4844840000000  0.5356070000000  0.6272380000000 1.0
C      1  0.4814590000000  0.5924290000000  0.4704900000000 1.0
C      1  0.5794320000000  0.4510710000000  0.4173280000000 1.0
C      1  0.4607040000000  0.4027110000000  0.6001990000000 1.0
C      1  0.5448720000000  0.5148630000000  0.3814200000000 1.0
C      1  0.5720760000000  0.5352270000000  0.5552830000000 1.0
C      1  0.4369010000000  0.5221210000000  0.4938850000000 1.0
C      1  0.4367320000000  0.4981880000000  0.4752450000000 1.0
C      1  0.3926790000000  0.5327260000000  0.5194650000000 1.0
C      1  0.4744660000000  0.5204010000000  0.6065520000000 1.0
C      1  0.4638340000000  0.4234700000000  0.6166560000000 1.0
C      1  0.4583710000000  0.4735490000000  0.5411950000000 1.0
C      1  0.4105230000000  0.4882080000000  0.4692230000000 1.0
C      1  0.4898880000000  0.5360330000000  0.4621930000000 1.0
C      1  0.4140200000000  0.5739920000000  0.5155600000000 1.0
C      1  0.5815600000000  0.4931530000000  0.5054710000000 1.0
C      1  0.5012560000000  0.4937310000000  0.4934460000000 1.0
C      1  0.4396420000000  0.5087860000000  0.5642620000000 1.0
C      1  0.5238900000000  0.5685130000000  0.4558190000000 1.0
C      1  0.5739520000000  0.4271130000000  0.5300650000000 1.0
C      1  0.5381270000000  0.5135600000000  0.5007890000000 1.0
C      1  0.5723770000000  0.5586300000000  0.4533230000000 1.0
C      1  0.5930640000000  0.5097350000000  0.4243120000000 1.0
C      1  0.5768450000000  0.4276980000000  0.4808000000000 1.0
C      1  0.5964940000000  0.5162380000000  0.5081240000000 1.0
C      1  0.5119420000000  0.6130880000000  0.5121950000000 1.0
C      1  0.4028490000000  0.4045090000000  0.5121750000000 1.0
C      1  0.6167250000000  0.5399990000000  0.4677330000000 1.0
C      1  0.4625850000000  0.5344960000000  0.5343400000000 1.0
C      1  0.4913920000000  0.3862000000000  0.5388640000000 1.0
C      1  0.4048740000000  0.4468580000000  0.5367340000000 1.0
C      1  0.6175590000000  0.5525780000000  0.5618430000000 1.0
C      1  0.5514150000000  0.5566930000000  0.5564130000000 1.0
C      1  0.4272020000000  0.4975100000000  0.6059600000000 1.0
C      1  0.4810630000000  0.5772270000000  0.5427340000000 1.0
C      1  0.5474880000000  0.3935000000000  0.5032740000000 1.0
END
