TITL C-627110-360-885 -9.19591583306318e-07 125000 -638.061267218798 0 0 105 (C1) n - 1
REM
REM in /home/nfs/bkarasulu/CARBON/AIRSS/Generating-Clusters/LCBOP/Only-C1/SD-CG/FIRE-CG
REM
REM
REM
REM
REM
REM ./C.cell (11c1c37f851c82e70ff6c80c92926a4b)
REM AIRSS Version 0.9.1 bugfix July 2018 build 013d7b7c2542+ Fri, 06 Jul 2018 19:26:36 +0100
REM compiler GCC version 9.2.1 20190827 (Red Hat 9.2.1-1)
REM options -cpp -mtune=generic -march=x86-64 -g -O0 -fpre-include=/usr/include/finclude/math-vector-fortran.h
REM seed -661590766 2014710461 -1147511310 1339847804 501807432 -958556564 -1148916887 98813650 -1778767625 -992751624 -398224559 -782614887 -1109847741 893805345 1113345584 -959995707 -147099727 -270520972 1628478424 -429322026 -1495407538 -729869418 -348728130 -1822402384 -96892585 1141403355 2001571650 1047511457 -1400782518 1985861250 1532784868 -2082775208 -2092480724
REM
CELL 1.54180   50.00000   50.00000   50.00000   90.00000   90.00000   90.00000
LATT -1
SFAC C  
C      1  0.4932790000000  0.4618340000000  0.4697200000000 1.0
C      1  0.4349640000000  0.5199340000000  0.4141990000000 1.0
C      1  0.5816990000000  0.5063650000000  0.4342310000000 1.0
C      1  0.4513370000000  0.4858740000000  0.5592870000000 1.0
C      1  0.5755250000000  0.5442120000000  0.4951690000000 1.0
C      1  0.5489950000000  0.3973010000000  0.4938460000000 1.0
C      1  0.4767390000000  0.5713550000000  0.4443110000000 1.0
C      1  0.4398760000000  0.5562110000000  0.5296410000000 1.0
C      1  0.4721710000000  0.4973550000000  0.4339930000000 1.0
C      1  0.5458140000000  0.4272910000000  0.4563370000000 1.0
C      1  0.4856690000000  0.5204070000000  0.4833750000000 1.0
C      1  0.4445340000000  0.4953400000000  0.4240500000000 1.0
C      1  0.4436330000000  0.6029250000000  0.5295570000000 1.0
C      1  0.4979280000000  0.5674940000000  0.5894260000000 1.0
C      1  0.4925310000000  0.4518840000000  0.4213020000000 1.0
C      1  0.5529420000000  0.4528260000000  0.4462750000000 1.0
C      1  0.4099910000000  0.4546280000000  0.5060000000000 1.0
C      1  0.4586980000000  0.5436110000000  0.6068610000000 1.0
C      1  0.5275200000000  0.5004520000000  0.5116710000000 1.0
C      1  0.5582150000000  0.5546710000000  0.4774660000000 1.0
C      1  0.4379940000000  0.4966930000000  0.6201860000000 1.0
C      1  0.4699830000000  0.5634260000000  0.5902970000000 1.0
C      1  0.6075500000000  0.3955350000000  0.4795580000000 1.0
C      1  0.5420620000000  0.5546780000000  0.5643420000000 1.0
C      1  0.5104500000000  0.5092230000000  0.4912220000000 1.0
C      1  0.5128700000000  0.4792610000000  0.4578300000000 1.0
C      1  0.5291280000000  0.4727390000000  0.5196260000000 1.0
C      1  0.4374970000000  0.4333950000000  0.5805490000000 1.0
C      1  0.5076560000000  0.4404750000000  0.4819620000000 1.0
C      1  0.4696140000000  0.5560970000000  0.4199230000000 1.0
C      1  0.4186670000000  0.4717760000000  0.5265170000000 1.0
C      1  0.5057520000000  0.5149200000000  0.5638590000000 1.0
C      1  0.5249000000000  0.5578950000000  0.4393850000000 1.0
C      1  0.5637200000000  0.4715580000000  0.5535860000000 1.0
C      1  0.4024210000000  0.5181480000000  0.5066530000000 1.0
C      1  0.5076320000000  0.4915330000000  0.3988730000000 1.0
C      1  0.4482350000000  0.4391670000000  0.5548430000000 1.0
C      1  0.5853370000000  0.4977190000000  0.5895210000000 1.0
C      1  0.4517590000000  0.4867130000000  0.4752540000000 1.0
C      1  0.4903220000000  0.4805820000000  0.4181390000000 1.0
C      1  0.4307480000000  0.4743040000000  0.4378330000000 1.0
C      1  0.6009670000000  0.4403390000000  0.4630330000000 1.0
C      1  0.4499050000000  0.5777520000000  0.4874350000000 1.0
C      1  0.4703560000000  0.5065090000000  0.4634980000000 1.0
C      1  0.5491220000000  0.5483280000000  0.4514970000000 1.0
C      1  0.5043750000000  0.5741460000000  0.4521400000000 1.0
C      1  0.5033540000000  0.3958180000000  0.5201940000000 1.0
C      1  0.4749450000000  0.4297230000000  0.5490170000000 1.0
C      1  0.4830230000000  0.4086290000000  0.5321690000000 1.0
C      1  0.5813890000000  0.4821930000000  0.5333570000000 1.0
C      1  0.4520160000000  0.5541280000000  0.5039090000000 1.0
C      1  0.4462570000000  0.6016280000000  0.5023710000000 1.0
C      1  0.4127480000000  0.4567370000000  0.4782640000000 1.0
C      1  0.5899520000000  0.5206980000000  0.5017900000000 1.0
C      1  0.5883570000000  0.5094530000000  0.5280030000000 1.0
C      1  0.5393250000000  0.5209050000000  0.5275630000000 1.0
C      1  0.4942190000000  0.5477110000000  0.5231900000000 1.0
C      1  0.4109380000000  0.5457520000000  0.4627250000000 1.0
C      1  0.5217790000000  0.4498950000000  0.5045230000000 1.0
C      1  0.5959880000000  0.4932180000000  0.4554430000000 1.0
C      1  0.4238830000000  0.4820590000000  0.4662480000000 1.0
C      1  0.4324000000000  0.4475130000000  0.6028720000000 1.0
C      1  0.5623250000000  0.4121470000000  0.4737480000000 1.0
C      1  0.4316110000000  0.5567390000000  0.4473250000000 1.0
C      1  0.5807070000000  0.5268750000000  0.5499150000000 1.0
C      1  0.5538030000000  0.5360230000000  0.5469050000000 1.0
C      1  0.5228350000000  0.5649590000000  0.5799160000000 1.0
C      1  0.5905970000000  0.4157560000000  0.4723070000000 1.0
C      1  0.5013080000000  0.4895840000000  0.5785720000000 1.0
C      1  0.5273330000000  0.3920580000000  0.5087930000000 1.0
C      1  0.4522660000000  0.5731690000000  0.4599300000000 1.0
C      1  0.4535920000000  0.5767590000000  0.5716070000000 1.0
C      1  0.5108100000000  0.4912250000000  0.6070180000000 1.0
C      1  0.4458090000000  0.4486810000000  0.4461440000000 1.0
C      1  0.5022440000000  0.4301540000000  0.4346450000000 1.0
C      1  0.4245980000000  0.4355300000000  0.4618030000000 1.0
C      1  0.4961400000000  0.5323490000000  0.5462610000000 1.0
C      1  0.6024710000000  0.4657720000000  0.4549950000000 1.0
C      1  0.5727790000000  0.4756180000000  0.5801300000000 1.0
C      1  0.4018330000000  0.5329800000000  0.4843990000000 1.0
C      1  0.5113120000000  0.5904880000000  0.4737860000000 1.0
C      1  0.5171930000000  0.5491840000000  0.4134150000000 1.0
C      1  0.5784540000000  0.4948350000000  0.4087450000000 1.0
C      1  0.5901790000000  0.5205990000000  0.5758290000000 1.0
C      1  0.4327890000000  0.4707740000000  0.6161230000000 1.0
C      1  0.4761160000000  0.5396570000000  0.5022710000000 1.0
C      1  0.5134960000000  0.4657580000000  0.5644550000000 1.0
C      1  0.5173390000000  0.4252650000000  0.4588290000000 1.0
C      1  0.4426570000000  0.5456460000000  0.4228270000000 1.0
C      1  0.4713820000000  0.4879760000000  0.5767630000000 1.0
C      1  0.5657100000000  0.5293090000000  0.4386850000000 1.0
C      1  0.4471870000000  0.5215230000000  0.6164990000000 1.0
C      1  0.4916850000000  0.5486700000000  0.4041930000000 1.0
C      1  0.4392100000000  0.4648820000000  0.5448870000000 1.0
C      1  0.5134720000000  0.5895330000000  0.5003670000000 1.0
C      1  0.5361110000000  0.4684260000000  0.5471570000000 1.0
C      1  0.4963340000000  0.4435210000000  0.5615330000000 1.0
C      1  0.5380420000000  0.4752810000000  0.4488410000000 1.0
C      1  0.5320190000000  0.4923960000000  0.3881330000000 1.0
C      1  0.4654220000000  0.4608910000000  0.4663560000000 1.0
C      1  0.5075630000000  0.5721020000000  0.5196840000000 1.0
C      1  0.4432180000000  0.5795050000000  0.5458170000000 1.0
C      1  0.5585000000000  0.4914530000000  0.3912360000000 1.0
C      1  0.4097330000000  0.4985190000000  0.5233420000000 1.0
C      1  0.6001600000000  0.5064880000000  0.4798970000000 1.0
END
