TITL C-627106-156-728 0.169543917602558 125000 -1161.65258793044 0 0 188 (C1) n - 1
REM
REM in /home/nfs/bkarasulu/CARBON/AIRSS/Generating-Clusters/LCBOP/Only-C1/SD-CG/FIRE-CG
REM
REM
REM
REM
REM
REM ./C.cell (11c1c37f851c82e70ff6c80c92926a4b)
REM AIRSS Version 0.9.1 bugfix July 2018 build 013d7b7c2542+ Fri, 06 Jul 2018 19:26:36 +0100
REM compiler GCC version 9.2.1 20190827 (Red Hat 9.2.1-1)
REM options -cpp -mtune=generic -march=x86-64 -g -O0 -fpre-include=/usr/include/finclude/math-vector-fortran.h
REM seed 1388904360 1931526782 1855403869 -155308125 -529166188 -483260542 102063054 -896040107 787858755 -618172786 -526505085 517449542 1154308701 -607129240 1152220311 1764898803 -496194866 -2122477655 895394528 -495350250 1561945680 255849126 -771919644 -2007450011 -1157680406 -2116476123 -1436372022 1704569196 1098282600 -1955795910 1417734971 -1434814630 -1011227430
REM
CELL 1.54180   50.00000   50.00000   50.00000   90.00000   90.00000   90.00000
LATT -1
SFAC C  
C      1  0.6025720000000  0.4175010000000  0.5266890000000 1.0
C      1  0.5997680000000  0.4413570000000  0.4836260000000 1.0
C      1  0.4903100000000  0.3792850000000  0.5208290000000 1.0
C      1  0.5120090000000  0.4994450000000  0.4816980000000 1.0
C      1  0.3735600000000  0.6223280000000  0.3994340000000 1.0
C      1  0.4316310000000  0.5814200000000  0.4379490000000 1.0
C      1  0.4975320000000  0.5525330000000  0.6025850000000 1.0
C      1  0.4952430000000  0.5804570000000  0.5030360000000 1.0
C      1  0.5097030000000  0.5967510000000  0.5691610000000 1.0
C      1  0.5417790000000  0.5207280000000  0.5164550000000 1.0
C      1  0.5367570000000  0.3809620000000  0.4729800000000 1.0
C      1  0.5527490000000  0.5302090000000  0.4012700000000 1.0
C      1  0.5477570000000  0.4063740000000  0.5549760000000 1.0
C      1  0.5245610000000  0.5192110000000  0.5769470000000 1.0
C      1  0.5854440000000  0.4501910000000  0.4594770000000 1.0
C      1  0.4069870000000  0.3934630000000  0.4647650000000 1.0
C      1  0.3839650000000  0.5779300000000  0.6052600000000 1.0
C      1  0.4519750000000  0.5580320000000  0.5567240000000 1.0
C      1  0.5027130000000  0.4180100000000  0.5763790000000 1.0
C      1  0.5758290000000  0.4972380000000  0.4426600000000 1.0
C      1  0.4650590000000  0.6156470000000  0.4583910000000 1.0
C      1  0.5143660000000  0.4939300000000  0.3958690000000 1.0
C      1  0.6908810000000  0.4936020000000  0.4996370000000 1.0
C      1  0.4927650000000  0.3842720000000  0.4114660000000 1.0
C      1  0.5640560000000  0.5707060000000  0.4460760000000 1.0
C      1  0.4812330000000  0.3610060000000  0.5388720000000 1.0
C      1  0.5246640000000  0.5700150000000  0.4139100000000 1.0
C      1  0.4658500000000  0.3453940000000  0.4242380000000 1.0
C      1  0.3993940000000  0.4967920000000  0.4858790000000 1.0
C      1  0.4845560000000  0.4804890000000  0.4432780000000 1.0
C      1  0.5362560000000  0.6194700000000  0.5214840000000 1.0
C      1  0.4387890000000  0.4312240000000  0.4776410000000 1.0
C      1  0.4712730000000  0.4569310000000  0.5871400000000 1.0
C      1  0.6665140000000  0.4866580000000  0.5073980000000 1.0
C      1  0.4610580000000  0.5516990000000  0.4879500000000 1.0
C      1  0.4707550000000  0.5851480000000  0.5193250000000 1.0
C      1  0.5453330000000  0.5936890000000  0.5326420000000 1.0
C      1  0.5957650000000  0.5014510000000  0.5590300000000 1.0
C      1  0.5820070000000  0.5430890000000  0.4865000000000 1.0
C      1  0.4637110000000  0.3198330000000  0.4288420000000 1.0
C      1  0.4373450000000  0.5129520000000  0.5599840000000 1.0
C      1  0.5251770000000  0.6401940000000  0.5371640000000 1.0
C      1  0.4514910000000  0.4414140000000  0.5714950000000 1.0
C      1  0.4115010000000  0.5951380000000  0.4235990000000 1.0
C      1  0.5772460000000  0.4784950000000  0.4633560000000 1.0
C      1  0.3715790000000  0.5780920000000  0.5817110000000 1.0
C      1  0.3750660000000  0.4270720000000  0.4848430000000 1.0
C      1  0.4898170000000  0.5095280000000  0.3934020000000 1.0
C      1  0.4244820000000  0.3864230000000  0.4450820000000 1.0
C      1  0.5022360000000  0.5266110000000  0.5923940000000 1.0
C      1  0.3881140000000  0.5645550000000  0.5335780000000 1.0
C      1  0.5764270000000  0.4654060000000  0.5847350000000 1.0
C      1  0.3904030000000  0.5814900000000  0.5114820000000 1.0
C      1  0.5413340000000  0.5554290000000  0.3963530000000 1.0
C      1  0.5617380000000  0.5784430000000  0.5134120000000 1.0
C      1  0.3947840000000  0.4937400000000  0.6034560000000 1.0
C      1  0.4809520000000  0.4535270000000  0.4366470000000 1.0
C      1  0.5700020000000  0.4680360000000  0.5086420000000 1.0
C      1  0.5457080000000  0.5345500000000  0.5672670000000 1.0
C      1  0.5974900000000  0.5459350000000  0.5320230000000 1.0
C      1  0.4901760000000  0.5355060000000  0.5430350000000 1.0
C      1  0.4791520000000  0.5126410000000  0.5840110000000 1.0
C      1  0.5115330000000  0.5569570000000  0.5428940000000 1.0
C      1  0.4875420000000  0.6298230000000  0.4694900000000 1.0
C      1  0.5586170000000  0.3817910000000  0.5485920000000 1.0
C      1  0.4641580000000  0.4973160000000  0.3949290000000 1.0
C      1  0.4826280000000  0.5889880000000  0.5730670000000 1.0
C      1  0.4802630000000  0.5691700000000  0.4334750000000 1.0
C      1  0.3730220000000  0.5724790000000  0.5557650000000 1.0
C      1  0.5242900000000  0.4576100000000  0.5044600000000 1.0
C      1  0.5188240000000  0.4315050000000  0.4619170000000 1.0
C      1  0.5350410000000  0.4181880000000  0.4105870000000 1.0
C      1  0.7392250000000  0.5073830000000  0.4842360000000 1.0
C      1  0.5357240000000  0.5067880000000  0.4136250000000 1.0
C      1  0.4368220000000  0.4316380000000  0.5504560000000 1.0
C      1  0.4887900000000  0.3755180000000  0.4919230000000 1.0
C      1  0.4562540000000  0.4400480000000  0.4339380000000 1.0
C      1  0.3923910000000  0.6088630000000  0.4114210000000 1.0
C      1  0.5022870000000  0.4534650000000  0.5457840000000 1.0
C      1  0.5595370000000  0.4808850000000  0.4852040000000 1.0
C      1  0.4313730000000  0.4660560000000  0.5197250000000 1.0
C      1  0.5135750000000  0.5142940000000  0.5068080000000 1.0
C      1  0.5362800000000  0.5809360000000  0.4387910000000 1.0
C      1  0.5127520000000  0.4334120000000  0.4902280000000 1.0
C      1  0.4333370000000  0.5906010000000  0.4855970000000 1.0
C      1  0.4475590000000  0.5304890000000  0.4426190000000 1.0
C      1  0.5219690000000  0.4953210000000  0.5630060000000 1.0
C      1  0.4355360000000  0.4453050000000  0.4530850000000 1.0
C      1  0.5170950000000  0.4686390000000  0.5645270000000 1.0
C      1  0.4826400000000  0.4387630000000  0.4912060000000 1.0
C      1  0.5315170000000  0.6229270000000  0.4932290000000 1.0
C      1  0.5561480000000  0.5250150000000  0.5420510000000 1.0
C      1  0.4532120000000  0.4785990000000  0.5073340000000 1.0
C      1  0.5857560000000  0.5605500000000  0.5104330000000 1.0
C      1  0.4885900000000  0.6615720000000  0.5109710000000 1.0
C      1  0.4971650000000  0.5615320000000  0.4121810000000 1.0
C      1  0.5206290000000  0.5166560000000  0.4385200000000 1.0
C      1  0.4767640000000  0.4631580000000  0.5055800000000 1.0
C      1  0.4116730000000  0.5175590000000  0.5479910000000 1.0
C      1  0.4508590000000  0.5749030000000  0.5010640000000 1.0
C      1  0.3985740000000  0.4114940000000  0.4857220000000 1.0
C      1  0.5851840000000  0.5229780000000  0.5435430000000 1.0
C      1  0.4795810000000  0.5565070000000  0.4621370000000 1.0
C      1  0.4512850000000  0.4171710000000  0.4187550000000 1.0
C      1  0.5460840000000  0.5739040000000  0.4891300000000 1.0
C      1  0.5509890000000  0.4570140000000  0.5953190000000 1.0
C      1  0.4178430000000  0.4646220000000  0.4432610000000 1.0
C      1  0.4069580000000  0.5930370000000  0.4941220000000 1.0
C      1  0.5582030000000  0.4297400000000  0.5408840000000 1.0
C      1  0.4212450000000  0.5034580000000  0.6054210000000 1.0
C      1  0.4057600000000  0.5704150000000  0.6185510000000 1.0
C      1  0.3800070000000  0.4784090000000  0.4873190000000 1.0
C      1  0.5847260000000  0.5125350000000  0.6061250000000 1.0
C      1  0.5850700000000  0.4935910000000  0.5855170000000 1.0
C      1  0.4365910000000  0.5538580000000  0.4289260000000 1.0
C      1  0.5839580000000  0.5247740000000  0.4387020000000 1.0
C      1  0.5034050000000  0.4377060000000  0.4411060000000 1.0
C      1  0.5698250000000  0.4383730000000  0.4378800000000 1.0
C      1  0.5287680000000  0.4064220000000  0.5762750000000 1.0
C      1  0.4534190000000  0.5696540000000  0.6104050000000 1.0
C      1  0.3702310000000  0.4535140000000  0.4860620000000 1.0
C      1  0.4975440000000  0.4245110000000  0.5484130000000 1.0
C      1  0.4826120000000  0.6515720000000  0.4868460000000 1.0
C      1  0.4649300000000  0.5261640000000  0.5011890000000 1.0
C      1  0.4203590000000  0.4250630000000  0.4991030000000 1.0
C      1  0.6052280000000  0.4179300000000  0.4992900000000 1.0
C      1  0.5419890000000  0.3951230000000  0.4970850000000 1.0
C      1  0.4302390000000  0.5098360000000  0.4504940000000 1.0
C      1  0.5227530000000  0.4567750000000  0.5898900000000 1.0
C      1  0.4412760000000  0.4905440000000  0.4075070000000 1.0
C      1  0.5546460000000  0.4132710000000  0.4325800000000 1.0
C      1  0.5575320000000  0.4868820000000  0.4225490000000 1.0
C      1  0.4969680000000  0.5052590000000  0.4541900000000 1.0
C      1  0.5929790000000  0.4542020000000  0.5622760000000 1.0
C      1  0.5126350000000  0.5628170000000  0.5152750000000 1.0
C      1  0.5051260000000  0.6573230000000  0.5316850000000 1.0
C      1  0.5313620000000  0.4787180000000  0.4843780000000 1.0
C      1  0.5763900000000  0.5381730000000  0.6054570000000 1.0
C      1  0.5305470000000  0.5382270000000  0.4536940000000 1.0
C      1  0.5113700000000  0.3677290000000  0.4756850000000 1.0
C      1  0.5173000000000  0.5924080000000  0.4585730000000 1.0
C      1  0.5572750000000  0.4585270000000  0.4192010000000 1.0
C      1  0.4466060000000  0.3905740000000  0.4271920000000 1.0
C      1  0.5497580000000  0.4505020000000  0.5213560000000 1.0
C      1  0.4668700000000  0.5817120000000  0.5488830000000 1.0
C      1  0.4478260000000  0.5040420000000  0.4958190000000 1.0
C      1  0.4038580000000  0.5413020000000  0.5353320000000 1.0
C      1  0.4297780000000  0.5559420000000  0.6174650000000 1.0
C      1  0.6421360000000  0.4797620000000  0.5151160000000 1.0
C      1  0.5147290000000  0.6186930000000  0.4703480000000 1.0
C      1  0.4700810000000  0.3929230000000  0.4799770000000 1.0
C      1  0.5362110000000  0.4464870000000  0.4029540000000 1.0
C      1  0.4683520000000  0.3729530000000  0.4209490000000 1.0
C      1  0.4278260000000  0.5277160000000  0.6183520000000 1.0
C      1  0.5140040000000  0.3998380000000  0.4060250000000 1.0
C      1  0.3905040000000  0.5002550000000  0.5558900000000 1.0
C      1  0.4911650000000  0.5380510000000  0.3968010000000 1.0
C      1  0.4886690000000  0.5227810000000  0.5173340000000 1.0
C      1  0.4642100000000  0.4201940000000  0.4819550000000 1.0
C      1  0.6060800000000  0.4766250000000  0.5484950000000 1.0
C      1  0.5389170000000  0.5483310000000  0.4779690000000 1.0
C      1  0.4641720000000  0.5300560000000  0.5602280000000 1.0
C      1  0.5814510000000  0.5478650000000  0.4569480000000 1.0
C      1  0.4293150000000  0.5491470000000  0.4024880000000 1.0
C      1  0.5974350000000  0.4620320000000  0.5046110000000 1.0
C      1  0.4383330000000  0.4952860000000  0.5839200000000 1.0
C      1  0.4265070000000  0.4384900000000  0.5243830000000 1.0
C      1  0.5559410000000  0.5305670000000  0.4932110000000 1.0
C      1  0.4262460000000  0.4889700000000  0.4316470000000 1.0
C      1  0.5499440000000  0.3911750000000  0.4499530000000 1.0
C      1  0.4432760000000  0.5969320000000  0.4595120000000 1.0
C      1  0.6162550000000  0.4729520000000  0.5224500000000 1.0
C      1  0.5215480000000  0.4113200000000  0.5077210000000 1.0
C      1  0.4981990000000  0.5767040000000  0.4746060000000 1.0
C      1  0.4973330000000  0.4416910000000  0.5934850000000 1.0
C      1  0.4781080000000  0.5728520000000  0.5971650000000 1.0
C      1  0.7152540000000  0.5005500000000  0.4918720000000 1.0
C      1  0.3816520000000  0.4916010000000  0.5798750000000 1.0
C      1  0.5264810000000  0.5807900000000  0.5527100000000 1.0
C      1  0.4755140000000  0.5279660000000  0.4518610000000 1.0
C      1  0.5025450000000  0.4043720000000  0.5279480000000 1.0
C      1  0.5005670000000  0.4655280000000  0.5208850000000 1.0
C      1  0.5189000000000  0.4658540000000  0.3911530000000 1.0
C      1  0.5867030000000  0.4317350000000  0.5459410000000 1.0
C      1  0.4656870000000  0.4865340000000  0.5883690000000 1.0
C      1  0.5796560000000  0.5312350000000  0.4110890000000 1.0
C      1  0.4250620000000  0.5055540000000  0.4781830000000 1.0
C      1  0.5608450000000  0.5489840000000  0.5862040000000 1.0
END
