TITL C-627109-622-328 -4.99938505450192e-07 125000 -776.981050296886 0 0 127 (C1) n - 1
REM
REM in /home/nfs/bkarasulu/CARBON/AIRSS/Generating-Clusters/LCBOP/Only-C1/SD-CG/FIRE-CG
REM
REM
REM
REM
REM
REM ./C.cell (11c1c37f851c82e70ff6c80c92926a4b)
REM AIRSS Version 0.9.1 bugfix July 2018 build 013d7b7c2542+ Fri, 06 Jul 2018 19:26:36 +0100
REM compiler GCC version 9.2.1 20190827 (Red Hat 9.2.1-1)
REM options -cpp -mtune=generic -march=x86-64 -g -O0 -fpre-include=/usr/include/finclude/math-vector-fortran.h
REM seed -2082934314 -1325026556 -356768132 -416422520 -542880252 1958178068 -1294672039 -1015470685 -1172295627 -606865307 449592826 1473858209 -404405673 -241834157 1474162472 -1599109074 -916689589 -1649011045 -843687733 -2119684454 12336321 2012770015 200809832 1946505276 1388972145 -1978704331 -1268755895 -1130420939 409509601 577054061 -988995797 -1184680477 452425494
REM
CELL 1.54180   50.00000   50.00000   50.00000   90.00000   90.00000   90.00000
LATT -1
SFAC C  
C      1  0.4815630000000  0.3756990000000  0.4846400000000 1.0
C      1  0.5291860000000  0.3840990000000  0.5386440000000 1.0
C      1  0.4397350000000  0.4288350000000  0.5171820000000 1.0
C      1  0.5156730000000  0.4632530000000  0.4449880000000 1.0
C      1  0.4217060000000  0.4945220000000  0.4385400000000 1.0
C      1  0.4533860000000  0.4928050000000  0.4868130000000 1.0
C      1  0.5021270000000  0.4688040000000  0.4194440000000 1.0
C      1  0.5814120000000  0.4684300000000  0.4942670000000 1.0
C      1  0.5365560000000  0.5227500000000  0.5017200000000 1.0
C      1  0.5612480000000  0.4355420000000  0.4689050000000 1.0
C      1  0.4629210000000  0.4739180000000  0.5059930000000 1.0
C      1  0.4348320000000  0.5150990000000  0.5596640000000 1.0
C      1  0.5000490000000  0.5592860000000  0.5112680000000 1.0
C      1  0.5673680000000  0.4156050000000  0.5578970000000 1.0
C      1  0.5927790000000  0.4908960000000  0.5597750000000 1.0
C      1  0.4165940000000  0.4706810000000  0.4550570000000 1.0
C      1  0.4370480000000  0.4496010000000  0.4571880000000 1.0
C      1  0.3901720000000  0.4637460000000  0.5001120000000 1.0
C      1  0.5938870000000  0.4928420000000  0.5051610000000 1.0
C      1  0.5127910000000  0.4339410000000  0.5188040000000 1.0
C      1  0.4721630000000  0.5501510000000  0.5507760000000 1.0
C      1  0.5236910000000  0.5598140000000  0.5989050000000 1.0
C      1  0.5489630000000  0.5492350000000  0.5879440000000 1.0
C      1  0.4679990000000  0.6018820000000  0.4510980000000 1.0
C      1  0.5076180000000  0.5403930000000  0.6117280000000 1.0
C      1  0.5392940000000  0.4900800000000  0.5404700000000 1.0
C      1  0.5253020000000  0.5985430000000  0.5007440000000 1.0
C      1  0.5220320000000  0.5082580000000  0.4821080000000 1.0
C      1  0.5428120000000  0.4689690000000  0.4384960000000 1.0
C      1  0.5378060000000  0.5735200000000  0.4046770000000 1.0
C      1  0.5247240000000  0.5702550000000  0.5033510000000 1.0
C      1  0.5437550000000  0.5504950000000  0.4967380000000 1.0
C      1  0.4464720000000  0.4899120000000  0.4209810000000 1.0
C      1  0.3993220000000  0.4963990000000  0.5826930000000 1.0
C      1  0.4958150000000  0.4446670000000  0.4063920000000 1.0
C      1  0.4109140000000  0.4528680000000  0.5468360000000 1.0
C      1  0.5923290000000  0.5023210000000  0.5328460000000 1.0
C      1  0.4961230000000  0.4445630000000  0.5407460000000 1.0
C      1  0.4706790000000  0.4038400000000  0.5580930000000 1.0
C      1  0.5564880000000  0.5555640000000  0.4522340000000 1.0
C      1  0.5828300000000  0.4732980000000  0.4642490000000 1.0
C      1  0.5851630000000  0.5008330000000  0.4569040000000 1.0
C      1  0.4938130000000  0.3923480000000  0.5025440000000 1.0
C      1  0.4945550000000  0.4735450000000  0.5431130000000 1.0
C      1  0.5042230000000  0.4612930000000  0.4709160000000 1.0
C      1  0.4685050000000  0.5273410000000  0.4547300000000 1.0
C      1  0.4674860000000  0.4992230000000  0.4629000000000 1.0
C      1  0.4520450000000  0.4480050000000  0.5024870000000 1.0
C      1  0.5647100000000  0.4562920000000  0.4501150000000 1.0
C      1  0.4654200000000  0.4810000000000  0.4411850000000 1.0
C      1  0.5383790000000  0.3911510000000  0.4718650000000 1.0
C      1  0.4735170000000  0.4658080000000  0.5852660000000 1.0
C      1  0.5100860000000  0.4960340000000  0.4120090000000 1.0
C      1  0.4893300000000  0.4867660000000  0.5165020000000 1.0
C      1  0.5303990000000  0.3846850000000  0.4455220000000 1.0
C      1  0.4891000000000  0.5176540000000  0.4077780000000 1.0
C      1  0.4882440000000  0.5894040000000  0.5680160000000 1.0
C      1  0.5392940000000  0.4753500000000  0.5620550000000 1.0
C      1  0.4092420000000  0.5264980000000  0.5486830000000 1.0
C      1  0.5512000000000  0.6178160000000  0.4587600000000 1.0
C      1  0.4977450000000  0.5455460000000  0.4090970000000 1.0
C      1  0.5921390000000  0.4626670000000  0.5625990000000 1.0
C      1  0.4802320000000  0.5115350000000  0.5778580000000 1.0
C      1  0.4676170000000  0.6090540000000  0.4769660000000 1.0
C      1  0.3965380000000  0.4697060000000  0.4748390000000 1.0
C      1  0.4559510000000  0.4493190000000  0.5701840000000 1.0
C      1  0.5941890000000  0.5130840000000  0.4822520000000 1.0
C      1  0.5701920000000  0.5478500000000  0.5442160000000 1.0
C      1  0.5477660000000  0.5110360000000  0.5242860000000 1.0
C      1  0.5479430000000  0.5972200000000  0.4118290000000 1.0
C      1  0.5726020000000  0.5228090000000  0.5321820000000 1.0
C      1  0.5408470000000  0.4297330000000  0.5096150000000 1.0
C      1  0.5497760000000  0.3966300000000  0.5506380000000 1.0
C      1  0.5019180000000  0.6115290000000  0.5102390000000 1.0
C      1  0.5429700000000  0.4037950000000  0.4951790000000 1.0
C      1  0.4747130000000  0.6064240000000  0.5045310000000 1.0
C      1  0.5244760000000  0.5515880000000  0.4162280000000 1.0
C      1  0.4425530000000  0.5149220000000  0.4994260000000 1.0
C      1  0.5832200000000  0.5083470000000  0.5815560000000 1.0
C      1  0.4581140000000  0.4411510000000  0.4748130000000 1.0
C      1  0.4733530000000  0.4314870000000  0.5549900000000 1.0
C      1  0.4873360000000  0.4380670000000  0.4766080000000 1.0
C      1  0.4488450000000  0.5326940000000  0.4340670000000 1.0
C      1  0.4965710000000  0.4205700000000  0.4978940000000 1.0
C      1  0.4238080000000  0.5671130000000  0.4829420000000 1.0
C      1  0.4260910000000  0.4893390000000  0.5733010000000 1.0
C      1  0.4309500000000  0.4623760000000  0.5642370000000 1.0
C      1  0.5821820000000  0.4377440000000  0.5613140000000 1.0
C      1  0.5082060000000  0.5808430000000  0.5851890000000 1.0
C      1  0.4690000000000  0.5790390000000  0.5480590000000 1.0
C      1  0.4855610000000  0.5164400000000  0.5223000000000 1.0
C      1  0.5426550000000  0.6116750000000  0.4832280000000 1.0
C      1  0.4784080000000  0.5515980000000  0.4946870000000 1.0
C      1  0.5471880000000  0.5524280000000  0.5596560000000 1.0
C      1  0.4823410000000  0.3820460000000  0.5478800000000 1.0
C      1  0.5075750000000  0.4839750000000  0.4901080000000 1.0
C      1  0.4225410000000  0.5249410000000  0.4467650000000 1.0
C      1  0.4975500000000  0.5413280000000  0.5357760000000 1.0
C      1  0.5653890000000  0.5540010000000  0.4787870000000 1.0
C      1  0.4354760000000  0.5783320000000  0.5056360000000 1.0
C      1  0.5383090000000  0.3606180000000  0.4349850000000 1.0
C      1  0.4166490000000  0.5246690000000  0.4967200000000 1.0
C      1  0.4603240000000  0.5273440000000  0.5639690000000 1.0
C      1  0.5222190000000  0.5215210000000  0.4569590000000 1.0
C      1  0.5677470000000  0.5277610000000  0.5936850000000 1.0
C      1  0.4591030000000  0.5149360000000  0.4121200000000 1.0
C      1  0.5146110000000  0.4018830000000  0.4295700000000 1.0
C      1  0.3954580000000  0.4566770000000  0.5253210000000 1.0
C      1  0.4717690000000  0.5876250000000  0.4286780000000 1.0
C      1  0.5528220000000  0.6133500000000  0.4325300000000 1.0
C      1  0.4865650000000  0.4852350000000  0.5690720000000 1.0
C      1  0.4914910000000  0.5216710000000  0.6014700000000 1.0
C      1  0.4643030000000  0.5300520000000  0.5073680000000 1.0
C      1  0.5621390000000  0.4456350000000  0.4971740000000 1.0
C      1  0.5896960000000  0.5408440000000  0.4844260000000 1.0
C      1  0.3894400000000  0.5176730000000  0.5679980000000 1.0
C      1  0.4800020000000  0.5675350000000  0.4127980000000 1.0
C      1  0.4157930000000  0.5404560000000  0.4722680000000 1.0
C      1  0.4798350000000  0.5491470000000  0.4673820000000 1.0
C      1  0.4037140000000  0.5292710000000  0.5212630000000 1.0
C      1  0.4578920000000  0.5894250000000  0.5215430000000 1.0
C      1  0.5339650000000  0.5423050000000  0.4412550000000 1.0
C      1  0.5024630000000  0.4193900000000  0.4132990000000 1.0
C      1  0.5027200000000  0.3825940000000  0.5284000000000 1.0
C      1  0.5223140000000  0.5439970000000  0.5501380000000 1.0
C      1  0.5445810000000  0.4942580000000  0.4243430000000 1.0
C      1  0.5686720000000  0.5077160000000  0.4337890000000 1.0
END
