TITL C-627109-622-428 -9.99033018983994e-07 125000 -707.561406845378 0 0 117 (C1) n - 1
REM
REM in /home/nfs/bkarasulu/CARBON/AIRSS/Generating-Clusters/LCBOP/Only-C1/SD-CG/FIRE-CG
REM
REM
REM
REM
REM
REM ./C.cell (11c1c37f851c82e70ff6c80c92926a4b)
REM AIRSS Version 0.9.1 bugfix July 2018 build 013d7b7c2542+ Fri, 06 Jul 2018 19:26:36 +0100
REM compiler GCC version 9.2.1 20190827 (Red Hat 9.2.1-1)
REM options -cpp -mtune=generic -march=x86-64 -g -O0 -fpre-include=/usr/include/finclude/math-vector-fortran.h
REM seed -308536223 1836535380 -1904875000 -1921053079 -288693066 1752207141 1217558604 -331103496 1207660262 886761097 -1670937909 -1816571088 903748277 -1710591382 -857713975 1886775118 584022350 -1798829718 2007157610 1348397909 8111916 586534050 -1940628755 -294482533 1867003172 -1720740496 -257070179 -778598650 -1710250171 1650461012 -1847136810 724250146 252471133
REM
CELL 1.54180   50.00000   50.00000   50.00000   90.00000   90.00000   90.00000
LATT -1
SFAC C  
C      1  0.4666750000000  0.5882670000000  0.4056710000000 1.0
C      1  0.4452760000000  0.4496950000000  0.4631200000000 1.0
C      1  0.5346190000000  0.4118170000000  0.5232210000000 1.0
C      1  0.4807820000000  0.5112560000000  0.4260970000000 1.0
C      1  0.4494100000000  0.5788740000000  0.4256490000000 1.0
C      1  0.5471160000000  0.4915100000000  0.4847100000000 1.0
C      1  0.4942280000000  0.5883120000000  0.4108890000000 1.0
C      1  0.4608750000000  0.5619830000000  0.5696130000000 1.0
C      1  0.4990920000000  0.5917480000000  0.5687720000000 1.0
C      1  0.4468680000000  0.3960670000000  0.5478460000000 1.0
C      1  0.4843200000000  0.4622440000000  0.4897840000000 1.0
C      1  0.4937850000000  0.5282300000000  0.5529710000000 1.0
C      1  0.5071700000000  0.4148500000000  0.4381140000000 1.0
C      1  0.5139410000000  0.4627870000000  0.4459610000000 1.0
C      1  0.5362800000000  0.4485570000000  0.5898960000000 1.0
C      1  0.4113540000000  0.4342390000000  0.5449690000000 1.0
C      1  0.5028590000000  0.4971670000000  0.3875480000000 1.0
C      1  0.3988490000000  0.5111200000000  0.4536380000000 1.0
C      1  0.5332800000000  0.4436080000000  0.4870600000000 1.0
C      1  0.5241610000000  0.4100350000000  0.5569460000000 1.0
C      1  0.5302440000000  0.5295140000000  0.4613280000000 1.0
C      1  0.5634480000000  0.4994010000000  0.5308880000000 1.0
C      1  0.5073020000000  0.5657400000000  0.5800330000000 1.0
C      1  0.4769420000000  0.5924250000000  0.5073100000000 1.0
C      1  0.5941220000000  0.4875700000000  0.4499070000000 1.0
C      1  0.5880810000000  0.4735910000000  0.5033780000000 1.0
C      1  0.4402270000000  0.5002450000000  0.5553710000000 1.0
C      1  0.5679590000000  0.4723240000000  0.4825670000000 1.0
C      1  0.5182090000000  0.5828910000000  0.4209050000000 1.0
C      1  0.5552260000000  0.5558930000000  0.5459360000000 1.0
C      1  0.4753770000000  0.5093460000000  0.5001330000000 1.0
C      1  0.5311090000000  0.5307760000000  0.5085240000000 1.0
C      1  0.5644500000000  0.5801220000000  0.5548420000000 1.0
C      1  0.5679800000000  0.4313460000000  0.4218420000000 1.0
C      1  0.4981290000000  0.3923950000000  0.5366330000000 1.0
C      1  0.4184640000000  0.4562890000000  0.4704220000000 1.0
C      1  0.5404320000000  0.5282950000000  0.5865400000000 1.0
C      1  0.5038880000000  0.5651600000000  0.4820350000000 1.0
C      1  0.5066600000000  0.4780870000000  0.5499470000000 1.0
C      1  0.4158780000000  0.5272520000000  0.4963560000000 1.0
C      1  0.5442290000000  0.4262830000000  0.4660960000000 1.0
C      1  0.4520650000000  0.5624480000000  0.4754070000000 1.0
C      1  0.4354260000000  0.5764880000000  0.5336620000000 1.0
C      1  0.5893420000000  0.5353260000000  0.4737820000000 1.0
C      1  0.4177000000000  0.4810000000000  0.5567910000000 1.0
C      1  0.5512730000000  0.4349830000000  0.4009570000000 1.0
C      1  0.5107140000000  0.4593900000000  0.4761390000000 1.0
C      1  0.4401940000000  0.5421140000000  0.4914600000000 1.0
C      1  0.5425610000000  0.4362130000000  0.5128720000000 1.0
C      1  0.4728470000000  0.4825570000000  0.5079970000000 1.0
C      1  0.4767160000000  0.5738750000000  0.4849580000000 1.0
C      1  0.4628570000000  0.4797700000000  0.5349040000000 1.0
C      1  0.4920830000000  0.4309170000000  0.5845320000000 1.0
C      1  0.4754260000000  0.4468090000000  0.5706440000000 1.0
C      1  0.5209290000000  0.4078940000000  0.4621310000000 1.0
C      1  0.4551060000000  0.5022140000000  0.5812680000000 1.0
C      1  0.5054780000000  0.4985540000000  0.4164830000000 1.0
C      1  0.4435380000000  0.5696020000000  0.4498470000000 1.0
C      1  0.5272280000000  0.5524290000000  0.5944660000000 1.0
C      1  0.4783520000000  0.5078930000000  0.3798740000000 1.0
C      1  0.5732980000000  0.5126450000000  0.5534740000000 1.0
C      1  0.5197320000000  0.4273130000000  0.5788270000000 1.0
C      1  0.5730920000000  0.4726040000000  0.5274280000000 1.0
C      1  0.5398880000000  0.4753680000000  0.5948310000000 1.0
C      1  0.5295380000000  0.5024160000000  0.5961760000000 1.0
C      1  0.5250230000000  0.4413630000000  0.4026410000000 1.0
C      1  0.5124330000000  0.5368910000000  0.4837590000000 1.0
C      1  0.4105050000000  0.5264650000000  0.5244080000000 1.0
C      1  0.4589680000000  0.5296680000000  0.5091320000000 1.0
C      1  0.3925720000000  0.5165390000000  0.4289340000000 1.0
C      1  0.5117620000000  0.3971810000000  0.5119270000000 1.0
C      1  0.3983340000000  0.4403940000000  0.4603520000000 1.0
C      1  0.5234660000000  0.5833780000000  0.4948650000000 1.0
C      1  0.4298920000000  0.5278780000000  0.5459110000000 1.0
C      1  0.5500270000000  0.5472170000000  0.4473200000000 1.0
C      1  0.4023460000000  0.4700870000000  0.5132130000000 1.0
C      1  0.5105070000000  0.4408520000000  0.4269790000000 1.0
C      1  0.5342110000000  0.5016160000000  0.4615730000000 1.0
C      1  0.4514970000000  0.4515640000000  0.4363350000000 1.0
C      1  0.5974360000000  0.5069870000000  0.5648540000000 1.0
C      1  0.4769530000000  0.4152090000000  0.4830690000000 1.0
C      1  0.4860240000000  0.5481850000000  0.5702960000000 1.0
C      1  0.4899070000000  0.5181120000000  0.4784180000000 1.0
C      1  0.4083770000000  0.5054100000000  0.4793130000000 1.0
C      1  0.4080370000000  0.4613820000000  0.5391710000000 1.0
C      1  0.5305090000000  0.4646950000000  0.5470770000000 1.0
C      1  0.4723670000000  0.3890900000000  0.5449250000000 1.0
C      1  0.5567170000000  0.5328340000000  0.5633000000000 1.0
C      1  0.6068000000000  0.4938860000000  0.4954990000000 1.0
C      1  0.4758380000000  0.5022900000000  0.5982290000000 1.0
C      1  0.6002620000000  0.5082960000000  0.4708750000000 1.0
C      1  0.5451590000000  0.5062730000000  0.5094730000000 1.0
C      1  0.4254680000000  0.4118580000000  0.5476610000000 1.0
C      1  0.4647340000000  0.5163910000000  0.4025860000000 1.0
C      1  0.5773000000000  0.4641150000000  0.4570210000000 1.0
C      1  0.5378160000000  0.5703130000000  0.4336780000000 1.0
C      1  0.4569300000000  0.5970590000000  0.3817080000000 1.0
C      1  0.5019840000000  0.5033110000000  0.6040550000000 1.0
C      1  0.4106780000000  0.4778970000000  0.4875670000000 1.0
C      1  0.5092110000000  0.6004870000000  0.5436300000000 1.0
C      1  0.4785290000000  0.5162650000000  0.4529770000000 1.0
C      1  0.5064030000000  0.5057640000000  0.5476940000000 1.0
C      1  0.5671870000000  0.5552000000000  0.4722830000000 1.0
C      1  0.5029950000000  0.4028430000000  0.4853140000000 1.0
C      1  0.5052910000000  0.5967110000000  0.5156280000000 1.0
C      1  0.5610280000000  0.5269770000000  0.4263660000000 1.0
C      1  0.5515020000000  0.4549210000000  0.5314810000000 1.0
C      1  0.4661370000000  0.4414910000000  0.4809000000000 1.0
C      1  0.4526170000000  0.5935790000000  0.5214940000000 1.0
C      1  0.5655780000000  0.4386110000000  0.4490630000000 1.0
C      1  0.4399770000000  0.5548070000000  0.5518850000000 1.0
C      1  0.5471760000000  0.5526350000000  0.5188700000000 1.0
C      1  0.5507710000000  0.5698940000000  0.4951510000000 1.0
C      1  0.4698400000000  0.5900210000000  0.5723880000000 1.0
C      1  0.5275410000000  0.4889600000000  0.4350980000000 1.0
C      1  0.4807740000000  0.4664600000000  0.5515830000000 1.0
C      1  0.5519240000000  0.5015580000000  0.4197000000000 1.0
END
