TITL C-627109-622-36 -4.59498333460825e-07 125000 -511.656217506025 0 0 85 (C1) n - 1
REM
REM in /home/nfs/bkarasulu/CARBON/AIRSS/Generating-Clusters/LCBOP/Only-C1/SD-CG/FIRE-CG
REM
REM
REM
REM
REM
REM ./C.cell (11c1c37f851c82e70ff6c80c92926a4b)
REM AIRSS Version 0.9.1 bugfix July 2018 build 013d7b7c2542+ Fri, 06 Jul 2018 19:26:36 +0100
REM compiler GCC version 9.2.1 20190827 (Red Hat 9.2.1-1)
REM options -cpp -mtune=generic -march=x86-64 -g -O0 -fpre-include=/usr/include/finclude/math-vector-fortran.h
REM seed -1828818042 -1586195328 -2063723573 306111370 -505109768 1486936199 -1384373887 -1712670331 1769047580 113546396 1477686144 1345470222 974966419 526882181 1197834339 -251250071 -458841895 -147949637 112826638 565802657 -2094816727 -1276055981 375733310 -1678073348 -1323958020 -169203509 -959138708 538313205 -676162051 77817285 1532228462 51546974 -860034591
REM
CELL 1.54180   50.00000   50.00000   50.00000   90.00000   90.00000   90.00000
LATT -1
SFAC C  
C      1  0.5305230000000  0.4868940000000  0.4357920000000 1.0
C      1  0.5476580000000  0.4342360000000  0.4547240000000 1.0
C      1  0.4591940000000  0.4011550000000  0.5537550000000 1.0
C      1  0.5267370000000  0.4046390000000  0.4921860000000 1.0
C      1  0.5160090000000  0.5366710000000  0.5246070000000 1.0
C      1  0.4330480000000  0.5758360000000  0.5771250000000 1.0
C      1  0.5421350000000  0.4831930000000  0.4877870000000 1.0
C      1  0.5582740000000  0.5830110000000  0.5039900000000 1.0
C      1  0.5331410000000  0.5801550000000  0.4627670000000 1.0
C      1  0.4598910000000  0.4918080000000  0.4357960000000 1.0
C      1  0.4815930000000  0.4187450000000  0.5126920000000 1.0
C      1  0.5146150000000  0.6082520000000  0.4968450000000 1.0
C      1  0.4768650000000  0.6111000000000  0.5264310000000 1.0
C      1  0.4312180000000  0.4828050000000  0.4732820000000 1.0
C      1  0.4991500000000  0.5175100000000  0.4714390000000 1.0
C      1  0.4888720000000  0.6069920000000  0.4813630000000 1.0
C      1  0.5439760000000  0.4135500000000  0.5107800000000 1.0
C      1  0.4925710000000  0.5118540000000  0.4040610000000 1.0
C      1  0.4538210000000  0.5184310000000  0.5046760000000 1.0
C      1  0.4765460000000  0.3995410000000  0.5328710000000 1.0
C      1  0.5024940000000  0.4446800000000  0.4335810000000 1.0
C      1  0.5654820000000  0.5258890000000  0.5085490000000 1.0
C      1  0.5030660000000  0.5449260000000  0.4752640000000 1.0
C      1  0.4357130000000  0.4329440000000  0.4954020000000 1.0
C      1  0.5056280000000  0.6128030000000  0.5239870000000 1.0
C      1  0.5739890000000  0.4497050000000  0.4981810000000 1.0
C      1  0.5520750000000  0.4510610000000  0.5424510000000 1.0
C      1  0.5074680000000  0.5678860000000  0.4588700000000 1.0
C      1  0.4942800000000  0.5233490000000  0.5383940000000 1.0
C      1  0.5011540000000  0.4836190000000  0.5087920000000 1.0
C      1  0.5846210000000  0.4754230000000  0.5050170000000 1.0
C      1  0.4536760000000  0.5502480000000  0.5419400000000 1.0
C      1  0.4421220000000  0.4207420000000  0.5619550000000 1.0
C      1  0.5662850000000  0.5083170000000  0.6264990000000 1.0
C      1  0.5789400000000  0.5009890000000  0.5122170000000 1.0
C      1  0.5288490000000  0.4814050000000  0.5124080000000 1.0
C      1  0.5417660000000  0.4828880000000  0.4611690000000 1.0
C      1  0.4669670000000  0.6131860000000  0.4991000000000 1.0
C      1  0.4443440000000  0.5085720000000  0.4794520000000 1.0
C      1  0.5581760000000  0.5263760000000  0.4357160000000 1.0
C      1  0.5679890000000  0.4330190000000  0.5906900000000 1.0
C      1  0.4549640000000  0.4270910000000  0.4741090000000 1.0
C      1  0.4167760000000  0.6260010000000  0.4849130000000 1.0
C      1  0.5194460000000  0.4298720000000  0.4517250000000 1.0
C      1  0.4547140000000  0.5154370000000  0.4528350000000 1.0
C      1  0.4976000000000  0.5003570000000  0.5554040000000 1.0
C      1  0.4809420000000  0.4161990000000  0.4838750000000 1.0
C      1  0.5742090000000  0.5410200000000  0.4849190000000 1.0
C      1  0.5783820000000  0.5688370000000  0.4895220000000 1.0
C      1  0.4724950000000  0.4447510000000  0.5192500000000 1.0
C      1  0.4669710000000  0.5294890000000  0.5281680000000 1.0
C      1  0.5375180000000  0.5119370000000  0.4232830000000 1.0
C      1  0.4752580000000  0.4363160000000  0.4314470000000 1.0
C      1  0.5067010000000  0.4725880000000  0.4276480000000 1.0
C      1  0.4839550000000  0.4899460000000  0.4201610000000 1.0
C      1  0.4412540000000  0.6201060000000  0.4916320000000 1.0
C      1  0.3821680000000  0.4713220000000  0.4934030000000 1.0
C      1  0.4391340000000  0.4463110000000  0.5495420000000 1.0
C      1  0.5369450000000  0.4751100000000  0.5390770000000 1.0
C      1  0.4062000000000  0.4759470000000  0.4832520000000 1.0
C      1  0.5450640000000  0.5401510000000  0.5254020000000 1.0
C      1  0.5586510000000  0.4363050000000  0.5187610000000 1.0
C      1  0.5602550000000  0.4420220000000  0.5674900000000 1.0
C      1  0.5711200000000  0.5322210000000  0.4584090000000 1.0
C      1  0.4843900000000  0.4688030000000  0.5255510000000 1.0
C      1  0.5516450000000  0.5684660000000  0.5278130000000 1.0
C      1  0.4447060000000  0.4699360000000  0.4501120000000 1.0
C      1  0.4873960000000  0.5881950000000  0.4601250000000 1.0
C      1  0.5376610000000  0.5942810000000  0.4876160000000 1.0
C      1  0.4495870000000  0.5745320000000  0.5554100000000 1.0
C      1  0.5520560000000  0.5030060000000  0.6053110000000 1.0
C      1  0.4431680000000  0.4444210000000  0.5207080000000 1.0
C      1  0.4532050000000  0.4689730000000  0.5612530000000 1.0
C      1  0.4628560000000  0.5974400000000  0.5460890000000 1.0
C      1  0.4775120000000  0.4800440000000  0.5511690000000 1.0
C      1  0.4856350000000  0.4714260000000  0.4683700000000 1.0
C      1  0.5245080000000  0.4905960000000  0.5601710000000 1.0
C      1  0.5679310000000  0.4409980000000  0.4715310000000 1.0
C      1  0.5075910000000  0.4142590000000  0.4731690000000 1.0
C      1  0.5055470000000  0.5509510000000  0.5025660000000 1.0
C      1  0.3589130000000  0.4661940000000  0.5040090000000 1.0
C      1  0.5380170000000  0.4969980000000  0.5836650000000 1.0
C      1  0.5178420000000  0.5218500000000  0.4055220000000 1.0
C      1  0.4938380000000  0.4923340000000  0.4831870000000 1.0
C      1  0.4543540000000  0.4425540000000  0.4498260000000 1.0
END
