TITL C-627107-135-1754 0.101733159921605 125000 -658.823036228829 0 0 108 (C1) n - 1
REM
REM in /home/nfs/bkarasulu/CARBON/AIRSS/Generating-Clusters/LCBOP/Only-C1/SD-CG/FIRE-CG
REM
REM
REM
REM
REM
REM ./C.cell (11c1c37f851c82e70ff6c80c92926a4b)
REM AIRSS Version 0.9.1 bugfix July 2018 build 013d7b7c2542+ Fri, 06 Jul 2018 19:26:36 +0100
REM compiler GCC version 9.2.1 20190827 (Red Hat 9.2.1-1)
REM options -cpp -mtune=generic -march=x86-64 -g -O0 -fpre-include=/usr/include/finclude/math-vector-fortran.h
REM seed -1341252937 -115463677 1469247345 1901451790 -639439286 -1924967612 209189007 -753111794 -1385454573 -1195678921 -1395747646 1828446123 1055661583 1926693350 -70981156 913051635 908801900 535447017 -734958303 1369410107 109023560 -640437489 1933746225 1416469629 170106769 -1035877585 274309012 -2033962343 930874375 -1770821034 94253997 -1223736004 175824983
REM
CELL 1.54180   50.00000   50.00000   50.00000   90.00000   90.00000   90.00000
LATT -1
SFAC C  
C      1  0.4521800000000  0.5145500000000  0.4750290000000 1.0
C      1  0.5229270000000  0.5221390000000  0.5145410000000 1.0
C      1  0.5295790000000  0.4072000000000  0.5761090000000 1.0
C      1  0.5597260000000  0.4296570000000  0.5423780000000 1.0
C      1  0.4312860000000  0.4056140000000  0.4062640000000 1.0
C      1  0.4477230000000  0.4708710000000  0.4421600000000 1.0
C      1  0.4748900000000  0.5212240000000  0.5418540000000 1.0
C      1  0.4749390000000  0.3868410000000  0.4165370000000 1.0
C      1  0.5098720000000  0.3723660000000  0.5318650000000 1.0
C      1  0.5233210000000  0.5720040000000  0.5360850000000 1.0
C      1  0.5145030000000  0.4854630000000  0.4729810000000 1.0
C      1  0.5089220000000  0.4113550000000  0.5924920000000 1.0
C      1  0.5392240000000  0.5392040000000  0.5676150000000 1.0
C      1  0.4297340000000  0.6489280000000  0.5620050000000 1.0
C      1  0.4970960000000  0.5977310000000  0.5891520000000 1.0
C      1  0.5835420000000  0.4478100000000  0.4606810000000 1.0
C      1  0.5144170000000  0.4666000000000  0.4494990000000 1.0
C      1  0.5454090000000  0.6027370000000  0.5068030000000 1.0
C      1  0.4912550000000  0.4465520000000  0.4586910000000 1.0
C      1  0.4211120000000  0.6264790000000  0.6072720000000 1.0
C      1  0.5184690000000  0.4507180000000  0.3674690000000 1.0
C      1  0.5594370000000  0.5313960000000  0.4865440000000 1.0
C      1  0.4637880000000  0.4365610000000  0.5903100000000 1.0
C      1  0.4890590000000  0.5211970000000  0.4182940000000 1.0
C      1  0.4456140000000  0.5176860000000  0.5023430000000 1.0
C      1  0.5573550000000  0.5592090000000  0.4908570000000 1.0
C      1  0.4082080000000  0.4184820000000  0.4024940000000 1.0
C      1  0.4493570000000  0.4970650000000  0.4028790000000 1.0
C      1  0.4939570000000  0.3644770000000  0.5112510000000 1.0
C      1  0.5418990000000  0.5730450000000  0.5126540000000 1.0
C      1  0.5033710000000  0.5376420000000  0.5047080000000 1.0
C      1  0.4999130000000  0.4452640000000  0.5325410000000 1.0
C      1  0.4553330000000  0.5931700000000  0.6200050000000 1.0
C      1  0.3994820000000  0.4437270000000  0.4038570000000 1.0
C      1  0.4700810000000  0.5459040000000  0.6083080000000 1.0
C      1  0.5155940000000  0.5996040000000  0.5423110000000 1.0
C      1  0.4686420000000  0.4354170000000  0.4149310000000 1.0
C      1  0.4465010000000  0.4901940000000  0.4624160000000 1.0
C      1  0.4363300000000  0.6370350000000  0.5859290000000 1.0
C      1  0.4593310000000  0.4625050000000  0.5026050000000 1.0
C      1  0.5611090000000  0.4906010000000  0.5163230000000 1.0
C      1  0.4868030000000  0.4132190000000  0.3569450000000 1.0
C      1  0.4909850000000  0.3663560000000  0.4179790000000 1.0
C      1  0.5850450000000  0.4214630000000  0.4570910000000 1.0
C      1  0.4583710000000  0.4089390000000  0.4126930000000 1.0
C      1  0.5260340000000  0.4696950000000  0.4941020000000 1.0
C      1  0.5387840000000  0.4775320000000  0.4047130000000 1.0
C      1  0.5153940000000  0.5108960000000  0.4591440000000 1.0
C      1  0.5191380000000  0.4731480000000  0.3854410000000 1.0
C      1  0.5684920000000  0.4815560000000  0.5422980000000 1.0
C      1  0.4501470000000  0.4518810000000  0.5732750000000 1.0
C      1  0.4849380000000  0.4219490000000  0.5974140000000 1.0
C      1  0.4822420000000  0.5381970000000  0.5859530000000 1.0
C      1  0.4293250000000  0.6647550000000  0.5181800000000 1.0
C      1  0.5282880000000  0.6454390000000  0.5257180000000 1.0
C      1  0.5265380000000  0.6714170000000  0.5268050000000 1.0
C      1  0.4805680000000  0.4486310000000  0.3928190000000 1.0
C      1  0.5622130000000  0.6049260000000  0.4838450000000 1.0
C      1  0.4162320000000  0.6624080000000  0.5422050000000 1.0
C      1  0.5736510000000  0.5018810000000  0.5611890000000 1.0
C      1  0.5728640000000  0.4226800000000  0.5182770000000 1.0
C      1  0.4915180000000  0.4761570000000  0.3949780000000 1.0
C      1  0.5124320000000  0.3989380000000  0.4817740000000 1.0
C      1  0.4572660000000  0.5061290000000  0.5253550000000 1.0
C      1  0.5407920000000  0.5079530000000  0.4453740000000 1.0
C      1  0.5403580000000  0.4091870000000  0.5502820000000 1.0
C      1  0.5612110000000  0.4076400000000  0.4970550000000 1.0
C      1  0.5604750000000  0.5233360000000  0.5703040000000 1.0
C      1  0.5572120000000  0.4568130000000  0.5520090000000 1.0
C      1  0.4981710000000  0.6082490000000  0.5621480000000 1.0
C      1  0.5822270000000  0.4952250000000  0.4646320000000 1.0
C      1  0.4824030000000  0.4534300000000  0.4887600000000 1.0
C      1  0.4950650000000  0.3768330000000  0.4870260000000 1.0
C      1  0.5355280000000  0.4810360000000  0.4322470000000 1.0
C      1  0.4465340000000  0.4652750000000  0.5505260000000 1.0
C      1  0.5330780000000  0.4615520000000  0.5661460000000 1.0
C      1  0.5499060000000  0.5160100000000  0.5091230000000 1.0
C      1  0.5170030000000  0.5499680000000  0.5536630000000 1.0
C      1  0.4838260000000  0.4232480000000  0.5356470000000 1.0
C      1  0.4858320000000  0.5463530000000  0.4864140000000 1.0
C      1  0.4921470000000  0.5215050000000  0.4467730000000 1.0
C      1  0.5341050000000  0.4007430000000  0.5012350000000 1.0
C      1  0.5296160000000  0.6178150000000  0.5248580000000 1.0
C      1  0.4776080000000  0.4990650000000  0.4040800000000 1.0
C      1  0.5632310000000  0.5160060000000  0.4619100000000 1.0
C      1  0.4674100000000  0.4496400000000  0.4399190000000 1.0
C      1  0.5088070000000  0.4592850000000  0.5550720000000 1.0
C      1  0.5285840000000  0.3935160000000  0.5290710000000 1.0
C      1  0.5691430000000  0.5799100000000  0.4745610000000 1.0
C      1  0.4101460000000  0.4674280000000  0.4100180000000 1.0
C      1  0.4766090000000  0.6275820000000  0.5602950000000 1.0
C      1  0.5750020000000  0.4026990000000  0.4733490000000 1.0
C      1  0.4945960000000  0.4349050000000  0.3711570000000 1.0
C      1  0.4620980000000  0.6409910000000  0.5412440000000 1.0
C      1  0.4974200000000  0.5430670000000  0.4039360000000 1.0
C      1  0.4592610000000  0.5656250000000  0.6227000000000 1.0
C      1  0.4537290000000  0.4776230000000  0.5264260000000 1.0
C      1  0.4631900000000  0.6276170000000  0.5861510000000 1.0
C      1  0.4340690000000  0.4790830000000  0.4181880000000 1.0
C      1  0.5742370000000  0.4698740000000  0.4747940000000 1.0
C      1  0.4304060000000  0.6064650000000  0.6232750000000 1.0
C      1  0.4739050000000  0.6070450000000  0.6035440000000 1.0
C      1  0.5040700000000  0.4188700000000  0.4632870000000 1.0
C      1  0.4735140000000  0.5311350000000  0.4659300000000 1.0
C      1  0.4541740000000  0.6530720000000  0.5178540000000 1.0
C      1  0.4911560000000  0.5372040000000  0.5591590000000 1.0
C      1  0.5057420000000  0.4543610000000  0.5064040000000 1.0
C      1  0.5546510000000  0.4713520000000  0.4962190000000 1.0
END
