TITL C-627110-360-110 16.9911305209508 125000 -701.638683526026 0 0 116 (C1) n - 1
REM
REM in /home/nfs/bkarasulu/CARBON/AIRSS/Generating-Clusters/LCBOP/Only-C1/SD-CG/FIRE-CG
REM
REM
REM
REM
REM
REM ./C.cell (11c1c37f851c82e70ff6c80c92926a4b)
REM AIRSS Version 0.9.1 bugfix July 2018 build 013d7b7c2542+ Fri, 06 Jul 2018 19:26:36 +0100
REM compiler GCC version 9.2.1 20190827 (Red Hat 9.2.1-1)
REM options -cpp -mtune=generic -march=x86-64 -g -O0 -fpre-include=/usr/include/finclude/math-vector-fortran.h
REM seed -595786216 1320435744 -1083430967 1164250470 -1994409617 1548921986 -1106603952 126750759 1964524499 788767553 -1244850009 723959683 -1027992030 2063090879 -495365873 -783904141 571364106 1415024818 353235879 -1318316087 -325923056 1441420829 1491554513 710739153 -1213739620 2005618350 476194684 -1448995327 -1173792555 -1711173082 92723997 425717139 1154383929
REM
CELL 1.54180   50.00000   50.00000   50.00000   90.00000   90.00000   90.00000
LATT -1
SFAC C  
C      1  0.5040520000000  0.6394800000000  0.5713520000000 1.0
C      1  0.5188950000000  0.5737800000000  0.5709160000000 1.0
C      1  0.4338090000000  0.4660390000000  0.3918430000000 1.0
C      1  0.4100970000000  0.5429110000000  0.5218830000000 1.0
C      1  0.5506330000000  0.4352100000000  0.4532110000000 1.0
C      1  0.5631630000000  0.4776160000000  0.5765600000000 1.0
C      1  0.5420120000000  0.6042880000000  0.4674360000000 1.0
C      1  0.5389790000000  0.5341570000000  0.5556160000000 1.0
C      1  0.5179640000000  0.5098220000000  0.3902340000000 1.0
C      1  0.5574540000000  0.4093830000000  0.4634500000000 1.0
C      1  0.4596930000000  0.4799420000000  0.5892700000000 1.0
C      1  0.3614080000000  0.5290530000000  0.5408560000000 1.0
C      1  0.5831910000000  0.5524810000000  0.4257950000000 1.0
C      1  0.5030210000000  0.4505990000000  0.4349660000000 1.0
C      1  0.4910710000000  0.4269900000000  0.5311160000000 1.0
C      1  0.5401980000000  0.5352420000000  0.4823900000000 1.0
C      1  0.6415200000000  0.3715750000000  0.4963410000000 1.0
C      1  0.4619130000000  0.5127500000000  0.4743570000000 1.0
C      1  0.4221510000000  0.5171070000000  0.4207320000000 1.0
C      1  0.5271950000000  0.5078730000000  0.5615450000000 1.0
C      1  0.5305790000000  0.6393600000000  0.5689500000000 1.0
C      1  0.4501210000000  0.5242270000000  0.5448820000000 1.0
C      1  0.5843500000000  0.5273980000000  0.4167510000000 1.0
C      1  0.5006670000000  0.5724720000000  0.5510060000000 1.0
C      1  0.4873260000000  0.5517140000000  0.5373800000000 1.0
C      1  0.5019440000000  0.4887120000000  0.3875100000000 1.0
C      1  0.4934180000000  0.5341680000000  0.4430190000000 1.0
C      1  0.5246670000000  0.4460650000000  0.5000830000000 1.0
C      1  0.5637540000000  0.4797530000000  0.4074940000000 1.0
C      1  0.5437400000000  0.4968120000000  0.5823820000000 1.0
C      1  0.4554320000000  0.4397300000000  0.4248940000000 1.0
C      1  0.4439510000000  0.5117480000000  0.4027310000000 1.0
C      1  0.4750350000000  0.5751140000000  0.4651660000000 1.0
C      1  0.5475640000000  0.4017790000000  0.5353910000000 1.0
C      1  0.4379320000000  0.5728420000000  0.5486500000000 1.0
C      1  0.5268700000000  0.4890620000000  0.4780410000000 1.0
C      1  0.4767800000000  0.5717850000000  0.4916890000000 1.0
C      1  0.5207120000000  0.3811930000000  0.5000090000000 1.0
C      1  0.4200720000000  0.4469220000000  0.5385820000000 1.0
C      1  0.5513400000000  0.5025300000000  0.6308550000000 1.0
C      1  0.5844500000000  0.4637960000000  0.5706060000000 1.0
C      1  0.5047560000000  0.4749560000000  0.5988650000000 1.0
C      1  0.4769610000000  0.5502490000000  0.5096420000000 1.0
C      1  0.4805680000000  0.6308380000000  0.5621020000000 1.0
C      1  0.5258880000000  0.5279310000000  0.4081650000000 1.0
C      1  0.4558020000000  0.4214280000000  0.4466580000000 1.0
C      1  0.4766960000000  0.4774310000000  0.5435180000000 1.0
C      1  0.5364180000000  0.5527600000000  0.5772300000000 1.0
C      1  0.5463230000000  0.3904440000000  0.5090830000000 1.0
C      1  0.4465170000000  0.4088490000000  0.5326690000000 1.0
C      1  0.5606990000000  0.4562960000000  0.4703850000000 1.0
C      1  0.4262260000000  0.4759380000000  0.4613900000000 1.0
C      1  0.6167280000000  0.3790490000000  0.4933180000000 1.0
C      1  0.4592150000000  0.4673370000000  0.5642340000000 1.0
C      1  0.4824860000000  0.5210000000000  0.5855410000000 1.0
C      1  0.4709970000000  0.4103700000000  0.5189820000000 1.0
C      1  0.5165670000000  0.4521170000000  0.5898280000000 1.0
C      1  0.5529680000000  0.6297760000000  0.5582160000000 1.0
C      1  0.5321120000000  0.4453050000000  0.4323990000000 1.0
C      1  0.5599200000000  0.5918760000000  0.4520670000000 1.0
C      1  0.4809830000000  0.4522280000000  0.4157190000000 1.0
C      1  0.4315250000000  0.5463570000000  0.5412220000000 1.0
C      1  0.4310770000000  0.4535470000000  0.4174030000000 1.0
C      1  0.4796780000000  0.5585950000000  0.4445650000000 1.0
C      1  0.5651630000000  0.3954970000000  0.4875490000000 1.0
C      1  0.4536100000000  0.5093700000000  0.5203990000000 1.0
C      1  0.5004440000000  0.5034990000000  0.5446260000000 1.0
C      1  0.5285990000000  0.4325140000000  0.5754310000000 1.0
C      1  0.3847630000000  0.5359930000000  0.5316080000000 1.0
C      1  0.4235170000000  0.4241220000000  0.5228430000000 1.0
C      1  0.4855590000000  0.5117930000000  0.4585840000000 1.0
C      1  0.4603810000000  0.4700760000000  0.4939730000000 1.0
C      1  0.5915510000000  0.3867120000000  0.4902780000000 1.0
C      1  0.5430510000000  0.5410810000000  0.6019680000000 1.0
C      1  0.5639040000000  0.5636180000000  0.5262040000000 1.0
C      1  0.5401380000000  0.4158110000000  0.5574030000000 1.0
C      1  0.5744890000000  0.5746940000000  0.4377690000000 1.0
C      1  0.4165320000000  0.4706150000000  0.4357130000000 1.0
C      1  0.5669900000000  0.6120340000000  0.5442050000000 1.0
C      1  0.4535740000000  0.4866530000000  0.3923850000000 1.0
C      1  0.4203260000000  0.5363460000000  0.4414940000000 1.0
C      1  0.4157950000000  0.5440550000000  0.4669550000000 1.0
C      1  0.5462110000000  0.5130830000000  0.6062220000000 1.0
C      1  0.5119420000000  0.5110500000000  0.5170200000000 1.0
C      1  0.4134770000000  0.5459450000000  0.4937360000000 1.0
C      1  0.4796220000000  0.4752870000000  0.3975580000000 1.0
C      1  0.5178690000000  0.4242890000000  0.4830670000000 1.0
C      1  0.5864620000000  0.4650780000000  0.4702030000000 1.0
C      1  0.5460290000000  0.4604250000000  0.4127070000000 1.0
C      1  0.4466630000000  0.4880670000000  0.4758360000000 1.0
C      1  0.4484860000000  0.4192010000000  0.5602460000000 1.0
C      1  0.5330510000000  0.5287900000000  0.5086320000000 1.0
C      1  0.4659020000000  0.4245500000000  0.4728370000000 1.0
C      1  0.4832390000000  0.4939070000000  0.5962800000000 1.0
C      1  0.4052410000000  0.4941430000000  0.4240410000000 1.0
C      1  0.5108040000000  0.4443370000000  0.5244390000000 1.0
C      1  0.5205760000000  0.5347700000000  0.4346440000000 1.0
C      1  0.4795700000000  0.5271300000000  0.5552990000000 1.0
C      1  0.5386400000000  0.5371510000000  0.4558630000000 1.0
C      1  0.4630000000000  0.4821780000000  0.5194660000000 1.0
C      1  0.4815120000000  0.6194030000000  0.5159120000000 1.0
C      1  0.4636000000000  0.5261960000000  0.4996330000000 1.0
C      1  0.5040010000000  0.3998940000000  0.4871270000000 1.0
C      1  0.4934710000000  0.4629290000000  0.4592700000000 1.0
C      1  0.4747570000000  0.4514310000000  0.4780490000000 1.0
C      1  0.5776040000000  0.5023910000000  0.4103260000000 1.0
C      1  0.4400270000000  0.4472590000000  0.5599700000000 1.0
C      1  0.4491680000000  0.5969520000000  0.5457680000000 1.0
C      1  0.5226820000000  0.6139530000000  0.4830420000000 1.0
C      1  0.5026370000000  0.4894530000000  0.4639300000000 1.0
C      1  0.4688280000000  0.6165070000000  0.5409440000000 1.0
C      1  0.5470830000000  0.5415990000000  0.5297600000000 1.0
C      1  0.5403900000000  0.4663090000000  0.4876090000000 1.0
C      1  0.5707320000000  0.5886610000000  0.5320620000000 1.0
C      1  0.4762790000000  0.4052110000000  0.4913790000000 1.0
C      1  0.5018320000000  0.6198240000000  0.4986010000000 1.0
END
