TITL C-627106-156-1478 7719.04055143681 125000 -828.896628537886 0 0 135 (C1) n - 1
REM
REM in /home/nfs/bkarasulu/CARBON/AIRSS/Generating-Clusters/LCBOP/Only-C1/SD-CG/FIRE-CG
REM
REM
REM
REM
REM
REM ./C.cell (11c1c37f851c82e70ff6c80c92926a4b)
REM AIRSS Version 0.9.1 bugfix July 2018 build 013d7b7c2542+ Fri, 06 Jul 2018 19:26:36 +0100
REM compiler GCC version 9.2.1 20190827 (Red Hat 9.2.1-1)
REM options -cpp -mtune=generic -march=x86-64 -g -O0 -fpre-include=/usr/include/finclude/math-vector-fortran.h
REM seed 1472438447 -1244376429 -2075782136 -1206747987 1894870826 1372875416 -2011069797 356717454 -845903378 -784125133 1243532595 -422160569 -1344107853 -767954316 460648960 -1204218383 -65552093 857266294 -1216691956 1452139414 -616511220 1422808741 -1947176881 765165773 -249956884 -1402549709 -2025082074 2113508390 -1645632702 -1492161826 -1588942840 -1875370156 -466387492
REM
CELL 1.54180   50.00000   50.00000   50.00000   90.00000   90.00000   90.00000
LATT -1
SFAC C  
C      1  0.4459130000000  0.5432940000000  0.4327750000000 1.0
C      1  0.5993510000000  0.4876270000000  0.5241780000000 1.0
C      1  0.5164910000000  0.5690940000000  0.3918280000000 1.0
C      1  0.4980810000000  0.4872940000000  0.4177320000000 1.0
C      1  0.5438360000000  0.5160910000000  0.5715000000000 1.0
C      1  0.4587550000000  0.4727640000000  0.5969970000000 1.0
C      1  0.4519690000000  0.5853240000000  0.5695780000000 1.0
C      1  0.5006000000000  0.5138320000000  0.4135200000000 1.0
C      1  0.4789560000000  0.5140930000000  0.5401740000000 1.0
C      1  0.4609190000000  0.5231260000000  0.5192500000000 1.0
C      1  0.4400540000000  0.4475590000000  0.4309470000000 1.0
C      1  0.4614240000000  0.5704150000000  0.4940690000000 1.0
C      1  0.4771620000000  0.4629910000000  0.6160450000000 1.0
C      1  0.4415610000000  0.5378570000000  0.5803150000000 1.0
C      1  0.4161610000000  0.4253630000000  0.5186920000000 1.0
C      1  0.5518470000000  0.4045230000000  0.4981140000000 1.0
C      1  0.4957340000000  0.5925380000000  0.3474820000000 1.0
C      1  0.5026300000000  0.4561450000000  0.6206520000000 1.0
C      1  0.5534180000000  0.5099920000000  0.5448080000000 1.0
C      1  0.4747300000000  0.5890600000000  0.4767670000000 1.0
C      1  0.5869450000000  0.5461590000000  0.4504120000000 1.0
C      1  0.4517390000000  0.5035750000000  0.4755910000000 1.0
C      1  0.4779370000000  0.5909860000000  0.5708980000000 1.0
C      1  0.4785270000000  0.4925990000000  0.5584300000000 1.0
C      1  0.5453940000000  0.4770390000000  0.6005870000000 1.0
C      1  0.6089930000000  0.4550580000000  0.4649570000000 1.0
C      1  0.5822810000000  0.5283010000000  0.4953720000000 1.0
C      1  0.5795210000000  0.4095740000000  0.5054830000000 1.0
C      1  0.5098620000000  0.5536840000000  0.5786230000000 1.0
C      1  0.5477020000000  0.4962150000000  0.4301170000000 1.0
C      1  0.4105180000000  0.5074470000000  0.4295830000000 1.0
C      1  0.4070200000000  0.5307480000000  0.5463510000000 1.0
C      1  0.5638920000000  0.4157810000000  0.5507930000000 1.0
C      1  0.5028160000000  0.4623450000000  0.4630070000000 1.0
C      1  0.4532430000000  0.4739950000000  0.5122100000000 1.0
C      1  0.3881990000000  0.5084300000000  0.5013020000000 1.0
C      1  0.4492330000000  0.4364750000000  0.4787120000000 1.0
C      1  0.5019210000000  0.5780980000000  0.5653110000000 1.0
C      1  0.4658640000000  0.4176960000000  0.5601980000000 1.0
C      1  0.4655150000000  0.4969290000000  0.5832920000000 1.0
C      1  0.5411690000000  0.5634850000000  0.4522270000000 1.0
C      1  0.4928630000000  0.3717800000000  0.6207870000000 1.0
C      1  0.4938960000000  0.4700530000000  0.5565280000000 1.0
C      1  0.4865560000000  0.4347920000000  0.5126650000000 1.0
C      1  0.4806800000000  0.4209730000000  0.5365630000000 1.0
C      1  0.5850560000000  0.4202070000000  0.5322280000000 1.0
C      1  0.4415490000000  0.4568330000000  0.4574750000000 1.0
C      1  0.5887180000000  0.5244080000000  0.4680330000000 1.0
C      1  0.4996000000000  0.5396960000000  0.4296930000000 1.0
C      1  0.5063640000000  0.5809040000000  0.3687790000000 1.0
C      1  0.4220910000000  0.5684770000000  0.4676080000000 1.0
C      1  0.5008600000000  0.5666990000000  0.4154960000000 1.0
C      1  0.5442640000000  0.4893830000000  0.5272080000000 1.0
C      1  0.4656740000000  0.5252880000000  0.5894660000000 1.0
C      1  0.3920480000000  0.5009430000000  0.4758750000000 1.0
C      1  0.5174750000000  0.4974960000000  0.5225330000000 1.0
C      1  0.5324420000000  0.4176590000000  0.5149400000000 1.0
C      1  0.4992490000000  0.5851560000000  0.4608480000000 1.0
C      1  0.4302360000000  0.5233030000000  0.4200870000000 1.0
C      1  0.4300960000000  0.5658750000000  0.4406930000000 1.0
C      1  0.4327790000000  0.5708890000000  0.4933660000000 1.0
C      1  0.5370190000000  0.5441930000000  0.5720070000000 1.0
C      1  0.4097160000000  0.4949550000000  0.4548180000000 1.0
C      1  0.4643130000000  0.4496570000000  0.5018670000000 1.0
C      1  0.5181420000000  0.5861160000000  0.5430560000000 1.0
C      1  0.4188070000000  0.5573380000000  0.5429680000000 1.0
C      1  0.5712000000000  0.4718610000000  0.5903880000000 1.0
C      1  0.4851630000000  0.6040270000000  0.3266040000000 1.0
C      1  0.5381320000000  0.4168200000000  0.5424950000000 1.0
C      1  0.4620430000000  0.4144580000000  0.3712290000000 1.0
C      1  0.5646840000000  0.5570810000000  0.4367880000000 1.0
C      1  0.4833170000000  0.3854670000000  0.6001950000000 1.0
C      1  0.5534930000000  0.5357820000000  0.5292550000000 1.0
C      1  0.5107660000000  0.5141920000000  0.6053020000000 1.0
C      1  0.5810550000000  0.4973200000000  0.4623520000000 1.0
C      1  0.4351780000000  0.4843440000000  0.4624330000000 1.0
C      1  0.4990290000000  0.4672460000000  0.4357010000000 1.0
C      1  0.5141930000000  0.5744870000000  0.5167030000000 1.0
C      1  0.5426510000000  0.5586480000000  0.3930580000000 1.0
C      1  0.5442910000000  0.4693600000000  0.4805280000000 1.0
C      1  0.4421720000000  0.4335350000000  0.5637280000000 1.0
C      1  0.5259460000000  0.5810900000000  0.4689260000000 1.0
C      1  0.4193340000000  0.5697300000000  0.5179030000000 1.0
C      1  0.6015440000000  0.4693700000000  0.5464000000000 1.0
C      1  0.4219410000000  0.4300760000000  0.5444390000000 1.0
C      1  0.5992580000000  0.4108480000000  0.4856080000000 1.0
C      1  0.4725230000000  0.5485850000000  0.5085370000000 1.0
C      1  0.4994510000000  0.5094060000000  0.4740800000000 1.0
C      1  0.5285090000000  0.4593700000000  0.6144440000000 1.0
C      1  0.5014910000000  0.4797600000000  0.5085740000000 1.0
C      1  0.5522250000000  0.5563470000000  0.5500530000000 1.0
C      1  0.4704180000000  0.6067210000000  0.4333230000000 1.0
C      1  0.5907000000000  0.4741410000000  0.5720610000000 1.0
C      1  0.5309590000000  0.5861450000000  0.4961500000000 1.0
C      1  0.4740780000000  0.3998750000000  0.5799840000000 1.0
C      1  0.5233130000000  0.4488740000000  0.4780970000000 1.0
C      1  0.4203140000000  0.5829880000000  0.4216580000000 1.0
C      1  0.4344610000000  0.4513170000000  0.3591060000000 1.0
C      1  0.5022080000000  0.3582750000000  0.6410340000000 1.0
C      1  0.5394740000000  0.3921830000000  0.4757790000000 1.0
C      1  0.4737130000000  0.5188510000000  0.4651660000000 1.0
C      1  0.5050600000000  0.5226400000000  0.5293060000000 1.0
C      1  0.5944360000000  0.4761070000000  0.4759400000000 1.0
C      1  0.5008050000000  0.5491180000000  0.5162700000000 1.0
C      1  0.4935180000000  0.5345110000000  0.5936200000000 1.0
C      1  0.5462120000000  0.5835810000000  0.5479780000000 1.0
C      1  0.5533270000000  0.5314290000000  0.4998960000000 1.0
C      1  0.4928310000000  0.5884640000000  0.4319940000000 1.0
C      1  0.4460740000000  0.4355630000000  0.3782530000000 1.0
C      1  0.4965860000000  0.4829940000000  0.4815280000000 1.0
C      1  0.5299060000000  0.5199020000000  0.4727300000000 1.0
C      1  0.3935210000000  0.5173460000000  0.5259520000000 1.0
C      1  0.5244810000000  0.5400480000000  0.4504490000000 1.0
C      1  0.4667350000000  0.4143550000000  0.4671980000000 1.0
C      1  0.4249350000000  0.4256160000000  0.4932770000000 1.0
C      1  0.4416130000000  0.4411210000000  0.4053170000000 1.0
C      1  0.5134190000000  0.4337000000000  0.5013930000000 1.0
C      1  0.6106980000000  0.4286970000000  0.4693070000000 1.0
C      1  0.6026270000000  0.4415770000000  0.5386510000000 1.0
C      1  0.4510860000000  0.5012780000000  0.5039110000000 1.0
C      1  0.5853330000000  0.4744330000000  0.5029810000000 1.0
C      1  0.5502520000000  0.4933180000000  0.4599270000000 1.0
C      1  0.5554830000000  0.5157030000000  0.4128550000000 1.0
C      1  0.5147140000000  0.3918640000000  0.4648010000000 1.0
C      1  0.5570720000000  0.4741100000000  0.5061470000000 1.0
C      1  0.4370420000000  0.5624330000000  0.5650280000000 1.0
C      1  0.4192860000000  0.5208870000000  0.5706840000000 1.0
C      1  0.4602550000000  0.6077900000000  0.4592930000000 1.0
C      1  0.4891090000000  0.4000450000000  0.4628470000000 1.0
C      1  0.5510240000000  0.6039460000000  0.5020470000000 1.0
C      1  0.4720190000000  0.5366400000000  0.4432510000000 1.0
C      1  0.5987050000000  0.5157220000000  0.5163420000000 1.0
C      1  0.4425580000000  0.4538910000000  0.5832850000000 1.0
C      1  0.5336600000000  0.5018270000000  0.5934450000000 1.0
C      1  0.5580170000000  0.5440910000000  0.4115530000000 1.0
END
