TITL C-627109-622-1842 4123.66834620253 125000 -739.501759293194 0 0 122 (C1) n - 1
REM
REM in /home/nfs/bkarasulu/CARBON/AIRSS/Generating-Clusters/LCBOP/Only-C1/SD-CG/FIRE-CG
REM
REM
REM
REM
REM
REM ./C.cell (11c1c37f851c82e70ff6c80c92926a4b)
REM AIRSS Version 0.9.1 bugfix July 2018 build 013d7b7c2542+ Fri, 06 Jul 2018 19:26:36 +0100
REM compiler GCC version 9.2.1 20190827 (Red Hat 9.2.1-1)
REM options -cpp -mtune=generic -march=x86-64 -g -O0 -fpre-include=/usr/include/finclude/math-vector-fortran.h
REM seed 1725686968 72258511 781672868 -1233740969 770247031 1764474099 1695153216 628586313 1450849687 329009801 -359642074 178442176 -14214496 -120982495 -1093776391 -601118045 -420705133 -806319922 -477597778 -1586185049 -140867439 -655390227 -523763297 -1573473175 -533613881 -61101951 -1802156843 -518580137 -381989651 -343240732 1958126485 760767891 -323891521
REM
CELL 1.54180   50.00000   50.00000   50.00000   90.00000   90.00000   90.00000
LATT -1
SFAC C  
C      1  0.5293810000000  0.4587970000000  0.5931280000000 1.0
C      1  0.4523130000000  0.5693770000000  0.4382970000000 1.0
C      1  0.4716030000000  0.5293230000000  0.4884490000000 1.0
C      1  0.4764700000000  0.5818050000000  0.5756310000000 1.0
C      1  0.4489370000000  0.5462810000000  0.4220670000000 1.0
C      1  0.5884550000000  0.4748400000000  0.4740050000000 1.0
C      1  0.5481560000000  0.4299240000000  0.4515430000000 1.0
C      1  0.4388590000000  0.5713800000000  0.5059680000000 1.0
C      1  0.4705930000000  0.5032500000000  0.5549230000000 1.0
C      1  0.4388430000000  0.4861850000000  0.5883990000000 1.0
C      1  0.4047980000000  0.5110470000000  0.5184910000000 1.0
C      1  0.4268630000000  0.5105680000000  0.4534700000000 1.0
C      1  0.5593240000000  0.5670010000000  0.5168930000000 1.0
C      1  0.5080810000000  0.4079230000000  0.4877410000000 1.0
C      1  0.4912310000000  0.4109480000000  0.5113610000000 1.0
C      1  0.4458780000000  0.5361640000000  0.5686690000000 1.0
C      1  0.5398190000000  0.5782600000000  0.5356120000000 1.0
C      1  0.4761900000000  0.4317510000000  0.4588470000000 1.0
C      1  0.5063490000000  0.6102130000000  0.4731700000000 1.0
C      1  0.4774110000000  0.4658640000000  0.4296890000000 1.0
C      1  0.5202220000000  0.5104280000000  0.3952020000000 1.0
C      1  0.4833890000000  0.5417330000000  0.3838130000000 1.0
C      1  0.5148270000000  0.4153610000000  0.5614930000000 1.0
C      1  0.4192400000000  0.4917630000000  0.5386990000000 1.0
C      1  0.5071370000000  0.4701140000000  0.6076020000000 1.0
C      1  0.4843190000000  0.4847180000000  0.5993900000000 1.0
C      1  0.5255810000000  0.4328820000000  0.5799310000000 1.0
C      1  0.4891170000000  0.6016080000000  0.5605410000000 1.0
C      1  0.5404680000000  0.4780680000000  0.5212800000000 1.0
C      1  0.4787540000000  0.5563090000000  0.4809750000000 1.0
C      1  0.5719770000000  0.5610260000000  0.4663970000000 1.0
C      1  0.4499030000000  0.5619050000000  0.5311910000000 1.0
C      1  0.4234730000000  0.4959020000000  0.4777450000000 1.0
C      1  0.4700430000000  0.4992640000000  0.3934610000000 1.0
C      1  0.4401800000000  0.5189570000000  0.4293190000000 1.0
C      1  0.5019100000000  0.4067360000000  0.5385570000000 1.0
C      1  0.5686400000000  0.4758490000000  0.4538410000000 1.0
C      1  0.4493080000000  0.4884790000000  0.5406780000000 1.0
C      1  0.4132830000000  0.5605400000000  0.5015410000000 1.0
C      1  0.4954160000000  0.5063640000000  0.5400390000000 1.0
C      1  0.4923660000000  0.4507850000000  0.4112890000000 1.0
C      1  0.5992620000000  0.4884560000000  0.4945230000000 1.0
C      1  0.4750130000000  0.4528120000000  0.5665030000000 1.0
C      1  0.5242250000000  0.5601380000000  0.5550640000000 1.0
C      1  0.5102300000000  0.5246350000000  0.4623350000000 1.0
C      1  0.5299340000000  0.5031210000000  0.5734530000000 1.0
C      1  0.5605760000000  0.4377780000000  0.5286580000000 1.0
C      1  0.5000780000000  0.4159690000000  0.4609730000000 1.0
C      1  0.5220650000000  0.5949490000000  0.4915260000000 1.0
C      1  0.5558170000000  0.4187010000000  0.4762330000000 1.0
C      1  0.4719760000000  0.4318740000000  0.5073910000000 1.0
C      1  0.4841890000000  0.4611970000000  0.5059280000000 1.0
C      1  0.4358730000000  0.4472100000000  0.4340970000000 1.0
C      1  0.5386290000000  0.4611940000000  0.4165500000000 1.0
C      1  0.5589880000000  0.4643940000000  0.5379310000000 1.0
C      1  0.5889040000000  0.4927680000000  0.5614340000000 1.0
C      1  0.5117020000000  0.4891560000000  0.5556310000000 1.0
C      1  0.5339330000000  0.5182610000000  0.4477870000000 1.0
C      1  0.5403180000000  0.4919120000000  0.4967590000000 1.0
C      1  0.4016420000000  0.5385810000000  0.5125230000000 1.0
C      1  0.4490910000000  0.4965470000000  0.4127150000000 1.0
C      1  0.5342510000000  0.4158250000000  0.4946850000000 1.0
C      1  0.5867500000000  0.5118130000000  0.5404730000000 1.0
C      1  0.3932450000000  0.4675620000000  0.5078670000000 1.0
C      1  0.5465060000000  0.4801150000000  0.5821180000000 1.0
C      1  0.5529410000000  0.5543200000000  0.4887140000000 1.0
C      1  0.4928090000000  0.5151270000000  0.3877210000000 1.0
C      1  0.4590240000000  0.4772570000000  0.5149780000000 1.0
C      1  0.4797150000000  0.5903710000000  0.5154840000000 1.0
C      1  0.4827320000000  0.4603200000000  0.4569980000000 1.0
C      1  0.4865190000000  0.6063990000000  0.4550660000000 1.0
C      1  0.4610040000000  0.5501480000000  0.3964610000000 1.0
C      1  0.5451010000000  0.5207540000000  0.4980820000000 1.0
C      1  0.4216510000000  0.4143720000000  0.5032190000000 1.0
C      1  0.4670470000000  0.5914110000000  0.4438070000000 1.0
C      1  0.5350030000000  0.4312250000000  0.5179030000000 1.0
C      1  0.5175120000000  0.4408660000000  0.4182500000000 1.0
C      1  0.5002800000000  0.4623520000000  0.5520600000000 1.0
C      1  0.4923380000000  0.5352820000000  0.5860280000000 1.0
C      1  0.4937200000000  0.4774150000000  0.4791090000000 1.0
C      1  0.4493910000000  0.4704780000000  0.4242420000000 1.0
C      1  0.5239010000000  0.4781980000000  0.4783760000000 1.0
C      1  0.5818240000000  0.4172230000000  0.4879600000000 1.0
C      1  0.5989480000000  0.5046950000000  0.5159140000000 1.0
C      1  0.5210160000000  0.5370750000000  0.5765450000000 1.0
C      1  0.4453830000000  0.4946740000000  0.4964210000000 1.0
C      1  0.5594210000000  0.5019500000000  0.4485520000000 1.0
C      1  0.4619120000000  0.4283860000000  0.5620760000000 1.0
C      1  0.4627010000000  0.4691620000000  0.5878490000000 1.0
C      1  0.5346840000000  0.5341040000000  0.4031970000000 1.0
C      1  0.5674320000000  0.4744880000000  0.5634070000000 1.0
C      1  0.4468390000000  0.4072700000000  0.5648310000000 1.0
C      1  0.5382090000000  0.5256850000000  0.5250010000000 1.0
C      1  0.4000120000000  0.4925210000000  0.4946100000000 1.0
C      1  0.5426910000000  0.5405280000000  0.4295340000000 1.0
C      1  0.4448060000000  0.4261450000000  0.5054790000000 1.0
C      1  0.5235050000000  0.5987940000000  0.5212270000000 1.0
C      1  0.5267760000000  0.5680570000000  0.4819710000000 1.0
C      1  0.5564750000000  0.4549560000000  0.4392730000000 1.0
C      1  0.4039470000000  0.4670010000000  0.5335820000000 1.0
C      1  0.5688950000000  0.5472510000000  0.4415820000000 1.0
C      1  0.5094940000000  0.5274130000000  0.5289280000000 1.0
C      1  0.5011100000000  0.5529150000000  0.5376130000000 1.0
C      1  0.4524970000000  0.5207570000000  0.5073230000000 1.0
C      1  0.4347630000000  0.5133250000000  0.5835270000000 1.0
C      1  0.5323370000000  0.4850600000000  0.4019340000000 1.0
C      1  0.4645000000000  0.5792200000000  0.4924280000000 1.0
C      1  0.4443870000000  0.5360830000000  0.5388170000000 1.0
C      1  0.5058130000000  0.5527160000000  0.4707750000000 1.0
C      1  0.5211710000000  0.4232490000000  0.4416070000000 1.0
C      1  0.4887180000000  0.5085960000000  0.4754900000000 1.0
C      1  0.5806370000000  0.5209560000000  0.4424050000000 1.0
C      1  0.5823800000000  0.4261660000000  0.5150280000000 1.0
C      1  0.5105290000000  0.4562150000000  0.5237080000000 1.0
C      1  0.4814690000000  0.5086600000000  0.5834780000000 1.0
C      1  0.4696460000000  0.5534670000000  0.5797520000000 1.0
C      1  0.6037930000000  0.4079760000000  0.4748090000000 1.0
C      1  0.4776920000000  0.5668050000000  0.5325340000000 1.0
C      1  0.4975880000000  0.6057810000000  0.5325110000000 1.0
C      1  0.4495490000000  0.4278540000000  0.4485480000000 1.0
C      1  0.5619490000000  0.5259670000000  0.5408420000000 1.0
C      1  0.5915160000000  0.5798940000000  0.4699390000000 1.0
END
