TITL C-627110-360-1418 4.40795014776237e-07 125000 -922.186300605764 0 0 152 (C1) n - 1
REM
REM in /home/nfs/bkarasulu/CARBON/AIRSS/Generating-Clusters/LCBOP/Only-C1/SD-CG/FIRE-CG
REM
REM
REM
REM
REM
REM ./C.cell (11c1c37f851c82e70ff6c80c92926a4b)
REM AIRSS Version 0.9.1 bugfix July 2018 build 013d7b7c2542+ Fri, 06 Jul 2018 19:26:36 +0100
REM compiler GCC version 9.2.1 20190827 (Red Hat 9.2.1-1)
REM options -cpp -mtune=generic -march=x86-64 -g -O0 -fpre-include=/usr/include/finclude/math-vector-fortran.h
REM seed 1462161873 -2022666687 -695422252 1215291855 1658480715 1787395897 -1417709350 -1006259896 -894785488 15415959 787822647 -1892352109 -140987137 -104558645 1884294153 -1965470626 -1891290054 1531906728 1733506801 727314282 -213954101 -1447530165 -1486322665 -105208079 -1597140888 -839267159 -1931195997 -588829046 198361366 460144040 1907290875 4839912 854465354
REM
CELL 1.54180   50.00000   50.00000   50.00000   90.00000   90.00000   90.00000
LATT -1
SFAC C  
C      1  0.5092250000000  0.5303710000000  0.4548130000000 1.0
C      1  0.4314330000000  0.4780550000000  0.3946090000000 1.0
C      1  0.4124850000000  0.5557540000000  0.4980400000000 1.0
C      1  0.4615340000000  0.5906450000000  0.4664070000000 1.0
C      1  0.4457170000000  0.4231010000000  0.5682290000000 1.0
C      1  0.5191050000000  0.5410480000000  0.5882350000000 1.0
C      1  0.5153150000000  0.4805380000000  0.6067710000000 1.0
C      1  0.5747790000000  0.4701310000000  0.5754610000000 1.0
C      1  0.4393740000000  0.4516210000000  0.5725270000000 1.0
C      1  0.5193240000000  0.5883650000000  0.5803770000000 1.0
C      1  0.4150430000000  0.3820720000000  0.5711190000000 1.0
C      1  0.4749100000000  0.4914780000000  0.4195620000000 1.0
C      1  0.4649560000000  0.5418490000000  0.5838810000000 1.0
C      1  0.4602060000000  0.5566070000000  0.4220940000000 1.0
C      1  0.5067970000000  0.5769510000000  0.5080280000000 1.0
C      1  0.5625800000000  0.5636950000000  0.5737490000000 1.0
C      1  0.5654550000000  0.4177860000000  0.4555770000000 1.0
C      1  0.5867640000000  0.4791480000000  0.5510880000000 1.0
C      1  0.5630050000000  0.4604180000000  0.5180380000000 1.0
C      1  0.4738300000000  0.4913910000000  0.5847530000000 1.0
C      1  0.5252030000000  0.3915920000000  0.4688220000000 1.0
C      1  0.5795820000000  0.4370530000000  0.5221420000000 1.0
C      1  0.4703480000000  0.4127590000000  0.5582170000000 1.0
C      1  0.4788600000000  0.5512720000000  0.5608190000000 1.0
C      1  0.4800310000000  0.5695940000000  0.4693680000000 1.0
C      1  0.4890250000000  0.4801820000000  0.5406820000000 1.0
C      1  0.4201590000000  0.4560380000000  0.4457030000000 1.0
C      1  0.5048400000000  0.4918520000000  0.5180400000000 1.0
C      1  0.5563750000000  0.5500570000000  0.4081750000000 1.0
C      1  0.5570750000000  0.5569530000000  0.4636580000000 1.0
C      1  0.4338890000000  0.5874800000000  0.4639580000000 1.0
C      1  0.4939690000000  0.5297570000000  0.6013710000000 1.0
C      1  0.4741070000000  0.3625280000000  0.5731250000000 1.0
C      1  0.5641020000000  0.4583860000000  0.4222800000000 1.0
C      1  0.5383480000000  0.5110890000000  0.5502800000000 1.0
C      1  0.5032540000000  0.5626940000000  0.4483730000000 1.0
C      1  0.4551670000000  0.4705200000000  0.5858550000000 1.0
C      1  0.4883090000000  0.5213380000000  0.4719000000000 1.0
C      1  0.5460990000000  0.4090860000000  0.4763080000000 1.0
C      1  0.5596550000000  0.4884230000000  0.4265870000000 1.0
C      1  0.4460970000000  0.5330190000000  0.4300950000000 1.0
C      1  0.4043430000000  0.5042440000000  0.5528650000000 1.0
C      1  0.4636810000000  0.4718820000000  0.5274260000000 1.0
C      1  0.5524120000000  0.4604270000000  0.4740690000000 1.0
C      1  0.4904190000000  0.4705470000000  0.3784270000000 1.0
C      1  0.5675990000000  0.5974020000000  0.4831430000000 1.0
C      1  0.4374650000000  0.4339610000000  0.4515930000000 1.0
C      1  0.4280850000000  0.5713500000000  0.4416820000000 1.0
C      1  0.4603350000000  0.5096750000000  0.4353510000000 1.0
C      1  0.4592290000000  0.5217000000000  0.3792370000000 1.0
C      1  0.4668470000000  0.4395680000000  0.4897050000000 1.0
C      1  0.5804010000000  0.4596320000000  0.4673310000000 1.0
C      1  0.4694660000000  0.4549150000000  0.3715330000000 1.0
C      1  0.5663630000000  0.5038940000000  0.5092470000000 1.0
C      1  0.3982200000000  0.4708090000000  0.5176170000000 1.0
C      1  0.5174190000000  0.4334370000000  0.4139940000000 1.0
C      1  0.5353180000000  0.5654220000000  0.5850080000000 1.0
C      1  0.4994720000000  0.6039320000000  0.5003680000000 1.0
C      1  0.5767810000000  0.4908770000000  0.5952050000000 1.0
C      1  0.5136170000000  0.4801320000000  0.4538520000000 1.0
C      1  0.4207100000000  0.5145820000000  0.5742130000000 1.0
C      1  0.4549770000000  0.4855380000000  0.4746970000000 1.0
C      1  0.5049520000000  0.5390270000000  0.4016120000000 1.0
C      1  0.5568450000000  0.4188900000000  0.5289560000000 1.0
C      1  0.4364920000000  0.5388550000000  0.5741690000000 1.0
C      1  0.5448020000000  0.5040140000000  0.4061550000000 1.0
C      1  0.5611930000000  0.5116110000000  0.4809570000000 1.0
C      1  0.4002370000000  0.4297000000000  0.5626850000000 1.0
C      1  0.4104520000000  0.4745750000000  0.4922730000000 1.0
C      1  0.5120320000000  0.4373690000000  0.5481040000000 1.0
C      1  0.4187820000000  0.5823190000000  0.4880240000000 1.0
C      1  0.5755050000000  0.4830870000000  0.5256280000000 1.0
C      1  0.5781410000000  0.5177940000000  0.5922290000000 1.0
C      1  0.4943750000000  0.5971070000000  0.5701540000000 1.0
C      1  0.4875140000000  0.5203720000000  0.3869010000000 1.0
C      1  0.5893340000000  0.5728850000000  0.5264490000000 1.0
C      1  0.4938340000000  0.4999700000000  0.6037090000000 1.0
C      1  0.6036420000000  0.4461930000000  0.5070390000000 1.0
C      1  0.5536710000000  0.5026660000000  0.4535790000000 1.0
C      1  0.5560640000000  0.5236590000000  0.5299890000000 1.0
C      1  0.4995490000000  0.4723080000000  0.4768440000000 1.0
C      1  0.5111920000000  0.4655970000000  0.5529980000000 1.0
C      1  0.4853880000000  0.4279490000000  0.5389810000000 1.0
C      1  0.4435790000000  0.4576020000000  0.3788450000000 1.0
C      1  0.4901160000000  0.4926720000000  0.3956790000000 1.0
C      1  0.4848770000000  0.5593660000000  0.4972400000000 1.0
C      1  0.4031370000000  0.4767540000000  0.5452110000000 1.0
C      1  0.5198700000000  0.5279540000000  0.5625580000000 1.0
C      1  0.5332110000000  0.4837100000000  0.5544930000000 1.0
C      1  0.4479350000000  0.4968880000000  0.5182450000000 1.0
C      1  0.4198170000000  0.4090600000000  0.5668410000000 1.0
C      1  0.4745250000000  0.6071320000000  0.5151430000000 1.0
C      1  0.6011170000000  0.4678070000000  0.4859780000000 1.0
C      1  0.4120450000000  0.4561170000000  0.5622410000000 1.0
C      1  0.4897950000000  0.5579620000000  0.4201820000000 1.0
C      1  0.4143740000000  0.5382650000000  0.4739620000000 1.0
C      1  0.4218270000000  0.4699190000000  0.4204800000000 1.0
C      1  0.5520420000000  0.4503140000000  0.5769810000000 1.0
C      1  0.4017660000000  0.4646020000000  0.4666190000000 1.0
C      1  0.5244880000000  0.5068300000000  0.4506140000000 1.0
C      1  0.5834310000000  0.5894460000000  0.5038540000000 1.0
C      1  0.5763110000000  0.5379650000000  0.5726560000000 1.0
C      1  0.4661650000000  0.5074830000000  0.4623380000000 1.0
C      1  0.5398910000000  0.4545020000000  0.5004680000000 1.0
C      1  0.3959580000000  0.5239680000000  0.5337370000000 1.0
C      1  0.4099900000000  0.5482120000000  0.5267090000000 1.0
C      1  0.5301820000000  0.5664390000000  0.5180070000000 1.0
C      1  0.5780810000000  0.4426870000000  0.4436540000000 1.0
C      1  0.4607550000000  0.5581510000000  0.5158600000000 1.0
C      1  0.5978000000000  0.5278860000000  0.4375700000000 1.0
C      1  0.5419880000000  0.4442530000000  0.4098550000000 1.0
C      1  0.4997020000000  0.5195910000000  0.5200230000000 1.0
C      1  0.4784180000000  0.5788370000000  0.5550850000000 1.0
C      1  0.4606070000000  0.4241780000000  0.4654470000000 1.0
C      1  0.4954620000000  0.4258290000000  0.4279150000000 1.0
C      1  0.4933430000000  0.5281020000000  0.5486610000000 1.0
C      1  0.6093540000000  0.5022660000000  0.4847220000000 1.0
C      1  0.5152430000000  0.4725300000000  0.5005550000000 1.0
C      1  0.4349130000000  0.4884620000000  0.4937180000000 1.0
C      1  0.4516090000000  0.5274760000000  0.5202330000000 1.0
C      1  0.4831300000000  0.4134020000000  0.4506170000000 1.0
C      1  0.5233660000000  0.5887150000000  0.4575620000000 1.0
C      1  0.4253640000000  0.5556150000000  0.5514790000000 1.0
C      1  0.5100240000000  0.6088580000000  0.4741210000000 1.0
C      1  0.4732200000000  0.4649590000000  0.4781690000000 1.0
C      1  0.4854920000000  0.6224570000000  0.5753280000000 1.0
C      1  0.4243870000000  0.5436480000000  0.4471820000000 1.0
C      1  0.6101040000000  0.5239220000000  0.5059110000000 1.0
C      1  0.5544800000000  0.5393170000000  0.4846140000000 1.0
C      1  0.4258560000000  0.3580510000000  0.5757320000000 1.0
C      1  0.4799830000000  0.3877090000000  0.5663310000000 1.0
C      1  0.5411220000000  0.4302520000000  0.5536800000000 1.0
C      1  0.5413680000000  0.4225130000000  0.5021850000000 1.0
C      1  0.5547640000000  0.5757940000000  0.3989850000000 1.0
C      1  0.4689310000000  0.4430180000000  0.5187520000000 1.0
C      1  0.5750560000000  0.5793410000000  0.5518610000000 1.0
C      1  0.5345250000000  0.5313290000000  0.4040450000000 1.0
C      1  0.5505060000000  0.5839950000000  0.4644620000000 1.0
C      1  0.5317440000000  0.4604920000000  0.5971280000000 1.0
C      1  0.6081220000000  0.5132880000000  0.4579730000000 1.0
C      1  0.4511600000000  0.3491170000000  0.5770140000000 1.0
C      1  0.3747780000000  0.4631330000000  0.4615110000000 1.0
C      1  0.4645880000000  0.5841480000000  0.5305440000000 1.0
C      1  0.4920430000000  0.5316260000000  0.4968870000000 1.0
C      1  0.4803640000000  0.5016230000000  0.5590720000000 1.0
C      1  0.4381880000000  0.5047940000000  0.3853990000000 1.0
C      1  0.5813530000000  0.5315930000000  0.5449910000000 1.0
C      1  0.5803120000000  0.5405250000000  0.4211280000000 1.0
C      1  0.4992460000000  0.3933950000000  0.4623170000000 1.0
C      1  0.5466110000000  0.5451900000000  0.5115230000000 1.0
C      1  0.5988720000000  0.5440090000000  0.5250620000000 1.0
C      1  0.5337290000000  0.4603830000000  0.4529420000000 1.0
END
