TITL C-627112-676-1834 5.39041720208811e-07 125000 -453.146770741443 0 0 74 (C1) n - 1
REM
REM in /home/nfs/bkarasulu/CARBON/AIRSS/Generating-Clusters/LCBOP/Only-C1/SD-CG/FIRE-CG
REM
REM
REM
REM
REM
REM ./C.cell (11c1c37f851c82e70ff6c80c92926a4b)
REM AIRSS Version 0.9.1 bugfix July 2018 build 013d7b7c2542+ Fri, 06 Jul 2018 19:26:36 +0100
REM compiler GCC version 9.2.1 20190827 (Red Hat 9.2.1-1)
REM options -cpp -mtune=generic -march=x86-64 -g -O0 -fpre-include=/usr/include/finclude/math-vector-fortran.h
REM seed -1829242209 2107106435 -2085536341 -1329583005 2039389040 -1790577645 181074527 -1403698989 833346501 -1232554399 1687644343 -386242619 846958994 -589540801 -2062253869 758389597 630993516 1703835626 1201485307 -400777850 1606431964 -1709484359 -1409514316 -500190862 -418324091 -2021046291 1847532251 -1745320843 -962040395 111641953 66257976 -1245456620 464260596
REM
CELL 1.54180   50.00000   50.00000   50.00000   90.00000   90.00000   90.00000
LATT -1
SFAC C  
C      1  0.4561480000000  0.4780080000000  0.5606390000000 1.0
C      1  0.5210840000000  0.4824030000000  0.5952490000000 1.0
C      1  0.4541720000000  0.5712630000000  0.4927510000000 1.0
C      1  0.5058710000000  0.4567260000000  0.5130850000000 1.0
C      1  0.5225100000000  0.5835290000000  0.5015010000000 1.0
C      1  0.4389190000000  0.5392670000000  0.4475950000000 1.0
C      1  0.4900430000000  0.4528810000000  0.5368070000000 1.0
C      1  0.4847170000000  0.3955760000000  0.4921470000000 1.0
C      1  0.5285900000000  0.5643210000000  0.4385710000000 1.0
C      1  0.4149850000000  0.4616320000000  0.5120700000000 1.0
C      1  0.5667300000000  0.4760830000000  0.5505560000000 1.0
C      1  0.4421390000000  0.4611800000000  0.4403620000000 1.0
C      1  0.5757620000000  0.5498110000000  0.5145730000000 1.0
C      1  0.4957400000000  0.5172880000000  0.5350220000000 1.0
C      1  0.5473840000000  0.5206770000000  0.5476580000000 1.0
C      1  0.4372550000000  0.5489530000000  0.4974370000000 1.0
C      1  0.5024950000000  0.5752320000000  0.4373160000000 1.0
C      1  0.5425080000000  0.4199020000000  0.5605650000000 1.0
C      1  0.4827840000000  0.5403210000000  0.5819560000000 1.0
C      1  0.5328810000000  0.4964220000000  0.5083610000000 1.0
C      1  0.4635340000000  0.4626970000000  0.5393630000000 1.0
C      1  0.4651880000000  0.5436630000000  0.4369460000000 1.0
C      1  0.4268340000000  0.5399980000000  0.4720920000000 1.0
C      1  0.5113210000000  0.4704590000000  0.4090640000000 1.0
C      1  0.4923720000000  0.4565990000000  0.4227570000000 1.0
C      1  0.4709020000000  0.4692660000000  0.4386340000000 1.0
C      1  0.5243030000000  0.5137220000000  0.5318600000000 1.0
C      1  0.5336370000000  0.5914240000000  0.4784840000000 1.0
C      1  0.5188220000000  0.4285550000000  0.5698520000000 1.0
C      1  0.5567850000000  0.4991000000000  0.5641480000000 1.0
C      1  0.5550560000000  0.4289620000000  0.5369220000000 1.0
C      1  0.4747720000000  0.4881290000000  0.5795800000000 1.0
C      1  0.5716180000000  0.5147830000000  0.4498730000000 1.0
C      1  0.4374740000000  0.4155710000000  0.5043110000000 1.0
C      1  0.5326790000000  0.4673630000000  0.5180330000000 1.0
C      1  0.4246860000000  0.5095800000000  0.5222650000000 1.0
C      1  0.5167630000000  0.4967480000000  0.4063350000000 1.0
C      1  0.5112920000000  0.3943310000000  0.4917840000000 1.0
C      1  0.5724870000000  0.5189150000000  0.4776320000000 1.0
C      1  0.4771780000000  0.5649070000000  0.4776610000000 1.0
C      1  0.5580980000000  0.5024650000000  0.4948620000000 1.0
C      1  0.4935920000000  0.5457180000000  0.4920380000000 1.0
C      1  0.5009930000000  0.5643940000000  0.5398530000000 1.0
C      1  0.4926180000000  0.5582270000000  0.5645670000000 1.0
C      1  0.5074760000000  0.5622060000000  0.5123660000000 1.0
C      1  0.5767900000000  0.5457150000000  0.4866160000000 1.0
C      1  0.4435440000000  0.5305150000000  0.5191790000000 1.0
C      1  0.5541310000000  0.4119390000000  0.5146200000000 1.0
C      1  0.5461060000000  0.5758390000000  0.4584420000000 1.0
C      1  0.5094910000000  0.4970140000000  0.4899240000000 1.0
C      1  0.4751350000000  0.5151890000000  0.5873360000000 1.0
C      1  0.4363380000000  0.4906700000000  0.4800880000000 1.0
C      1  0.5091260000000  0.5217570000000  0.4181600000000 1.0
C      1  0.4644720000000  0.4989410000000  0.4783410000000 1.0
C      1  0.4780210000000  0.4737540000000  0.4679350000000 1.0
C      1  0.5557950000000  0.5246040000000  0.4306380000000 1.0
C      1  0.5021570000000  0.4501180000000  0.5632770000000 1.0
C      1  0.4266510000000  0.4750600000000  0.4581310000000 1.0
C      1  0.4808630000000  0.5227590000000  0.4251330000000 1.0
C      1  0.4697460000000  0.5250070000000  0.5303190000000 1.0
C      1  0.5542370000000  0.4572580000000  0.5334700000000 1.0
C      1  0.5364160000000  0.3996550000000  0.4988440000000 1.0
C      1  0.4986600000000  0.4721660000000  0.5817710000000 1.0
C      1  0.4982680000000  0.4692540000000  0.4875950000000 1.0
C      1  0.4794430000000  0.5649770000000  0.4494750000000 1.0
C      1  0.4211580000000  0.4357290000000  0.5103450000000 1.0
C      1  0.4687260000000  0.4972050000000  0.4256200000000 1.0
C      1  0.5708150000000  0.5653290000000  0.4671630000000 1.0
C      1  0.5441100000000  0.4945640000000  0.5888430000000 1.0
C      1  0.4884310000000  0.5171030000000  0.4860870000000 1.0
C      1  0.4595660000000  0.4025170000000  0.4973040000000 1.0
C      1  0.4230140000000  0.4875180000000  0.5050880000000 1.0
C      1  0.5644640000000  0.5406360000000  0.5372310000000 1.0
C      1  0.5311270000000  0.5379490000000  0.4275250000000 1.0
END
