TITL C-627113-6568-1971 40256.6785176443 125000 -1212.83724985118 0 0 198 (C1) n - 1
REM
REM in /home/nfs/bkarasulu/CARBON/AIRSS/Generating-Clusters/LCBOP/Only-C1/SD-CG/FIRE-CG
REM
REM
REM
REM
REM
REM ./C.cell (11c1c37f851c82e70ff6c80c92926a4b)
REM AIRSS Version 0.9.1 bugfix July 2018 build 013d7b7c2542+ Fri, 06 Jul 2018 19:26:36 +0100
REM compiler GCC version 9.2.1 20190827 (Red Hat 9.2.1-1)
REM options -cpp -mtune=generic -march=x86-64 -g -O0 -fpre-include=/usr/include/finclude/math-vector-fortran.h
REM seed -1156156203 1882035600 112065450 883422236 473435705 968398179 1677356559 1806564126 -457889425 -1808798205 1084014914 -342989385 1575688821 -21716345 931855384 -229907484 687600804 962295768 235486332 -91048842 1873157350 1024222246 390923408 980776995 -1734934899 1882692820 -400897395 -1639610612 -1440008210 -459282399 483554602 -1968909600 -383814809
REM
CELL 1.54180   50.00000   50.00000   50.00000   90.00000   90.00000   90.00000
LATT -1
SFAC C  
C      1  0.6084950000000  0.4914150000000  0.4919640000000 1.0
C      1  0.6141080000000  0.4655260000000  0.4874140000000 1.0
C      1  0.4901950000000  0.5745070000000  0.5472500000000 1.0
C      1  0.5424980000000  0.4491250000000  0.4033190000000 1.0
C      1  0.5127170000000  0.5443700000000  0.4581370000000 1.0
C      1  0.4072900000000  0.4060810000000  0.5089040000000 1.0
C      1  0.4909920000000  0.4478640000000  0.6076060000000 1.0
C      1  0.4465220000000  0.4710590000000  0.3946070000000 1.0
C      1  0.4916030000000  0.6012680000000  0.4211950000000 1.0
C      1  0.5438700000000  0.6160640000000  0.5541040000000 1.0
C      1  0.4771570000000  0.5788680000000  0.4167450000000 1.0
C      1  0.4656620000000  0.4980450000000  0.6518010000000 1.0
C      1  0.5967980000000  0.4540430000000  0.4106320000000 1.0
C      1  0.5221160000000  0.4695580000000  0.4559230000000 1.0
C      1  0.4771670000000  0.6100210000000  0.5067490000000 1.0
C      1  0.4636680000000  0.4260010000000  0.5186170000000 1.0
C      1  0.5491550000000  0.5746630000000  0.5882370000000 1.0
C      1  0.5168530000000  0.4365760000000  0.5027220000000 1.0
C      1  0.3650060000000  0.4214590000000  0.5270200000000 1.0
C      1  0.5665670000000  0.5587350000000  0.4386000000000 1.0
C      1  0.4165630000000  0.5117340000000  0.5177850000000 1.0
C      1  0.5218400000000  0.4158460000000  0.5814140000000 1.0
C      1  0.4625450000000  0.5692690000000  0.5384720000000 1.0
C      1  0.4008950000000  0.4533310000000  0.5186980000000 1.0
C      1  0.5860410000000  0.4975090000000  0.5653610000000 1.0
C      1  0.6283980000000  0.4791440000000  0.3217380000000 1.0
C      1  0.4059470000000  0.4165280000000  0.4627230000000 1.0
C      1  0.4147210000000  0.5807460000000  0.4250900000000 1.0
C      1  0.5197250000000  0.6120000000000  0.4625770000000 1.0
C      1  0.6100000000000  0.4621210000000  0.5412300000000 1.0
C      1  0.6374280000000  0.6001590000000  0.4869250000000 1.0
C      1  0.4178640000000  0.5447350000000  0.4801380000000 1.0
C      1  0.4687020000000  0.3843370000000  0.4964590000000 1.0
C      1  0.4575490000000  0.4407910000000  0.5415050000000 1.0
C      1  0.4838470000000  0.4842850000000  0.5008100000000 1.0
C      1  0.4363700000000  0.5186090000000  0.3844790000000 1.0
C      1  0.3904310000000  0.4266790000000  0.5184940000000 1.0
C      1  0.5231620000000  0.5064000000000  0.5065760000000 1.0
C      1  0.4486890000000  0.5376020000000  0.6017340000000 1.0
C      1  0.4488270000000  0.5359620000000  0.4261390000000 1.0
C      1  0.5663090000000  0.6022890000000  0.4715580000000 1.0
C      1  0.4044740000000  0.4683820000000  0.4939060000000 1.0
C      1  0.4994890000000  0.5186530000000  0.3719200000000 1.0
C      1  0.4404970000000  0.6033870000000  0.4660350000000 1.0
C      1  0.4953740000000  0.4734710000000  0.6207250000000 1.0
C      1  0.5883270000000  0.4791030000000  0.5419410000000 1.0
C      1  0.5603750000000  0.5478790000000  0.5884540000000 1.0
C      1  0.5677840000000  0.5758280000000  0.5338570000000 1.0
C      1  0.3895230000000  0.5390980000000  0.5812450000000 1.0
C      1  0.4750770000000  0.5025860000000  0.4839890000000 1.0
C      1  0.5705120000000  0.4535270000000  0.4002210000000 1.0
C      1  0.5140450000000  0.3785510000000  0.5180100000000 1.0
C      1  0.5712080000000  0.5994080000000  0.5192410000000 1.0
C      1  0.6002780000000  0.5223290000000  0.5661110000000 1.0
C      1  0.4713100000000  0.4949030000000  0.5616770000000 1.0
C      1  0.5361360000000  0.4559850000000  0.6102810000000 1.0
C      1  0.5428630000000  0.5607660000000  0.5302490000000 1.0
C      1  0.4979430000000  0.5646770000000  0.5725690000000 1.0
C      1  0.4723980000000  0.4556860000000  0.3934120000000 1.0
C      1  0.5026050000000  0.4473950000000  0.5472760000000 1.0
C      1  0.5382810000000  0.4133710000000  0.5380000000000 1.0
C      1  0.5544110000000  0.5102970000000  0.4314110000000 1.0
C      1  0.3663410000000  0.4979030000000  0.4939350000000 1.0
C      1  0.5157210000000  0.4298040000000  0.5294300000000 1.0
C      1  0.4226730000000  0.4691040000000  0.4108820000000 1.0
C      1  0.3948280000000  0.5668870000000  0.5758160000000 1.0
C      1  0.6215210000000  0.4738730000000  0.3735760000000 1.0
C      1  0.5417790000000  0.6315080000000  0.5026310000000 1.0
C      1  0.5432860000000  0.4398360000000  0.4935520000000 1.0
C      1  0.5435290000000  0.6199150000000  0.4758810000000 1.0
C      1  0.5098620000000  0.4432130000000  0.4576430000000 1.0
C      1  0.5771330000000  0.3982630000000  0.4356120000000 1.0
C      1  0.4568190000000  0.6084240000000  0.4867890000000 1.0
C      1  0.4747330000000  0.5177750000000  0.4609040000000 1.0
C      1  0.6345870000000  0.5519520000000  0.5491830000000 1.0
C      1  0.4756120000000  0.6285510000000  0.5268410000000 1.0
C      1  0.4090920000000  0.5220780000000  0.4651240000000 1.0
C      1  0.5958400000000  0.5128580000000  0.5021480000000 1.0
C      1  0.4697650000000  0.4396650000000  0.4936290000000 1.0
C      1  0.4538470000000  0.4886190000000  0.5403150000000 1.0
C      1  0.4548860000000  0.4049930000000  0.4523570000000 1.0
C      1  0.4763260000000  0.5421140000000  0.6099710000000 1.0
C      1  0.5899960000000  0.3944230000000  0.4934400000000 1.0
C      1  0.6160200000000  0.5715860000000  0.5459190000000 1.0
C      1  0.3986680000000  0.5802350000000  0.5301320000000 1.0
C      1  0.3786810000000  0.5694450000000  0.5154900000000 1.0
C      1  0.5134540000000  0.5419550000000  0.5700190000000 1.0
C      1  0.4070530000000  0.4616580000000  0.4347510000000 1.0
C      1  0.5417940000000  0.5108910000000  0.5470540000000 1.0
C      1  0.5077410000000  0.4848540000000  0.5142180000000 1.0
C      1  0.5364710000000  0.4261220000000  0.4189370000000 1.0
C      1  0.4798950000000  0.4740210000000  0.4367160000000 1.0
C      1  0.6252670000000  0.4762540000000  0.3474570000000 1.0
C      1  0.4831100000000  0.4972200000000  0.6309130000000 1.0
C      1  0.4724740000000  0.5510870000000  0.4197250000000 1.0
C      1  0.4429230000000  0.4451830000000  0.5961520000000 1.0
C      1  0.4867190000000  0.5661300000000  0.5983160000000 1.0
C      1  0.5044810000000  0.4887390000000  0.4428700000000 1.0
C      1  0.4956610000000  0.5211440000000  0.6184220000000 1.0
C      1  0.6270900000000  0.5276390000000  0.5588360000000 1.0
C      1  0.4194250000000  0.4019610000000  0.4839590000000 1.0
C      1  0.5483120000000  0.5217970000000  0.4789940000000 1.0
C      1  0.5835540000000  0.5459390000000  0.5705160000000 1.0
C      1  0.5385450000000  0.4955950000000  0.4117630000000 1.0
C      1  0.4636770000000  0.4525970000000  0.4385080000000 1.0
C      1  0.5548300000000  0.5030960000000  0.4596660000000 1.0
C      1  0.5671080000000  0.5822100000000  0.4516090000000 1.0
C      1  0.4949880000000  0.5334890000000  0.4176730000000 1.0
C      1  0.4958290000000  0.3723600000000  0.4951340000000 1.0
C      1  0.3920230000000  0.5159540000000  0.5312710000000 1.0
C      1  0.3881020000000  0.4805800000000  0.4500510000000 1.0
C      1  0.5250960000000  0.5116580000000  0.6115630000000 1.0
C      1  0.6045380000000  0.4361720000000  0.4311180000000 1.0
C      1  0.4999250000000  0.5689800000000  0.4601120000000 1.0
C      1  0.4309320000000  0.5023100000000  0.4637920000000 1.0
C      1  0.5521010000000  0.6195630000000  0.5266160000000 1.0
C      1  0.6275690000000  0.4910460000000  0.4184400000000 1.0
C      1  0.4134230000000  0.5598170000000  0.4078890000000 1.0
C      1  0.3704140000000  0.5194350000000  0.5128080000000 1.0
C      1  0.4422250000000  0.5066000000000  0.5226950000000 1.0
C      1  0.5115820000000  0.5775430000000  0.5266380000000 1.0
C      1  0.4270780000000  0.5181800000000  0.6096480000000 1.0
C      1  0.4612660000000  0.5549640000000  0.5131080000000 1.0
C      1  0.4405310000000  0.5672690000000  0.5570680000000 1.0
C      1  0.5238500000000  0.4816840000000  0.6157420000000 1.0
C      1  0.3816590000000  0.4779380000000  0.4793380000000 1.0
C      1  0.5553830000000  0.4052050000000  0.4214590000000 1.0
C      1  0.4056720000000  0.4635010000000  0.5706280000000 1.0
C      1  0.4967290000000  0.4380100000000  0.4830700000000 1.0
C      1  0.5840550000000  0.6005350000000  0.4939530000000 1.0
C      1  0.5080100000000  0.5330590000000  0.3929610000000 1.0
C      1  0.3974840000000  0.5228560000000  0.5583100000000 1.0
C      1  0.5553320000000  0.4659470000000  0.4950760000000 1.0
C      1  0.5528450000000  0.5320340000000  0.5307100000000 1.0
C      1  0.4173130000000  0.4364490000000  0.4461030000000 1.0
C      1  0.5249410000000  0.4722680000000  0.3996160000000 1.0
C      1  0.4941540000000  0.3895880000000  0.5393060000000 1.0
C      1  0.5531510000000  0.4164820000000  0.4826300000000 1.0
C      1  0.6388750000000  0.5086370000000  0.4339910000000 1.0
C      1  0.5677090000000  0.5346860000000  0.4235370000000 1.0
C      1  0.4125210000000  0.5762560000000  0.5546050000000 1.0
C      1  0.4993610000000  0.4012180000000  0.4337010000000 1.0
C      1  0.5071400000000  0.5904730000000  0.4763480000000 1.0
C      1  0.4747680000000  0.3922040000000  0.4377240000000 1.0
C      1  0.5664960000000  0.4991200000000  0.5869220000000 1.0
C      1  0.4834140000000  0.4961290000000  0.3760950000000 1.0
C      1  0.5174080000000  0.5168790000000  0.5605120000000 1.0
C      1  0.4508060000000  0.4584590000000  0.4842410000000 1.0
C      1  0.5032910000000  0.3974260000000  0.5664800000000 1.0
C      1  0.5415300000000  0.3903420000000  0.5202380000000 1.0
C      1  0.4262710000000  0.5230490000000  0.5621930000000 1.0
C      1  0.6027120000000  0.4140440000000  0.4758550000000 1.0
C      1  0.4998060000000  0.5198310000000  0.4442010000000 1.0
C      1  0.4296180000000  0.4770240000000  0.4808190000000 1.0
C      1  0.4458460000000  0.4312330000000  0.4434530000000 1.0
C      1  0.5446910000000  0.5983850000000  0.5751490000000 1.0
C      1  0.5971810000000  0.4141870000000  0.4474650000000 1.0
C      1  0.5615820000000  0.3947610000000  0.4992690000000 1.0
C      1  0.4709110000000  0.3988060000000  0.5220770000000 1.0
C      1  0.6154470000000  0.4730720000000  0.4008220000000 1.0
C      1  0.4704170000000  0.4426940000000  0.5887710000000 1.0
C      1  0.5117960000000  0.5315850000000  0.5022700000000 1.0
C      1  0.6116830000000  0.6006300000000  0.4909390000000 1.0
C      1  0.4542600000000  0.4965740000000  0.3817130000000 1.0
C      1  0.4502640000000  0.5171740000000  0.4477070000000 1.0
C      1  0.4966330000000  0.4722350000000  0.3883040000000 1.0
C      1  0.4233000000000  0.4661500000000  0.5933350000000 1.0
C      1  0.5884280000000  0.5670940000000  0.5513270000000 1.0
C      1  0.4001920000000  0.5281560000000  0.6059320000000 1.0
C      1  0.5284640000000  0.5401800000000  0.4800870000000 1.0
C      1  0.4420780000000  0.5437430000000  0.5737150000000 1.0
C      1  0.5421460000000  0.4780400000000  0.5446470000000 1.0
C      1  0.4600040000000  0.4938200000000  0.5869850000000 1.0
C      1  0.5495150000000  0.4530810000000  0.5630200000000 1.0
C      1  0.5088040000000  0.6155150000000  0.4366350000000 1.0
C      1  0.5469550000000  0.4775230000000  0.4686110000000 1.0
C      1  0.4135370000000  0.4609990000000  0.5432350000000 1.0
C      1  0.4471120000000  0.3941890000000  0.4781410000000 1.0
C      1  0.4414920000000  0.4632710000000  0.5405040000000 1.0
C      1  0.3650340000000  0.5470340000000  0.5087000000000 1.0
C      1  0.5646150000000  0.4747990000000  0.5233130000000 1.0
C      1  0.4382080000000  0.5537770000000  0.4960340000000 1.0
C      1  0.4780890000000  0.4418610000000  0.5609210000000 1.0
C      1  0.5501330000000  0.5211440000000  0.5982300000000 1.0
C      1  0.4296960000000  0.5368170000000  0.4052740000000 1.0
C      1  0.4988340000000  0.4959710000000  0.5583170000000 1.0
C      1  0.5146050000000  0.4243520000000  0.4367140000000 1.0
C      1  0.4255720000000  0.5946090000000  0.4454620000000 1.0
C      1  0.4346400000000  0.4918640000000  0.6000580000000 1.0
C      1  0.5437010000000  0.4246160000000  0.5637990000000 1.0
C      1  0.5820990000000  0.5346910000000  0.4001270000000 1.0
C      1  0.5005860000000  0.5929720000000  0.5037100000000 1.0
C      1  0.5767380000000  0.5261930000000  0.5156520000000 1.0
C      1  0.5169030000000  0.4347360000000  0.6025230000000 1.0
C      1  0.5115290000000  0.4746310000000  0.5418210000000 1.0
C      1  0.6126120000000  0.4387270000000  0.4859740000000 1.0
C      1  0.3897170000000  0.5099160000000  0.4475250000000 1.0
C      1  0.4856970000000  0.5412150000000  0.5071540000000 1.0
END
