TITL C-627110-360-1747 69.5761523484793 125000 -539.620246543244 0 0 88 (C1) n - 1
REM
REM in /home/nfs/bkarasulu/CARBON/AIRSS/Generating-Clusters/LCBOP/Only-C1/SD-CG/FIRE-CG
REM
REM
REM
REM
REM
REM ./C.cell (11c1c37f851c82e70ff6c80c92926a4b)
REM AIRSS Version 0.9.1 bugfix July 2018 build 013d7b7c2542+ Fri, 06 Jul 2018 19:26:36 +0100
REM compiler GCC version 9.2.1 20190827 (Red Hat 9.2.1-1)
REM options -cpp -mtune=generic -march=x86-64 -g -O0 -fpre-include=/usr/include/finclude/math-vector-fortran.h
REM seed 703046664 -919144130 490210386 256167701 -670686353 -1712959749 277870406 2062602663 -1377181695 -977354017 -1947269236 1511026552 725982212 414137818 205898518 -1673798771 -2100000157 821426925 -134411867 -369230512 2144763222 1678470402 -1078998983 -1108234440 282255318 1156132457 335593131 746550632 -1804413850 737032211 -1606412447 1812599758 -762864152
REM
CELL 1.54180   50.00000   50.00000   50.00000   90.00000   90.00000   90.00000
LATT -1
SFAC C  
C      1  0.5132150000000  0.5236110000000  0.5102610000000 1.0
C      1  0.5876080000000  0.5070550000000  0.4968540000000 1.0
C      1  0.4656560000000  0.4659250000000  0.4513120000000 1.0
C      1  0.5015190000000  0.4275630000000  0.5027880000000 1.0
C      1  0.5507990000000  0.5668260000000  0.4759410000000 1.0
C      1  0.4487100000000  0.5491140000000  0.4486870000000 1.0
C      1  0.5350270000000  0.4574820000000  0.4525230000000 1.0
C      1  0.4907490000000  0.4705130000000  0.4340360000000 1.0
C      1  0.5405420000000  0.4829560000000  0.5571690000000 1.0
C      1  0.5744690000000  0.5315740000000  0.5078070000000 1.0
C      1  0.4443220000000  0.5410940000000  0.5726900000000 1.0
C      1  0.4504830000000  0.5056590000000  0.4771430000000 1.0
C      1  0.5828360000000  0.5333670000000  0.4590990000000 1.0
C      1  0.5758980000000  0.4828340000000  0.5056560000000 1.0
C      1  0.5048560000000  0.4556430000000  0.5055970000000 1.0
C      1  0.5126930000000  0.3994180000000  0.6127430000000 1.0
C      1  0.4174350000000  0.4811110000000  0.4555750000000 1.0
C      1  0.5310510000000  0.4631110000000  0.5137530000000 1.0
C      1  0.5186080000000  0.5206990000000  0.5753530000000 1.0
C      1  0.4934300000000  0.5605260000000  0.5706640000000 1.0
C      1  0.4727580000000  0.5921500000000  0.4505330000000 1.0
C      1  0.4214020000000  0.4831330000000  0.5302460000000 1.0
C      1  0.5392670000000  0.4588050000000  0.5410180000000 1.0
C      1  0.4670850000000  0.5554830000000  0.5755710000000 1.0
C      1  0.4839280000000  0.5654770000000  0.4953950000000 1.0
C      1  0.5703480000000  0.5474560000000  0.4823380000000 1.0
C      1  0.4826300000000  0.4730270000000  0.5001200000000 1.0
C      1  0.5169580000000  0.4927950000000  0.5700030000000 1.0
C      1  0.4437730000000  0.4608000000000  0.5304100000000 1.0
C      1  0.4416150000000  0.4390220000000  0.5099050000000 1.0
C      1  0.5502520000000  0.4330260000000  0.5446980000000 1.0
C      1  0.5152890000000  0.5440440000000  0.5563730000000 1.0
C      1  0.5558340000000  0.4136350000000  0.5266590000000 1.0
C      1  0.4821160000000  0.5402480000000  0.4816870000000 1.0
C      1  0.4756450000000  0.5216090000000  0.5384690000000 1.0
C      1  0.5372640000000  0.4812290000000  0.4696550000000 1.0
C      1  0.4501110000000  0.5772990000000  0.4521770000000 1.0
C      1  0.4766970000000  0.4945120000000  0.5434910000000 1.0
C      1  0.5205500000000  0.5062140000000  0.4650210000000 1.0
C      1  0.5804190000000  0.4835370000000  0.5340930000000 1.0
C      1  0.4485000000000  0.4570790000000  0.5615080000000 1.0
C      1  0.5389020000000  0.5725700000000  0.5227950000000 1.0
C      1  0.5506090000000  0.4344260000000  0.4596740000000 1.0
C      1  0.5979450000000  0.5122730000000  0.4711670000000 1.0
C      1  0.4697260000000  0.4835960000000  0.4764140000000 1.0
C      1  0.4580230000000  0.5318640000000  0.4698270000000 1.0
C      1  0.5050570000000  0.5420640000000  0.4292860000000 1.0
C      1  0.5528250000000  0.4068110000000  0.5007480000000 1.0
C      1  0.5700170000000  0.5279580000000  0.4347440000000 1.0
C      1  0.4449100000000  0.5876980000000  0.5245910000000 1.0
C      1  0.4680840000000  0.4370300000000  0.4629810000000 1.0
C      1  0.5623200000000  0.5302100000000  0.5360590000000 1.0
C      1  0.4677080000000  0.4774970000000  0.5233840000000 1.0
C      1  0.4647050000000  0.5756250000000  0.5126890000000 1.0
C      1  0.5050940000000  0.5232080000000  0.4834490000000 1.0
C      1  0.4276840000000  0.5213250000000  0.5646690000000 1.0
C      1  0.5150960000000  0.5667860000000  0.4403900000000 1.0
C      1  0.4992900000000  0.4183120000000  0.6007870000000 1.0
C      1  0.4556790000000  0.5413420000000  0.4224890000000 1.0
C      1  0.4864220000000  0.4376120000000  0.5879920000000 1.0
C      1  0.4234280000000  0.4962090000000  0.4790150000000 1.0
C      1  0.5626370000000  0.5016840000000  0.5486290000000 1.0
C      1  0.4845640000000  0.5086800000000  0.4018370000000 1.0
C      1  0.5422340000000  0.5685710000000  0.4487600000000 1.0
C      1  0.4130900000000  0.4924760000000  0.5049930000000 1.0
C      1  0.5394390000000  0.4146300000000  0.4770450000000 1.0
C      1  0.4993310000000  0.5847010000000  0.4566080000000 1.0
C      1  0.5420290000000  0.5514360000000  0.5423470000000 1.0
C      1  0.4993320000000  0.5346950000000  0.5320200000000 1.0
C      1  0.4955970000000  0.4284630000000  0.4567560000000 1.0
C      1  0.5322220000000  0.5769500000000  0.4954510000000 1.0
C      1  0.4906830000000  0.4815970000000  0.5647800000000 1.0
C      1  0.4207440000000  0.4947970000000  0.5573320000000 1.0
C      1  0.4512400000000  0.4312950000000  0.4855590000000 1.0
C      1  0.5192400000000  0.5143220000000  0.4356000000000 1.0
C      1  0.5472370000000  0.5172450000000  0.4252570000000 1.0
C      1  0.4757670000000  0.4580260000000  0.5724620000000 1.0
C      1  0.5500080000000  0.4745010000000  0.4950850000000 1.0
C      1  0.4182000000000  0.4683870000000  0.5999760000000 1.0
C      1  0.4755340000000  0.4996150000000  0.3779820000000 1.0
C      1  0.4379390000000  0.4701930000000  0.4408840000000 1.0
C      1  0.4283150000000  0.4731380000000  0.5752230000000 1.0
C      1  0.5054720000000  0.5813690000000  0.4852120000000 1.0
C      1  0.4813620000000  0.5349400000000  0.4131600000000 1.0
C      1  0.5104800000000  0.4164490000000  0.4782510000000 1.0
C      1  0.4999750000000  0.4942990000000  0.4214770000000 1.0
C      1  0.5093350000000  0.4501330000000  0.4423440000000 1.0
C      1  0.5321220000000  0.5063320000000  0.5168030000000 1.0
END
