TITL C-627111-6168-1999 3.72718445466932e-05 125000 -164.54006359437 0 0 29 (C1) n - 1
REM
REM in /home/nfs/bkarasulu/CARBON/AIRSS/Generating-Clusters/LCBOP/Only-C1/SD-CG/FIRE-CG
REM
REM
REM
REM
REM
REM ./C.cell (11c1c37f851c82e70ff6c80c92926a4b)
REM AIRSS Version 0.9.1 bugfix July 2018 build 013d7b7c2542+ Fri, 06 Jul 2018 19:26:36 +0100
REM compiler GCC version 9.2.1 20190827 (Red Hat 9.2.1-1)
REM options -cpp -mtune=generic -march=x86-64 -g -O0 -fpre-include=/usr/include/finclude/math-vector-fortran.h
REM seed -1582728237 -1681159917 -198138224 -1675304649 98189264 -504604777 2103535747 182879573 -1095087630 -437363266 1601929389 -1859305512 563818994 1148772517 889227379 -1949692993 2029983983 -582463930 1370580844 1412778247 -782760599 92227686 1855642699 -1896723445 1517444496 -464829330 641373956 1010191227 1960319419 -1344347763 -1125368753 23727516 1361417668
REM
CELL 1.54180   50.00000   50.00000   50.00000   90.00000   90.00000   90.00000
LATT -1
SFAC C  
C      1  0.5510960000000  0.4373940000000  0.4689770000000 1.0
C      1  0.5095450000000  0.6029980000000  0.4611140000000 1.0
C      1  0.4616870000000  0.4341300000000  0.5003230000000 1.0
C      1  0.5297360000000  0.4545880000000  0.4735330000000 1.0
C      1  0.4951810000000  0.4586970000000  0.5621500000000 1.0
C      1  0.4971320000000  0.5871630000000  0.5311750000000 1.0
C      1  0.5144530000000  0.5212700000000  0.5003060000000 1.0
C      1  0.4273280000000  0.4903190000000  0.5045050000000 1.0
C      1  0.5309560000000  0.5442380000000  0.4999950000000 1.0
C      1  0.5711000000000  0.4212450000000  0.4647070000000 1.0
C      1  0.4770960000000  0.4522980000000  0.4848330000000 1.0
C      1  0.4694650000000  0.5116500000000  0.5170240000000 1.0
C      1  0.4808770000000  0.4401940000000  0.5494000000000 1.0
C      1  0.4541640000000  0.4936940000000  0.5014330000000 1.0
C      1  0.5330370000000  0.4826620000000  0.4749260000000 1.0
C      1  0.4969970000000  0.5156300000000  0.5223160000000 1.0
C      1  0.5137850000000  0.5029460000000  0.4784280000000 1.0
C      1  0.5205180000000  0.5683000000000  0.4901080000000 1.0
C      1  0.4683110000000  0.4317910000000  0.5275020000000 1.0
C      1  0.4414050000000  0.4196350000000  0.4891930000000 1.0
C      1  0.5045300000000  0.5882420000000  0.5051100000000 1.0
C      1  0.5228460000000  0.5787110000000  0.4630410000000 1.0
C      1  0.4696330000000  0.4798070000000  0.4818710000000 1.0
C      1  0.5566560000000  0.5429340000000  0.5092800000000 1.0
C      1  0.4881280000000  0.4964290000000  0.4680490000000 1.0
C      1  0.4984640000000  0.6091700000000  0.4858120000000 1.0
C      1  0.5069310000000  0.5054070000000  0.5464680000000 1.0
C      1  0.5055900000000  0.4832380000000  0.5613030000000 1.0
C      1  0.5033520000000  0.4452210000000  0.4771150000000 1.0
END
