TITL C-627106-156-1182 -2.97122902897868e-07 125000 -1061.13136030705 0 0 173 (C1) n - 1
REM
REM in /home/nfs/bkarasulu/CARBON/AIRSS/Generating-Clusters/LCBOP/Only-C1/SD-CG/FIRE-CG
REM
REM
REM
REM
REM
REM ./C.cell (11c1c37f851c82e70ff6c80c92926a4b)
REM AIRSS Version 0.9.1 bugfix July 2018 build 013d7b7c2542+ Fri, 06 Jul 2018 19:26:36 +0100
REM compiler GCC version 9.2.1 20190827 (Red Hat 9.2.1-1)
REM options -cpp -mtune=generic -march=x86-64 -g -O0 -fpre-include=/usr/include/finclude/math-vector-fortran.h
REM seed 689943983 599417204 -1780741909 2040484499 125728596 990955033 -2075843096 -142079661 -1825152277 -1172867255 -1022974959 957429437 1594385237 -162022857 1925335469 1131656506 -1915222243 208451111 2114638105 -1994137730 1489278376 -972506015 -402463525 194418788 1666552321 -1781947755 -1756092816 -873522626 -1587800275 -87128430 -396926130 -2130519944 -1371929131
REM
CELL 1.54180   50.00000   50.00000   50.00000   90.00000   90.00000   90.00000
LATT -1
SFAC C  
C      1  0.5577980000000  0.5974640000000  0.4428510000000 1.0
C      1  0.5512760000000  0.5641080000000  0.5511890000000 1.0
C      1  0.5571800000000  0.5545980000000  0.4681250000000 1.0
C      1  0.5168560000000  0.3594560000000  0.5307300000000 1.0
C      1  0.5873660000000  0.4498150000000  0.4451120000000 1.0
C      1  0.5288650000000  0.5116970000000  0.4974000000000 1.0
C      1  0.5978120000000  0.5432950000000  0.5030950000000 1.0
C      1  0.4586930000000  0.5351730000000  0.4404200000000 1.0
C      1  0.4839550000000  0.5421340000000  0.4446210000000 1.0
C      1  0.4410230000000  0.4146680000000  0.5142790000000 1.0
C      1  0.5077090000000  0.5921710000000  0.5305890000000 1.0
C      1  0.4438070000000  0.4416470000000  0.4305510000000 1.0
C      1  0.4695800000000  0.5161620000000  0.4007370000000 1.0
C      1  0.4946080000000  0.6032610000000  0.5062210000000 1.0
C      1  0.3860140000000  0.4644370000000  0.5016300000000 1.0
C      1  0.5365310000000  0.4075310000000  0.4645020000000 1.0
C      1  0.4046920000000  0.4427110000000  0.4983560000000 1.0
C      1  0.6145170000000  0.5002120000000  0.5169480000000 1.0
C      1  0.4493970000000  0.3978350000000  0.3999470000000 1.0
C      1  0.5131260000000  0.4305050000000  0.5685920000000 1.0
C      1  0.4579460000000  0.4558340000000  0.6060900000000 1.0
C      1  0.5479140000000  0.4885320000000  0.3952540000000 1.0
C      1  0.4582640000000  0.4664890000000  0.4288660000000 1.0
C      1  0.6054780000000  0.5275410000000  0.5258290000000 1.0
C      1  0.4037330000000  0.5111370000000  0.4478630000000 1.0
C      1  0.5326820000000  0.4637330000000  0.4091050000000 1.0
C      1  0.4981780000000  0.4696950000000  0.5352950000000 1.0
C      1  0.5827570000000  0.4563850000000  0.4744390000000 1.0
C      1  0.3903030000000  0.5325310000000  0.5156070000000 1.0
C      1  0.5334780000000  0.5373730000000  0.5112480000000 1.0
C      1  0.5279020000000  0.5229020000000  0.4326170000000 1.0
C      1  0.5073780000000  0.4622510000000  0.4595050000000 1.0
C      1  0.5616540000000  0.4175890000000  0.5370550000000 1.0
C      1  0.5607100000000  0.4281500000000  0.5638830000000 1.0
C      1  0.5159490000000  0.4459130000000  0.4851740000000 1.0
C      1  0.5589550000000  0.5991360000000  0.5219950000000 1.0
C      1  0.4755480000000  0.5020450000000  0.5766280000000 1.0
C      1  0.5054220000000  0.5131480000000  0.4797110000000 1.0
C      1  0.5235930000000  0.6264510000000  0.4695010000000 1.0
C      1  0.4470600000000  0.5835700000000  0.3969130000000 1.0
C      1  0.3689370000000  0.4696890000000  0.5503040000000 1.0
C      1  0.5777200000000  0.4688380000000  0.5879340000000 1.0
C      1  0.5082950000000  0.4971120000000  0.5396850000000 1.0
C      1  0.4853340000000  0.5355210000000  0.3860720000000 1.0
C      1  0.5238600000000  0.5646100000000  0.6063360000000 1.0
C      1  0.4408810000000  0.4149610000000  0.4847090000000 1.0
C      1  0.5303580000000  0.5430340000000  0.4122330000000 1.0
C      1  0.6287220000000  0.5114270000000  0.4677260000000 1.0
C      1  0.5866610000000  0.5255470000000  0.4834470000000 1.0
C      1  0.4224980000000  0.5061500000000  0.4955890000000 1.0
C      1  0.5592790000000  0.5405070000000  0.4058830000000 1.0
C      1  0.5641310000000  0.5385740000000  0.5570840000000 1.0
C      1  0.5385140000000  0.5425100000000  0.6121120000000 1.0
C      1  0.3784200000000  0.4794880000000  0.5247720000000 1.0
C      1  0.4189950000000  0.4336010000000  0.4732690000000 1.0
C      1  0.3767500000000  0.5100020000000  0.5264300000000 1.0
C      1  0.6089540000000  0.4697690000000  0.4811070000000 1.0
C      1  0.3833180000000  0.4803480000000  0.4787650000000 1.0
C      1  0.4644400000000  0.4044660000000  0.4739290000000 1.0
C      1  0.5802920000000  0.4306640000000  0.5183940000000 1.0
C      1  0.5919640000000  0.5297970000000  0.5519320000000 1.0
C      1  0.4567020000000  0.5685270000000  0.5062710000000 1.0
C      1  0.5988560000000  0.4508690000000  0.5275520000000 1.0
C      1  0.4101610000000  0.5532910000000  0.5143720000000 1.0
C      1  0.5220760000000  0.5756350000000  0.4849080000000 1.0
C      1  0.4801330000000  0.4706920000000  0.4104420000000 1.0
C      1  0.5279950000000  0.4067620000000  0.4369250000000 1.0
C      1  0.5726720000000  0.5726210000000  0.4490390000000 1.0
C      1  0.4629950000000  0.4100210000000  0.5340450000000 1.0
C      1  0.4726360000000  0.4701600000000  0.5195670000000 1.0
C      1  0.6214300000000  0.4940590000000  0.4891920000000 1.0
C      1  0.4959260000000  0.5393230000000  0.4698450000000 1.0
C      1  0.4201530000000  0.4337620000000  0.5211850000000 1.0
C      1  0.4150150000000  0.4971610000000  0.4246330000000 1.0
C      1  0.5066210000000  0.6231000000000  0.4900510000000 1.0
C      1  0.5013610000000  0.4164850000000  0.4338810000000 1.0
C      1  0.5826250000000  0.5904090000000  0.5121510000000 1.0
C      1  0.5037030000000  0.4575210000000  0.3992390000000 1.0
C      1  0.5218990000000  0.4634220000000  0.5060730000000 1.0
C      1  0.4480020000000  0.5156910000000  0.4571960000000 1.0
C      1  0.5412770000000  0.6165010000000  0.4519950000000 1.0
C      1  0.5661040000000  0.5282900000000  0.4651990000000 1.0
C      1  0.5378840000000  0.4253930000000  0.5831810000000 1.0
C      1  0.4972370000000  0.5790110000000  0.4020810000000 1.0
C      1  0.4855430000000  0.4293970000000  0.5759470000000 1.0
C      1  0.4942740000000  0.5204440000000  0.5314620000000 1.0
C      1  0.5623130000000  0.4108340000000  0.4752630000000 1.0
C      1  0.5650980000000  0.4568430000000  0.5652670000000 1.0
C      1  0.4350920000000  0.5908060000000  0.5737380000000 1.0
C      1  0.4299430000000  0.4525110000000  0.5394940000000 1.0
C      1  0.5335740000000  0.4974550000000  0.5554020000000 1.0
C      1  0.5569750000000  0.4673060000000  0.6085260000000 1.0
C      1  0.4743910000000  0.4758770000000  0.4918120000000 1.0
C      1  0.4864210000000  0.4981200000000  0.4137750000000 1.0
C      1  0.4727830000000  0.5901550000000  0.4005400000000 1.0
C      1  0.4333890000000  0.4988260000000  0.5219760000000 1.0
C      1  0.4966360000000  0.5655490000000  0.4809070000000 1.0
C      1  0.4341380000000  0.5129660000000  0.4063650000000 1.0
C      1  0.4853860000000  0.4763170000000  0.5723830000000 1.0
C      1  0.4609360000000  0.5902800000000  0.5846750000000 1.0
C      1  0.4905170000000  0.4042710000000  0.4801050000000 1.0
C      1  0.5153580000000  0.5405010000000  0.5362000000000 1.0
C      1  0.4515620000000  0.4862340000000  0.4511580000000 1.0
C      1  0.4883250000000  0.3978050000000  0.5288090000000 1.0
C      1  0.5444070000000  0.4142740000000  0.4154900000000 1.0
C      1  0.3787610000000  0.4938140000000  0.5922830000000 1.0
C      1  0.4103790000000  0.5721770000000  0.5356010000000 1.0
C      1  0.4453940000000  0.5161690000000  0.5424340000000 1.0
C      1  0.4103250000000  0.6012720000000  0.5350370000000 1.0
C      1  0.5060450000000  0.5521670000000  0.3991180000000 1.0
C      1  0.5180740000000  0.4528050000000  0.5509680000000 1.0
C      1  0.4812100000000  0.4545210000000  0.5897000000000 1.0
C      1  0.4345640000000  0.5521100000000  0.4971920000000 1.0
C      1  0.6212810000000  0.5250270000000  0.4454770000000 1.0
C      1  0.4016990000000  0.5010060000000  0.4747180000000 1.0
C      1  0.5147440000000  0.3868780000000  0.5296130000000 1.0
C      1  0.5721640000000  0.4890150000000  0.5310150000000 1.0
C      1  0.4477510000000  0.5051820000000  0.5693290000000 1.0
C      1  0.4239900000000  0.5375790000000  0.3964230000000 1.0
C      1  0.4480980000000  0.4188960000000  0.4152450000000 1.0
C      1  0.4932460000000  0.4401550000000  0.4443700000000 1.0
C      1  0.5968650000000  0.5781670000000  0.4675460000000 1.0
C      1  0.5374200000000  0.5863710000000  0.5364360000000 1.0
C      1  0.4681840000000  0.5319600000000  0.5346690000000 1.0
C      1  0.5976170000000  0.4793510000000  0.5278530000000 1.0
C      1  0.4772820000000  0.5826940000000  0.4929230000000 1.0
C      1  0.5964480000000  0.5715400000000  0.4959980000000 1.0
C      1  0.4517320000000  0.4720470000000  0.4760530000000 1.0
C      1  0.5448730000000  0.5178140000000  0.5996460000000 1.0
C      1  0.5524950000000  0.4408370000000  0.4104680000000 1.0
C      1  0.5609620000000  0.5128630000000  0.3948230000000 1.0
C      1  0.4674090000000  0.5605620000000  0.5318970000000 1.0
C      1  0.5796060000000  0.5528150000000  0.4245550000000 1.0
C      1  0.5098700000000  0.5016440000000  0.4286940000000 1.0
C      1  0.3621680000000  0.5142800000000  0.5514420000000 1.0
C      1  0.4559110000000  0.4535060000000  0.6329320000000 1.0
C      1  0.5410980000000  0.4698030000000  0.5568590000000 1.0
C      1  0.5391610000000  0.4017350000000  0.5293730000000 1.0
C      1  0.4853720000000  0.5796950000000  0.5451780000000 1.0
C      1  0.4393880000000  0.4424890000000  0.5641350000000 1.0
C      1  0.4240770000000  0.6118720000000  0.5568060000000 1.0
C      1  0.4856870000000  0.5827930000000  0.5737180000000 1.0
C      1  0.5765320000000  0.4306980000000  0.4898080000000 1.0
C      1  0.5420530000000  0.5580040000000  0.4920000000000 1.0
C      1  0.6020810000000  0.5125540000000  0.5725610000000 1.0
C      1  0.5967410000000  0.4893420000000  0.5852320000000 1.0
C      1  0.5402560000000  0.4842200000000  0.4983190000000 1.0
C      1  0.5426690000000  0.4418820000000  0.6071400000000 1.0
C      1  0.4616360000000  0.4233230000000  0.5602180000000 1.0
C      1  0.3636110000000  0.4913110000000  0.5690090000000 1.0
C      1  0.5096390000000  0.5446610000000  0.5660450000000 1.0
C      1  0.4221510000000  0.5669410000000  0.5622150000000 1.0
C      1  0.4381220000000  0.5267570000000  0.4827100000000 1.0
C      1  0.5589130000000  0.4758770000000  0.4769560000000 1.0
C      1  0.4935080000000  0.5235560000000  0.5783760000000 1.0
C      1  0.4371340000000  0.4602120000000  0.5868170000000 1.0
C      1  0.4293380000000  0.4879200000000  0.5833950000000 1.0
C      1  0.5507920000000  0.5136060000000  0.4478700000000 1.0
C      1  0.4949650000000  0.4865200000000  0.4748750000000 1.0
C      1  0.4194500000000  0.4455020000000  0.4458660000000 1.0
C      1  0.5781220000000  0.4472160000000  0.4202790000000 1.0
C      1  0.4080020000000  0.4686760000000  0.4310300000000 1.0
C      1  0.6045140000000  0.5385900000000  0.4290900000000 1.0
C      1  0.5475770000000  0.5177870000000  0.5704340000000 1.0
C      1  0.5461440000000  0.4930400000000  0.6137680000000 1.0
C      1  0.5153100000000  0.4176550000000  0.4813030000000 1.0
C      1  0.5499090000000  0.4858180000000  0.4517610000000 1.0
C      1  0.5255930000000  0.4749750000000  0.4380950000000 1.0
C      1  0.4451000000000  0.4731450000000  0.5278490000000 1.0
C      1  0.4819150000000  0.5376980000000  0.3588610000000 1.0
C      1  0.4292330000000  0.5637670000000  0.3944320000000 1.0
C      1  0.4052900000000  0.4959120000000  0.5951340000000 1.0
C      1  0.5077970000000  0.5678500000000  0.5835180000000 1.0
END
