TITL C-627107-135-155 9.529443075342e-08 125000 -449.826940263277 0 0 75 (C1) n - 1
REM
REM in /home/nfs/bkarasulu/CARBON/AIRSS/Generating-Clusters/LCBOP/Only-C1/SD-CG/FIRE-CG
REM
REM
REM
REM
REM
REM ./C.cell (11c1c37f851c82e70ff6c80c92926a4b)
REM AIRSS Version 0.9.1 bugfix July 2018 build 013d7b7c2542+ Fri, 06 Jul 2018 19:26:36 +0100
REM compiler GCC version 9.2.1 20190827 (Red Hat 9.2.1-1)
REM options -cpp -mtune=generic -march=x86-64 -g -O0 -fpre-include=/usr/include/finclude/math-vector-fortran.h
REM seed 1393330952 -1082413337 112544194 896051081 -1036131381 1238827404 -761364812 277746858 -1473604760 566734705 -1072351034 1266504812 -672457384 146622178 750320790 758345476 -38600477 1181515644 -930572552 -1646232777 1832169014 -935563792 -215519519 487459541 -1653575212 810236337 1875259377 887671248 1288791902 -531179509 799784744 1867561649 1779510083
REM
CELL 1.54180   50.00000   50.00000   50.00000   90.00000   90.00000   90.00000
LATT -1
SFAC C  
C      1  0.5184730000000  0.5538680000000  0.4325440000000 1.0
C      1  0.5538140000000  0.4915650000000  0.4050760000000 1.0
C      1  0.4586950000000  0.5164010000000  0.4451460000000 1.0
C      1  0.5654620000000  0.4457570000000  0.4953080000000 1.0
C      1  0.5087520000000  0.4594600000000  0.5609810000000 1.0
C      1  0.5430100000000  0.5151980000000  0.5298740000000 1.0
C      1  0.4723100000000  0.4710890000000  0.4419720000000 1.0
C      1  0.4251570000000  0.3804410000000  0.4900240000000 1.0
C      1  0.4071370000000  0.5146650000000  0.5363720000000 1.0
C      1  0.4767020000000  0.4074790000000  0.6006340000000 1.0
C      1  0.4533100000000  0.5731790000000  0.4981060000000 1.0
C      1  0.4769450000000  0.4981490000000  0.4338660000000 1.0
C      1  0.5266950000000  0.5739900000000  0.4779610000000 1.0
C      1  0.5324900000000  0.5783500000000  0.5272110000000 1.0
C      1  0.4467380000000  0.4562380000000  0.4444390000000 1.0
C      1  0.5880080000000  0.4922200000000  0.4881810000000 1.0
C      1  0.4697260000000  0.5665060000000  0.5409760000000 1.0
C      1  0.5060580000000  0.4312630000000  0.5622540000000 1.0
C      1  0.5141410000000  0.5039710000000  0.5824030000000 1.0
C      1  0.4402220000000  0.4517520000000  0.4730300000000 1.0
C      1  0.5608470000000  0.4501170000000  0.3812660000000 1.0
C      1  0.4955270000000  0.4445730000000  0.4816440000000 1.0
C      1  0.5464220000000  0.5109250000000  0.4239310000000 1.0
C      1  0.5187650000000  0.5854760000000  0.5034590000000 1.0
C      1  0.5329480000000  0.5586770000000  0.5475210000000 1.0
C      1  0.4576140000000  0.5323900000000  0.5369030000000 1.0
C      1  0.5452630000000  0.5004840000000  0.4512000000000 1.0
C      1  0.5220130000000  0.4374530000000  0.4750280000000 1.0
C      1  0.5407560000000  0.4323440000000  0.4960090000000 1.0
C      1  0.4604890000000  0.5227630000000  0.4724090000000 1.0
C      1  0.4704340000000  0.5079150000000  0.5157410000000 1.0
C      1  0.5101950000000  0.5536070000000  0.5644280000000 1.0
C      1  0.4882140000000  0.5710640000000  0.5611530000000 1.0
C      1  0.4369910000000  0.4036340000000  0.4889580000000 1.0
C      1  0.5818500000000  0.4665440000000  0.4921260000000 1.0
C      1  0.5521010000000  0.4633190000000  0.4035560000000 1.0
C      1  0.5409540000000  0.4998090000000  0.5744020000000 1.0
C      1  0.5030110000000  0.5081880000000  0.4367390000000 1.0
C      1  0.4829330000000  0.5175970000000  0.4914770000000 1.0
C      1  0.4713790000000  0.4545300000000  0.5229310000000 1.0
C      1  0.4607060000000  0.5793530000000  0.4715310000000 1.0
C      1  0.4297400000000  0.5250470000000  0.5466310000000 1.0
C      1  0.5502380000000  0.5581790000000  0.4785590000000 1.0
C      1  0.5311950000000  0.4397520000000  0.4483870000000 1.0
C      1  0.4123340000000  0.5163140000000  0.4881780000000 1.0
C      1  0.5194100000000  0.4168200000000  0.5419850000000 1.0
C      1  0.5183120000000  0.5020300000000  0.4615000000000 1.0
C      1  0.5325510000000  0.4179590000000  0.5187300000000 1.0
C      1  0.5412270000000  0.4489600000000  0.4253870000000 1.0
C      1  0.4965770000000  0.4803230000000  0.5766010000000 1.0
C      1  0.4911990000000  0.4185980000000  0.5820510000000 1.0
C      1  0.4740460000000  0.5206020000000  0.5627110000000 1.0
C      1  0.4826680000000  0.4674570000000  0.4694410000000 1.0
C      1  0.5112880000000  0.5126330000000  0.4870540000000 1.0
C      1  0.4497290000000  0.4282120000000  0.4877680000000 1.0
C      1  0.5797890000000  0.5175860000000  0.4855320000000 1.0
C      1  0.4828150000000  0.5782650000000  0.4562790000000 1.0
C      1  0.5348130000000  0.5193170000000  0.5029440000000 1.0
C      1  0.4932700000000  0.5961410000000  0.5090110000000 1.0
C      1  0.4711730000000  0.4926030000000  0.5702540000000 1.0
C      1  0.4629190000000  0.4804960000000  0.5130220000000 1.0
C      1  0.5426950000000  0.4926220000000  0.5466000000000 1.0
C      1  0.5212840000000  0.5270160000000  0.4233140000000 1.0
C      1  0.4572980000000  0.4734330000000  0.4852860000000 1.0
C      1  0.5099050000000  0.5704090000000  0.4544840000000 1.0
C      1  0.3992790000000  0.5099710000000  0.5109850000000 1.0
C      1  0.5525230000000  0.5387130000000  0.5435150000000 1.0
C      1  0.4366580000000  0.5302080000000  0.4860760000000 1.0
C      1  0.5009780000000  0.5280000000000  0.5726330000000 1.0
C      1  0.5280460000000  0.4691570000000  0.5419980000000 1.0
C      1  0.5561000000000  0.5325060000000  0.4879940000000 1.0
C      1  0.4753020000000  0.4348270000000  0.5013040000000 1.0
C      1  0.4427110000000  0.5487580000000  0.5056100000000 1.0
C      1  0.4701270000000  0.5829960000000  0.5182530000000 1.0
C      1  0.5785450000000  0.5417850000000  0.5511560000000 1.0
END
