TITL C-627112-676-719 38222.7551253171 125000 -894.702639384691 0 0 147 (C1) n - 1
REM
REM in /home/nfs/bkarasulu/CARBON/AIRSS/Generating-Clusters/LCBOP/Only-C1/SD-CG/FIRE-CG
REM
REM
REM
REM
REM
REM ./C.cell (11c1c37f851c82e70ff6c80c92926a4b)
REM AIRSS Version 0.9.1 bugfix July 2018 build 013d7b7c2542+ Fri, 06 Jul 2018 19:26:36 +0100
REM compiler GCC version 9.2.1 20190827 (Red Hat 9.2.1-1)
REM options -cpp -mtune=generic -march=x86-64 -g -O0 -fpre-include=/usr/include/finclude/math-vector-fortran.h
REM seed -823420024 1447482621 -1024276401 1954664430 -794449114 1707592211 1486428754 1238812403 -1790002517 -1197716520 1787597961 -1154593366 -1110492315 971085090 324866022 622134306 114204332 -1936685427 -1348653492 -107266743 1260392799 -1495077151 -1423882260 -2014926327 1827337021 -137080214 -1370734791 -402195643 555358488 -1965209954 1834447757 1845772826 -1210220581
REM
CELL 1.54180   50.00000   50.00000   50.00000   90.00000   90.00000   90.00000
LATT -1
SFAC C  
C      1  0.3796520000000  0.5279340000000  0.4770380000000 1.0
C      1  0.5915830000000  0.4396590000000  0.5337340000000 1.0
C      1  0.4542670000000  0.5463780000000  0.4985710000000 1.0
C      1  0.5558010000000  0.5695290000000  0.5196480000000 1.0
C      1  0.5545540000000  0.4719670000000  0.4603430000000 1.0
C      1  0.3937380000000  0.5057150000000  0.4854970000000 1.0
C      1  0.4819560000000  0.5030650000000  0.5339080000000 1.0
C      1  0.4639330000000  0.4932710000000  0.5117460000000 1.0
C      1  0.5779270000000  0.5718250000000  0.4559150000000 1.0
C      1  0.5373540000000  0.4505980000000  0.5846510000000 1.0
C      1  0.4552270000000  0.5507800000000  0.5466670000000 1.0
C      1  0.4886640000000  0.5539480000000  0.4042180000000 1.0
C      1  0.5100350000000  0.3734270000000  0.5357510000000 1.0
C      1  0.5347290000000  0.5534910000000  0.5319510000000 1.0
C      1  0.4058520000000  0.6084520000000  0.4033660000000 1.0
C      1  0.4468690000000  0.5908480000000  0.5139380000000 1.0
C      1  0.5004760000000  0.3689820000000  0.4483790000000 1.0
C      1  0.4960670000000  0.4805930000000  0.5439280000000 1.0
C      1  0.5772450000000  0.3646180000000  0.5456700000000 1.0
C      1  0.4757310000000  0.4829960000000  0.4652040000000 1.0
C      1  0.4900470000000  0.4101150000000  0.4683750000000 1.0
C      1  0.4557780000000  0.5648370000000  0.5196840000000 1.0
C      1  0.4196020000000  0.5084410000000  0.4969750000000 1.0
C      1  0.5090410000000  0.5614220000000  0.4247890000000 1.0
C      1  0.4893740000000  0.4514090000000  0.5982800000000 1.0
C      1  0.4760050000000  0.5336900000000  0.4868930000000 1.0
C      1  0.5374740000000  0.5646290000000  0.4256970000000 1.0
C      1  0.5416810000000  0.4455130000000  0.4198360000000 1.0
C      1  0.5538700000000  0.4074270000000  0.5369560000000 1.0
C      1  0.5617040000000  0.4448220000000  0.5704220000000 1.0
C      1  0.5925160000000  0.4682350000000  0.5395990000000 1.0
C      1  0.4349500000000  0.4969270000000  0.5175230000000 1.0
C      1  0.4878680000000  0.5299220000000  0.5761160000000 1.0
C      1  0.4293090000000  0.5047340000000  0.5443150000000 1.0
C      1  0.4799600000000  0.6108600000000  0.4887280000000 1.0
C      1  0.5778990000000  0.5123090000000  0.4748950000000 1.0
C      1  0.5470240000000  0.5488670000000  0.5832900000000 1.0
C      1  0.5014860000000  0.3916090000000  0.4894950000000 1.0
C      1  0.5701450000000  0.4269760000000  0.5485020000000 1.0
C      1  0.5495020000000  0.5961030000000  0.5081230000000 1.0
C      1  0.4526670000000  0.6047220000000  0.4901710000000 1.0
C      1  0.5290460000000  0.5047020000000  0.5840320000000 1.0
C      1  0.5232940000000  0.5400360000000  0.4873210000000 1.0
C      1  0.5291700000000  0.4150980000000  0.5236880000000 1.0
C      1  0.4256520000000  0.4043950000000  0.4688830000000 1.0
C      1  0.5235940000000  0.3855590000000  0.5815220000000 1.0
C      1  0.4353010000000  0.6016360000000  0.4684880000000 1.0
C      1  0.5064780000000  0.5592860000000  0.5340950000000 1.0
C      1  0.4616010000000  0.5875320000000  0.5811840000000 1.0
C      1  0.5553390000000  0.3806190000000  0.5465030000000 1.0
C      1  0.4613630000000  0.4574200000000  0.5978810000000 1.0
C      1  0.5900420000000  0.4980920000000  0.4965090000000 1.0
C      1  0.5527770000000  0.4840810000000  0.5210290000000 1.0
C      1  0.4821070000000  0.4589160000000  0.4821620000000 1.0
C      1  0.5804260000000  0.4680340000000  0.5665310000000 1.0
C      1  0.4435120000000  0.5738720000000  0.5647770000000 1.0
C      1  0.5394780000000  0.4607280000000  0.5156550000000 1.0
C      1  0.4913110000000  0.3946020000000  0.4435690000000 1.0
C      1  0.6051030000000  0.5461870000000  0.5107760000000 1.0
C      1  0.6355100000000  0.5055360000000  0.4924540000000 1.0
C      1  0.5355400000000  0.4784480000000  0.5903140000000 1.0
C      1  0.5024310000000  0.4737760000000  0.4102160000000 1.0
C      1  0.4488930000000  0.4781730000000  0.5826440000000 1.0
C      1  0.3928570000000  0.5536710000000  0.4795070000000 1.0
C      1  0.5113050000000  0.3941130000000  0.5157830000000 1.0
C      1  0.5517240000000  0.5427620000000  0.4142870000000 1.0
C      1  0.5068020000000  0.4076880000000  0.5860000000000 1.0
C      1  0.6257880000000  0.5300430000000  0.5040300000000 1.0
C      1  0.4644840000000  0.4149890000000  0.5574370000000 1.0
C      1  0.4122940000000  0.5170860000000  0.4330540000000 1.0
C      1  0.4744600000000  0.4802000000000  0.4130820000000 1.0
C      1  0.5397520000000  0.5082290000000  0.5188540000000 1.0
C      1  0.4295140000000  0.4201090000000  0.5887030000000 1.0
C      1  0.6048720000000  0.4642680000000  0.4725880000000 1.0
C      1  0.4225870000000  0.4335690000000  0.5418220000000 1.0
C      1  0.4950040000000  0.6025300000000  0.5511490000000 1.0
C      1  0.5015220000000  0.5988450000000  0.5023130000000 1.0
C      1  0.5129010000000  0.4356340000000  0.5909280000000 1.0
C      1  0.5823720000000  0.5623400000000  0.5058110000000 1.0
C      1  0.4211550000000  0.4084640000000  0.4955590000000 1.0
C      1  0.4287210000000  0.5356110000000  0.4971540000000 1.0
C      1  0.4887740000000  0.5945350000000  0.5775620000000 1.0
C      1  0.4314730000000  0.4559440000000  0.4722690000000 1.0
C      1  0.4781080000000  0.4349630000000  0.4683540000000 1.0
C      1  0.5436530000000  0.5242790000000  0.5689850000000 1.0
C      1  0.5905780000000  0.5485890000000  0.4468950000000 1.0
C      1  0.4119840000000  0.5596710000000  0.4570750000000 1.0
C      1  0.5104450000000  0.5847040000000  0.5927080000000 1.0
C      1  0.4262220000000  0.4301980000000  0.5134990000000 1.0
C      1  0.4777650000000  0.4345860000000  0.5426000000000 1.0
C      1  0.5507470000000  0.4202840000000  0.4280290000000 1.0
C      1  0.4988100000000  0.5484170000000  0.4774390000000 1.0
C      1  0.5062470000000  0.3663690000000  0.4752860000000 1.0
C      1  0.5609970000000  0.5183650000000  0.4258700000000 1.0
C      1  0.5326280000000  0.5695720000000  0.5926830000000 1.0
C      1  0.4294390000000  0.4825900000000  0.5622250000000 1.0
C      1  0.5770720000000  0.4557860000000  0.4706860000000 1.0
C      1  0.4728410000000  0.5050920000000  0.4846770000000 1.0
C      1  0.4158770000000  0.5760720000000  0.5538470000000 1.0
C      1  0.4833960000000  0.5262090000000  0.4426260000000 1.0
C      1  0.4802830000000  0.4026980000000  0.5770690000000 1.0
C      1  0.4633730000000  0.4720310000000  0.4389050000000 1.0
C      1  0.5843300000000  0.5805820000000  0.4822700000000 1.0
C      1  0.5301860000000  0.4958180000000  0.4696130000000 1.0
C      1  0.4986560000000  0.4526030000000  0.5382560000000 1.0
C      1  0.4619920000000  0.5582550000000  0.4152940000000 1.0
C      1  0.5265450000000  0.5983430000000  0.4903240000000 1.0
C      1  0.4502730000000  0.4442060000000  0.4501220000000 1.0
C      1  0.5783920000000  0.5230460000000  0.4485070000000 1.0
C      1  0.5214020000000  0.4421840000000  0.5248800000000 1.0
C      1  0.5072840000000  0.5061520000000  0.4448660000000 1.0
C      1  0.5166870000000  0.4498230000000  0.4071390000000 1.0
C      1  0.5033510000000  0.5140050000000  0.5909380000000 1.0
C      1  0.4430710000000  0.4367570000000  0.6054450000000 1.0
C      1  0.4069740000000  0.5533710000000  0.5054870000000 1.0
C      1  0.4645080000000  0.4634260000000  0.5048360000000 1.0
C      1  0.5179690000000  0.4954950000000  0.4206640000000 1.0
C      1  0.4271080000000  0.5380760000000  0.4433520000000 1.0
C      1  0.5727120000000  0.4277490000000  0.4704300000000 1.0
C      1  0.4714620000000  0.5044850000000  0.3969910000000 1.0
C      1  0.4089640000000  0.5540010000000  0.5353690000000 1.0
C      1  0.6148330000000  0.4868430000000  0.4869680000000 1.0
C      1  0.4821290000000  0.5362850000000  0.5480580000000 1.0
C      1  0.5297620000000  0.3731620000000  0.5567490000000 1.0
C      1  0.4979040000000  0.5514900000000  0.4494650000000 1.0
C      1  0.4090800000000  0.5986630000000  0.4277680000000 1.0
C      1  0.4184770000000  0.5869850000000  0.4513360000000 1.0
C      1  0.4159730000000  0.4593710000000  0.5521300000000 1.0
C      1  0.4854630000000  0.5277460000000  0.3913300000000 1.0
C      1  0.5411520000000  0.5269930000000  0.5402590000000 1.0
C      1  0.4386650000000  0.4519210000000  0.4998610000000 1.0
C      1  0.5807060000000  0.4855260000000  0.5202680000000 1.0
C      1  0.4551490000000  0.5382210000000  0.4358760000000 1.0
C      1  0.4363950000000  0.4175010000000  0.5611440000000 1.0
C      1  0.5465900000000  0.4946690000000  0.4200740000000 1.0
C      1  0.4287200000000  0.5328440000000  0.5460080000000 1.0
C      1  0.4995170000000  0.5865860000000  0.5283610000000 1.0
C      1  0.5529090000000  0.4693820000000  0.4317690000000 1.0
C      1  0.6618540000000  0.5009540000000  0.4873500000000 1.0
C      1  0.5511990000000  0.5798560000000  0.4466760000000 1.0
C      1  0.5382810000000  0.5972410000000  0.4650660000000 1.0
C      1  0.5626100000000  0.4122920000000  0.4508210000000 1.0
C      1  0.4092400000000  0.6255280000000  0.3537840000000 1.0
C      1  0.4368960000000  0.4173110000000  0.4472050000000 1.0
C      1  0.5701290000000  0.6037070000000  0.4900150000000 1.0
C      1  0.4066410000000  0.6173050000000  0.3783830000000 1.0
C      1  0.5315030000000  0.5137590000000  0.4921240000000 1.0
END
