TITL C-627106-156-338 -5.29167187780134e-08 125000 -748.928687742275 0 0 121 (C1) n - 1
REM
REM in /home/nfs/bkarasulu/CARBON/AIRSS/Generating-Clusters/LCBOP/Only-C1/SD-CG/FIRE-CG
REM
REM
REM
REM
REM
REM ./C.cell (11c1c37f851c82e70ff6c80c92926a4b)
REM AIRSS Version 0.9.1 bugfix July 2018 build 013d7b7c2542+ Fri, 06 Jul 2018 19:26:36 +0100
REM compiler GCC version 9.2.1 20190827 (Red Hat 9.2.1-1)
REM options -cpp -mtune=generic -march=x86-64 -g -O0 -fpre-include=/usr/include/finclude/math-vector-fortran.h
REM seed -755087655 -936644123 -1944022374 -891005147 -36083321 -2024971068 -2085863929 948959646 -2100080862 1254423152 -1136824082 696914297 -1613457933 -827268319 -784153797 -2094984791 1696499301 1667189176 -758644542 -57548274 -106186295 -1591179814 1282003131 684723080 -1536992385 100319415 417844558 450336542 657692884 1095187033 -113028012 -201171881 1629402303
REM
CELL 1.54180   50.00000   50.00000   50.00000   90.00000   90.00000   90.00000
LATT -1
SFAC C  
C      1  0.3905150000000  0.4830690000000  0.5151280000000 1.0
C      1  0.5764500000000  0.4476350000000  0.4045920000000 1.0
C      1  0.4495190000000  0.4299320000000  0.4571280000000 1.0
C      1  0.5780430000000  0.4639610000000  0.4716280000000 1.0
C      1  0.5649200000000  0.5451310000000  0.4500290000000 1.0
C      1  0.5629950000000  0.5644970000000  0.4741200000000 1.0
C      1  0.5110370000000  0.5514430000000  0.4658940000000 1.0
C      1  0.6079210000000  0.5099890000000  0.5462060000000 1.0
C      1  0.3661260000000  0.4948480000000  0.5193160000000 1.0
C      1  0.5949300000000  0.4867660000000  0.4279420000000 1.0
C      1  0.5276880000000  0.5004430000000  0.5545640000000 1.0
C      1  0.5552420000000  0.4924290000000  0.4029460000000 1.0
C      1  0.4844360000000  0.5309030000000  0.6041930000000 1.0
C      1  0.4997900000000  0.3975360000000  0.5370240000000 1.0
C      1  0.5100400000000  0.5219600000000  0.5631980000000 1.0
C      1  0.5768190000000  0.4202170000000  0.4453080000000 1.0
C      1  0.5959230000000  0.5384040000000  0.5087730000000 1.0
C      1  0.5154370000000  0.5284710000000  0.4496010000000 1.0
C      1  0.4847190000000  0.5356420000000  0.4971030000000 1.0
C      1  0.5975530000000  0.4697740000000  0.5709710000000 1.0
C      1  0.4018020000000  0.4825280000000  0.4885950000000 1.0
C      1  0.4917940000000  0.5107170000000  0.4557470000000 1.0
C      1  0.5309410000000  0.5252650000000  0.5094010000000 1.0
C      1  0.5045290000000  0.5400640000000  0.5844260000000 1.0
C      1  0.4366870000000  0.5130700000000  0.5166280000000 1.0
C      1  0.4191150000000  0.4602980000000  0.4834170000000 1.0
C      1  0.4841660000000  0.4699260000000  0.5178910000000 1.0
C      1  0.6012410000000  0.4937680000000  0.5222540000000 1.0
C      1  0.5654110000000  0.4343800000000  0.5531580000000 1.0
C      1  0.4348840000000  0.5303510000000  0.5893030000000 1.0
C      1  0.4357660000000  0.4291700000000  0.5128190000000 1.0
C      1  0.4223940000000  0.5149620000000  0.4275040000000 1.0
C      1  0.4444640000000  0.5595660000000  0.4495470000000 1.0
C      1  0.4966150000000  0.5670760000000  0.5745760000000 1.0
C      1  0.4257780000000  0.4481570000000  0.4584220000000 1.0
C      1  0.4214410000000  0.5317510000000  0.5328990000000 1.0
C      1  0.4704680000000  0.5381320000000  0.5402500000000 1.0
C      1  0.4624760000000  0.4116500000000  0.4783600000000 1.0
C      1  0.4717630000000  0.5787270000000  0.5175110000000 1.0
C      1  0.4563520000000  0.4111890000000  0.5071820000000 1.0
C      1  0.6216960000000  0.5061880000000  0.5929260000000 1.0
C      1  0.4932650000000  0.4330430000000  0.5653950000000 1.0
C      1  0.4543440000000  0.5003990000000  0.4973500000000 1.0
C      1  0.5376920000000  0.5020880000000  0.5274680000000 1.0
C      1  0.4672260000000  0.5657130000000  0.5784860000000 1.0
C      1  0.5777120000000  0.4365250000000  0.4665680000000 1.0
C      1  0.4679430000000  0.4276550000000  0.5528630000000 1.0
C      1  0.5050370000000  0.4569230000000  0.5028950000000 1.0
C      1  0.4797180000000  0.5049320000000  0.6145020000000 1.0
C      1  0.4537410000000  0.5537720000000  0.5564160000000 1.0
C      1  0.4727080000000  0.5317490000000  0.3919380000000 1.0
C      1  0.5081750000000  0.4555340000000  0.5754270000000 1.0
C      1  0.5802960000000  0.4745930000000  0.5278500000000 1.0
C      1  0.5446790000000  0.4499890000000  0.6098990000000 1.0
C      1  0.5555910000000  0.4807320000000  0.5154120000000 1.0
C      1  0.4739500000000  0.5388760000000  0.3655810000000 1.0
C      1  0.4295260000000  0.5382810000000  0.5610490000000 1.0
C      1  0.5953310000000  0.4819830000000  0.4570690000000 1.0
C      1  0.4044160000000  0.4710120000000  0.5371580000000 1.0
C      1  0.4745350000000  0.5144800000000  0.4808390000000 1.0
C      1  0.4441770000000  0.4424130000000  0.5577570000000 1.0
C      1  0.5763300000000  0.4249310000000  0.4188700000000 1.0
C      1  0.5723760000000  0.5467360000000  0.4955090000000 1.0
C      1  0.5146070000000  0.4304370000000  0.5042020000000 1.0
C      1  0.4728710000000  0.4076310000000  0.5307260000000 1.0
C      1  0.5985280000000  0.5156420000000  0.4251860000000 1.0
C      1  0.4481780000000  0.5965070000000  0.4823340000000 1.0
C      1  0.4554230000000  0.4926940000000  0.6123900000000 1.0
C      1  0.4102600000000  0.4927260000000  0.4411600000000 1.0
C      1  0.4673690000000  0.4372920000000  0.4350900000000 1.0
C      1  0.5111140000000  0.4680510000000  0.4778610000000 1.0
C      1  0.6095370000000  0.4958170000000  0.5708230000000 1.0
C      1  0.4729660000000  0.4836120000000  0.4173550000000 1.0
C      1  0.6038220000000  0.5371100000000  0.5366670000000 1.0
C      1  0.4379380000000  0.4551050000000  0.5031640000000 1.0
C      1  0.5408780000000  0.4260300000000  0.5648520000000 1.0
C      1  0.4702680000000  0.5047260000000  0.3993430000000 1.0
C      1  0.4853160000000  0.5151860000000  0.5473800000000 1.0
C      1  0.5819520000000  0.4575030000000  0.5505630000000 1.0
C      1  0.4606560000000  0.4578130000000  0.4161340000000 1.0
C      1  0.4226300000000  0.4578280000000  0.5522000000000 1.0
C      1  0.4949780000000  0.4396590000000  0.4417290000000 1.0
C      1  0.5905770000000  0.5292390000000  0.4496820000000 1.0
C      1  0.4989750000000  0.5974320000000  0.4593570000000 1.0
C      1  0.4347510000000  0.5729960000000  0.4738070000000 1.0
C      1  0.5528380000000  0.5032790000000  0.4753280000000 1.0
C      1  0.5326510000000  0.4448870000000  0.5862180000000 1.0
C      1  0.4031440000000  0.5030490000000  0.4685090000000 1.0
C      1  0.4157810000000  0.5544270000000  0.4873530000000 1.0
C      1  0.5032730000000  0.4648490000000  0.4513850000000 1.0
C      1  0.4720640000000  0.5983580000000  0.4978740000000 1.0
C      1  0.5097620000000  0.4776530000000  0.5586390000000 1.0
C      1  0.4110130000000  0.5313680000000  0.4697110000000 1.0
C      1  0.4736300000000  0.5510320000000  0.5163960000000 1.0
C      1  0.5764820000000  0.4751090000000  0.4097200000000 1.0
C      1  0.4268280000000  0.5373870000000  0.4446140000000 1.0
C      1  0.5582130000000  0.4781180000000  0.4866060000000 1.0
C      1  0.4899670000000  0.4872940000000  0.4400310000000 1.0
C      1  0.4705450000000  0.5620230000000  0.4379560000000 1.0
C      1  0.5228950000000  0.5945020000000  0.5014690000000 1.0
C      1  0.4738800000000  0.5513070000000  0.4121070000000 1.0
C      1  0.4592700000000  0.5461240000000  0.5993980000000 1.0
C      1  0.5537140000000  0.5253160000000  0.4925180000000 1.0
C      1  0.4155880000000  0.4650290000000  0.4376430000000 1.0
C      1  0.5207840000000  0.5892020000000  0.5299190000000 1.0
C      1  0.5151060000000  0.4141070000000  0.5554650000000 1.0
C      1  0.6030180000000  0.5112150000000  0.4983460000000 1.0
C      1  0.4939770000000  0.5705880000000  0.4525820000000 1.0
C      1  0.5453440000000  0.5850970000000  0.4846660000000 1.0
C      1  0.5108710000000  0.4093740000000  0.4875890000000 1.0
C      1  0.5109980000000  0.5811790000000  0.5541490000000 1.0
C      1  0.5994980000000  0.5083910000000  0.4703140000000 1.0
C      1  0.5414200000000  0.5306400000000  0.4367250000000 1.0
C      1  0.4593910000000  0.4733080000000  0.5047960000000 1.0
C      1  0.4888660000000  0.4016140000000  0.4737920000000 1.0
C      1  0.5450830000000  0.5148960000000  0.4135300000000 1.0
C      1  0.4336580000000  0.5043240000000  0.6007310000000 1.0
C      1  0.4984840000000  0.6031140000000  0.4871440000000 1.0
C      1  0.5118070000000  0.5410490000000  0.4934660000000 1.0
C      1  0.4875160000000  0.4858530000000  0.5413660000000 1.0
C      1  0.4103910000000  0.5515590000000  0.5151610000000 1.0
END
