TITL C-627112-676-193 3.8345270217518 125000 -1020.77583033374 0 0 167 (C1) n - 1
REM
REM in /home/nfs/bkarasulu/CARBON/AIRSS/Generating-Clusters/LCBOP/Only-C1/SD-CG/FIRE-CG
REM
REM
REM
REM
REM
REM ./C.cell (11c1c37f851c82e70ff6c80c92926a4b)
REM AIRSS Version 0.9.1 bugfix July 2018 build 013d7b7c2542+ Fri, 06 Jul 2018 19:26:36 +0100
REM compiler GCC version 9.2.1 20190827 (Red Hat 9.2.1-1)
REM options -cpp -mtune=generic -march=x86-64 -g -O0 -fpre-include=/usr/include/finclude/math-vector-fortran.h
REM seed 1478795355 1348911195 946797214 936196226 1738852788 -431629422 2112466678 -870175973 123610029 939017821 -693022652 -1563071319 -2016818262 -1321935501 232135523 884964635 -1641745579 -516477098 585116085 2063851713 -2092571934 -24547485 1764974273 1743171288 -1859123839 -2058541052 1330499809 169859641 2097379376 1723432641 143554578 -233112397 -1460804238
REM
CELL 1.54180   50.00000   50.00000   50.00000   90.00000   90.00000   90.00000
LATT -1
SFAC C  
C      1  0.4641360000000  0.5434700000000  0.5677990000000 1.0
C      1  0.5396700000000  0.4167460000000  0.4896920000000 1.0
C      1  0.5335600000000  0.5263440000000  0.4373310000000 1.0
C      1  0.6005170000000  0.4720500000000  0.4433230000000 1.0
C      1  0.5195640000000  0.4460150000000  0.5422890000000 1.0
C      1  0.5824130000000  0.5381100000000  0.4547390000000 1.0
C      1  0.3926430000000  0.5052220000000  0.4807430000000 1.0
C      1  0.5061020000000  0.5343470000000  0.4431900000000 1.0
C      1  0.5148800000000  0.3933680000000  0.4609160000000 1.0
C      1  0.4662120000000  0.6064850000000  0.5134730000000 1.0
C      1  0.5262060000000  0.4414090000000  0.4956810000000 1.0
C      1  0.4437240000000  0.5891530000000  0.5107520000000 1.0
C      1  0.3748980000000  0.4921930000000  0.5325270000000 1.0
C      1  0.4430570000000  0.5944350000000  0.4578560000000 1.0
C      1  0.5115590000000  0.5445020000000  0.5168130000000 1.0
C      1  0.4668470000000  0.6047240000000  0.4451520000000 1.0
C      1  0.4680240000000  0.4745680000000  0.5234330000000 1.0
C      1  0.6179790000000  0.5081370000000  0.5274880000000 1.0
C      1  0.5773270000000  0.5463540000000  0.5805090000000 1.0
C      1  0.5234020000000  0.4643660000000  0.4430040000000 1.0
C      1  0.4946220000000  0.6048800000000  0.4539750000000 1.0
C      1  0.5519770000000  0.5434390000000  0.4524170000000 1.0
C      1  0.5705020000000  0.5114430000000  0.4936890000000 1.0
C      1  0.6146500000000  0.4787960000000  0.4202850000000 1.0
C      1  0.4497780000000  0.5189710000000  0.5268360000000 1.0
C      1  0.5880170000000  0.5117850000000  0.4700350000000 1.0
C      1  0.4700420000000  0.5667290000000  0.5850510000000 1.0
C      1  0.4681810000000  0.4891280000000  0.6191880000000 1.0
C      1  0.5494960000000  0.4934010000000  0.4861620000000 1.0
C      1  0.4634080000000  0.4044170000000  0.4064030000000 1.0
C      1  0.5839020000000  0.4485030000000  0.4441600000000 1.0
C      1  0.4977920000000  0.4578550000000  0.4581510000000 1.0
C      1  0.5351710000000  0.5353170000000  0.5282510000000 1.0
C      1  0.5022430000000  0.5673050000000  0.5293170000000 1.0
C      1  0.3933710000000  0.5535000000000  0.4978220000000 1.0
C      1  0.3579700000000  0.4786380000000  0.5482370000000 1.0
C      1  0.5202370000000  0.4838210000000  0.4190960000000 1.0
C      1  0.5550160000000  0.4951740000000  0.5870780000000 1.0
C      1  0.6078460000000  0.5454920000000  0.4058150000000 1.0
C      1  0.4859610000000  0.4352730000000  0.5749330000000 1.0
C      1  0.4507810000000  0.5045820000000  0.3920970000000 1.0
C      1  0.4819180000000  0.5407820000000  0.6227920000000 1.0
C      1  0.5984160000000  0.4457730000000  0.4911330000000 1.0
C      1  0.4969700000000  0.4821830000000  0.4030230000000 1.0
C      1  0.3764580000000  0.4820710000000  0.4787300000000 1.0
C      1  0.5094380000000  0.4016550000000  0.5433980000000 1.0
C      1  0.5323640000000  0.5632830000000  0.6127690000000 1.0
C      1  0.4512290000000  0.4799820000000  0.4610500000000 1.0
C      1  0.4088300000000  0.5531990000000  0.5218580000000 1.0
C      1  0.6181890000000  0.5514620000000  0.3826430000000 1.0
C      1  0.5074320000000  0.4271120000000  0.4146070000000 1.0
C      1  0.4488340000000  0.4908080000000  0.5368960000000 1.0
C      1  0.5405110000000  0.4783460000000  0.4652720000000 1.0
C      1  0.5360400000000  0.5078650000000  0.4162080000000 1.0
C      1  0.4737170000000  0.5179710000000  0.5802290000000 1.0
C      1  0.6283640000000  0.4820110000000  0.3983590000000 1.0
C      1  0.5120340000000  0.5440120000000  0.6252660000000 1.0
C      1  0.5097260000000  0.4784460000000  0.5747270000000 1.0
C      1  0.5312950000000  0.4996180000000  0.6322650000000 1.0
C      1  0.5282220000000  0.5909780000000  0.4132030000000 1.0
C      1  0.4702760000000  0.5836180000000  0.4002400000000 1.0
C      1  0.5874230000000  0.4677300000000  0.5656930000000 1.0
C      1  0.4581710000000  0.3702050000000  0.4792000000000 1.0
C      1  0.4877820000000  0.4092280000000  0.5621510000000 1.0
C      1  0.5534690000000  0.5946200000000  0.4976710000000 1.0
C      1  0.5355630000000  0.4750760000000  0.5877280000000 1.0
C      1  0.4526110000000  0.5074330000000  0.4562950000000 1.0
C      1  0.4789270000000  0.5586460000000  0.4048050000000 1.0
C      1  0.5198740000000  0.3956870000000  0.4901500000000 1.0
C      1  0.4355140000000  0.5655700000000  0.5264960000000 1.0
C      1  0.4014910000000  0.5905440000000  0.4102140000000 1.0
C      1  0.5924210000000  0.5583040000000  0.4748970000000 1.0
C      1  0.6061310000000  0.4660670000000  0.5438540000000 1.0
C      1  0.5378040000000  0.5723100000000  0.3964850000000 1.0
C      1  0.5365020000000  0.4519850000000  0.5196470000000 1.0
C      1  0.4221100000000  0.4782560000000  0.5389020000000 1.0
C      1  0.5614110000000  0.5537640000000  0.6056710000000 1.0
C      1  0.4005750000000  0.4439890000000  0.5058500000000 1.0
C      1  0.5336990000000  0.5612630000000  0.4686900000000 1.0
C      1  0.3870170000000  0.6105270000000  0.4018330000000 1.0
C      1  0.4521800000000  0.5445010000000  0.5410280000000 1.0
C      1  0.4648430000000  0.6044450000000  0.4165430000000 1.0
C      1  0.6031320000000  0.4876000000000  0.4677670000000 1.0
C      1  0.5594770000000  0.4275060000000  0.5528990000000 1.0
C      1  0.3856990000000  0.5328690000000  0.4816120000000 1.0
C      1  0.5190350000000  0.5699180000000  0.5871700000000 1.0
C      1  0.4225830000000  0.4105880000000  0.4403620000000 1.0
C      1  0.5647890000000  0.4162610000000  0.4770470000000 1.0
C      1  0.4999970000000  0.4447070000000  0.4837140000000 1.0
C      1  0.4714130000000  0.3724640000000  0.4558590000000 1.0
C      1  0.4382120000000  0.4062390000000  0.4189670000000 1.0
C      1  0.4714110000000  0.4627190000000  0.6143400000000 1.0
C      1  0.4941410000000  0.5814130000000  0.5809940000000 1.0
C      1  0.4035930000000  0.4993660000000  0.5269300000000 1.0
C      1  0.5080340000000  0.4303120000000  0.6170040000000 1.0
C      1  0.4912150000000  0.3894790000000  0.4452620000000 1.0
C      1  0.4168440000000  0.4989270000000  0.4975720000000 1.0
C      1  0.5432990000000  0.5210560000000  0.3921810000000 1.0
C      1  0.3585100000000  0.4567850000000  0.5638960000000 1.0
C      1  0.5313430000000  0.4193650000000  0.5506500000000 1.0
C      1  0.4308800000000  0.5721590000000  0.4447250000000 1.0
C      1  0.5061160000000  0.6017230000000  0.4801060000000 1.0
C      1  0.4551440000000  0.4246720000000  0.4708710000000 1.0
C      1  0.5320660000000  0.5872800000000  0.4807010000000 1.0
C      1  0.4657930000000  0.5627680000000  0.6134220000000 1.0
C      1  0.4279610000000  0.4190110000000  0.4665570000000 1.0
C      1  0.4216690000000  0.5465420000000  0.4045650000000 1.0
C      1  0.4584620000000  0.3852440000000  0.5016620000000 1.0
C      1  0.4728420000000  0.4334470000000  0.4936550000000 1.0
C      1  0.5030140000000  0.3977470000000  0.5147120000000 1.0
C      1  0.5624190000000  0.4417730000000  0.4263370000000 1.0
C      1  0.4731220000000  0.4901780000000  0.3941610000000 1.0
C      1  0.4649280000000  0.4000430000000  0.3794070000000 1.0
C      1  0.5663950000000  0.5620850000000  0.5583150000000 1.0
C      1  0.4971960000000  0.5055130000000  0.4962610000000 1.0
C      1  0.4992440000000  0.5046680000000  0.5747770000000 1.0
C      1  0.4014410000000  0.4361750000000  0.5543860000000 1.0
C      1  0.5066950000000  0.5935870000000  0.5270920000000 1.0
C      1  0.5343240000000  0.4331520000000  0.6112880000000 1.0
C      1  0.4913790000000  0.4872830000000  0.5147960000000 1.0
C      1  0.4884630000000  0.5415800000000  0.4229800000000 1.0
C      1  0.4112910000000  0.4240730000000  0.4886990000000 1.0
C      1  0.5873180000000  0.4367280000000  0.5149880000000 1.0
C      1  0.4386170000000  0.5201890000000  0.4997670000000 1.0
C      1  0.4721320000000  0.4652410000000  0.4497550000000 1.0
C      1  0.5961290000000  0.5396970000000  0.4288510000000 1.0
C      1  0.5630020000000  0.4408530000000  0.5273680000000 1.0
C      1  0.3778610000000  0.4383230000000  0.5673270000000 1.0
C      1  0.4563220000000  0.4577680000000  0.5036330000000 1.0
C      1  0.4935150000000  0.6064270000000  0.5056520000000 1.0
C      1  0.5479970000000  0.4499070000000  0.5933600000000 1.0
C      1  0.5325350000000  0.4354360000000  0.4311610000000 1.0
C      1  0.3801670000000  0.4593930000000  0.4931100000000 1.0
C      1  0.5008700000000  0.4557940000000  0.5608240000000 1.0
C      1  0.5025690000000  0.5325860000000  0.4933330000000 1.0
C      1  0.5430500000000  0.5476670000000  0.3871210000000 1.0
C      1  0.4489980000000  0.5775350000000  0.6288760000000 1.0
C      1  0.5850510000000  0.4342780000000  0.4688610000000 1.0
C      1  0.6144880000000  0.4809570000000  0.5203370000000 1.0
C      1  0.4874800000000  0.4068100000000  0.4217870000000 1.0
C      1  0.6089560000000  0.4723940000000  0.4925040000000 1.0
C      1  0.5797310000000  0.5312980000000  0.5133230000000 1.0
C      1  0.5137750000000  0.6027320000000  0.4325260000000 1.0
C      1  0.5690250000000  0.4447330000000  0.5740590000000 1.0
C      1  0.5727730000000  0.5812480000000  0.5133020000000 1.0
C      1  0.4716330000000  0.5158220000000  0.6100370000000 1.0
C      1  0.4849690000000  0.4401220000000  0.6034680000000 1.0
C      1  0.4328860000000  0.5239930000000  0.3958250000000 1.0
C      1  0.4045250000000  0.5286220000000  0.5364690000000 1.0
C      1  0.5743910000000  0.5825840000000  0.5413350000000 1.0
C      1  0.4114320000000  0.4513200000000  0.5325610000000 1.0
C      1  0.5190150000000  0.5218040000000  0.5861340000000 1.0
C      1  0.4341370000000  0.5960710000000  0.4846450000000 1.0
C      1  0.5345130000000  0.4089110000000  0.4464220000000 1.0
C      1  0.5085040000000  0.5456580000000  0.4693200000000 1.0
C      1  0.5797690000000  0.4950530000000  0.5739560000000 1.0
C      1  0.5955810000000  0.5234480000000  0.5364380000000 1.0
C      1  0.4451340000000  0.5284000000000  0.4732540000000 1.0
C      1  0.5247410000000  0.5457880000000  0.5725670000000 1.0
C      1  0.5429330000000  0.5474650000000  0.5517680000000 1.0
C      1  0.4330020000000  0.5493470000000  0.4603000000000 1.0
C      1  0.5879730000000  0.5216170000000  0.5653110000000 1.0
C      1  0.4762530000000  0.4065160000000  0.5081770000000 1.0
C      1  0.5226440000000  0.5187890000000  0.6150440000000 1.0
C      1  0.4386420000000  0.4727720000000  0.4857340000000 1.0
C      1  0.5839710000000  0.5577570000000  0.5019380000000 1.0
C      1  0.4179590000000  0.5700990000000  0.4195950000000 1.0
END
