TITL C-627106-156-966 4.14281689219821 125000 -564.348096028149 0 0 93 (C1) n - 1
REM
REM in /home/nfs/bkarasulu/CARBON/AIRSS/Generating-Clusters/LCBOP/Only-C1/SD-CG/FIRE-CG
REM
REM
REM
REM
REM
REM ./C.cell (11c1c37f851c82e70ff6c80c92926a4b)
REM AIRSS Version 0.9.1 bugfix July 2018 build 013d7b7c2542+ Fri, 06 Jul 2018 19:26:36 +0100
REM compiler GCC version 9.2.1 20190827 (Red Hat 9.2.1-1)
REM options -cpp -mtune=generic -march=x86-64 -g -O0 -fpre-include=/usr/include/finclude/math-vector-fortran.h
REM seed -884535154 -1754649693 -1903533000 182605471 -1345899542 35053593 -1988436612 -585797057 -1714666091 853175593 -1699488759 -856744435 -504124939 1631657951 1172977782 -1623378969 -208148498 1727419681 -890012186 1346549672 1237610300 1967335506 -574226667 -350878314 -1318089201 543654152 -1461657116 -1883621838 1156932760 280946364 527225604 1788643626 620312649
REM
CELL 1.54180   50.00000   50.00000   50.00000   90.00000   90.00000   90.00000
LATT -1
SFAC C  
C      1  0.4718230000000  0.4792690000000  0.4596100000000 1.0
C      1  0.4387030000000  0.5757450000000  0.4781050000000 1.0
C      1  0.4525380000000  0.5283760000000  0.4860940000000 1.0
C      1  0.5297330000000  0.5419750000000  0.5690380000000 1.0
C      1  0.5250210000000  0.4786230000000  0.5757420000000 1.0
C      1  0.5462080000000  0.6114870000000  0.4895730000000 1.0
C      1  0.5050700000000  0.5101340000000  0.5093260000000 1.0
C      1  0.4467230000000  0.5224160000000  0.4581210000000 1.0
C      1  0.5715570000000  0.5169580000000  0.5552230000000 1.0
C      1  0.4069750000000  0.5475050000000  0.4988010000000 1.0
C      1  0.5557960000000  0.4622240000000  0.5256440000000 1.0
C      1  0.4219970000000  0.4940880000000  0.5188150000000 1.0
C      1  0.5499670000000  0.5217840000000  0.5737160000000 1.0
C      1  0.5148590000000  0.5867220000000  0.4619150000000 1.0
C      1  0.4811100000000  0.5328050000000  0.5662430000000 1.0
C      1  0.4878850000000  0.5056820000000  0.5648280000000 1.0
C      1  0.5019920000000  0.6056290000000  0.5083280000000 1.0
C      1  0.4467610000000  0.4394440000000  0.4738230000000 1.0
C      1  0.4919080000000  0.5233010000000  0.4404700000000 1.0
C      1  0.5471270000000  0.5481110000000  0.4659520000000 1.0
C      1  0.4911380000000  0.4959630000000  0.4495630000000 1.0
C      1  0.6134850000000  0.4708230000000  0.5280640000000 1.0
C      1  0.3746670000000  0.5062420000000  0.4602280000000 1.0
C      1  0.5182760000000  0.4935210000000  0.5286710000000 1.0
C      1  0.5208180000000  0.6011880000000  0.4866570000000 1.0
C      1  0.5794550000000  0.4905780000000  0.4339590000000 1.0
C      1  0.5302540000000  0.3603010000000  0.4402970000000 1.0
C      1  0.3981820000000  0.5019930000000  0.4481560000000 1.0
C      1  0.5199730000000  0.4511690000000  0.5788200000000 1.0
C      1  0.4339420000000  0.5511080000000  0.4910790000000 1.0
C      1  0.6059090000000  0.4566600000000  0.4800970000000 1.0
C      1  0.6307880000000  0.4626190000000  0.4705810000000 1.0
C      1  0.4077660000000  0.4763020000000  0.5364900000000 1.0
C      1  0.5645200000000  0.4299250000000  0.4710160000000 1.0
C      1  0.4606150000000  0.5910790000000  0.5347870000000 1.0
C      1  0.4237880000000  0.5092510000000  0.4490520000000 1.0
C      1  0.4277050000000  0.5207650000000  0.5294750000000 1.0
C      1  0.5842770000000  0.4501380000000  0.4628090000000 1.0
C      1  0.5481680000000  0.4509500000000  0.4328040000000 1.0
C      1  0.5366860000000  0.3522240000000  0.5220380000000 1.0
C      1  0.5419450000000  0.4978830000000  0.5875830000000 1.0
C      1  0.6125200000000  0.4886980000000  0.5480570000000 1.0
C      1  0.4528020000000  0.5357640000000  0.5680000000000 1.0
C      1  0.5440760000000  0.5377530000000  0.4919400000000 1.0
C      1  0.5116850000000  0.5430370000000  0.4342580000000 1.0
C      1  0.4689690000000  0.4247440000000  0.4647610000000 1.0
C      1  0.4472790000000  0.5929490000000  0.4597520000000 1.0
C      1  0.4372730000000  0.5194230000000  0.5851800000000 1.0
C      1  0.4843990000000  0.5633930000000  0.4910140000000 1.0
C      1  0.4406330000000  0.4810950000000  0.4999580000000 1.0
C      1  0.5020540000000  0.4372980000000  0.5639950000000 1.0
C      1  0.5653330000000  0.5285480000000  0.5074950000000 1.0
C      1  0.5035960000000  0.5501640000000  0.5592030000000 1.0
C      1  0.5651020000000  0.4232240000000  0.4983890000000 1.0
C      1  0.4767340000000  0.5090790000000  0.5041310000000 1.0
C      1  0.5974090000000  0.5070790000000  0.5607720000000 1.0
C      1  0.5678740000000  0.5382760000000  0.4498410000000 1.0
C      1  0.5191290000000  0.5460440000000  0.4079300000000 1.0
C      1  0.3818940000000  0.5389320000000  0.4958540000000 1.0
C      1  0.5784250000000  0.5168500000000  0.4380380000000 1.0
C      1  0.4851080000000  0.4436010000000  0.5440820000000 1.0
C      1  0.5473010000000  0.3752200000000  0.5158670000000 1.0
C      1  0.5028240000000  0.5556780000000  0.5096370000000 1.0
C      1  0.4659140000000  0.4845670000000  0.5133630000000 1.0
C      1  0.5243230000000  0.5602870000000  0.4539250000000 1.0
C      1  0.6000300000000  0.4561350000000  0.5081800000000 1.0
C      1  0.4393460000000  0.5432360000000  0.5438010000000 1.0
C      1  0.4248030000000  0.4284160000000  0.4874520000000 1.0
C      1  0.4200450000000  0.4989830000000  0.5819870000000 1.0
C      1  0.5183680000000  0.5339290000000  0.5029010000000 1.0
C      1  0.4076780000000  0.4333500000000  0.5074440000000 1.0
C      1  0.5459350000000  0.4881590000000  0.5257340000000 1.0
C      1  0.5573330000000  0.3986170000000  0.5085340000000 1.0
C      1  0.4683570000000  0.6015960000000  0.4459170000000 1.0
C      1  0.4428190000000  0.5706950000000  0.5371620000000 1.0
C      1  0.5726620000000  0.4644690000000  0.4406050000000 1.0
C      1  0.3675830000000  0.5221200000000  0.4806850000000 1.0
C      1  0.4948810000000  0.5985570000000  0.4458520000000 1.0
C      1  0.4495560000000  0.4680230000000  0.4748530000000 1.0
C      1  0.4082600000000  0.4830390000000  0.5638720000000 1.0
C      1  0.5744140000000  0.4447560000000  0.5145690000000 1.0
C      1  0.5087740000000  0.4904720000000  0.5552750000000 1.0
C      1  0.4887350000000  0.5924980000000  0.5305040000000 1.0
C      1  0.5630840000000  0.5107340000000  0.5287600000000 1.0
C      1  0.4006590000000  0.4511820000000  0.5261560000000 1.0
C      1  0.5207050000000  0.4121710000000  0.4520510000000 1.0
C      1  0.5251610000000  0.3853980000000  0.4451270000000 1.0
C      1  0.4652730000000  0.5327650000000  0.4397960000000 1.0
C      1  0.5427000000000  0.4298760000000  0.4520750000000 1.0
C      1  0.4751800000000  0.4624170000000  0.5278540000000 1.0
C      1  0.5012910000000  0.5667950000000  0.5360010000000 1.0
C      1  0.4945700000000  0.4200860000000  0.4588050000000 1.0
C      1  0.5330360000000  0.4568690000000  0.4110130000000 1.0
END
