TITL C-627111-6168-1102 -1.99565733668572e-06 125000 -901.834976222318 0 0 146 (C1) n - 1
REM
REM in /home/nfs/bkarasulu/CARBON/AIRSS/Generating-Clusters/LCBOP/Only-C1/SD-CG/FIRE-CG
REM
REM
REM
REM
REM
REM ./C.cell (11c1c37f851c82e70ff6c80c92926a4b)
REM AIRSS Version 0.9.1 bugfix July 2018 build 013d7b7c2542+ Fri, 06 Jul 2018 19:26:36 +0100
REM compiler GCC version 9.2.1 20190827 (Red Hat 9.2.1-1)
REM options -cpp -mtune=generic -march=x86-64 -g -O0 -fpre-include=/usr/include/finclude/math-vector-fortran.h
REM seed -957488150 -1473346796 -555551681 1338678200 305641200 -816151864 -451719543 1909151924 736709311 601923476 744021166 -786616821 545872507 -1590249963 -1744946444 -743718712 -176370879 -1977925387 -1319073484 1199341473 876828637 -2137089754 -1141625270 1086559837 -1469718854 -709927788 1654205927 546660965 -1393326122 1641956400 -1721781734 1455461179 1849141487
REM
CELL 1.54180   50.00000   50.00000   50.00000   90.00000   90.00000   90.00000
LATT -1
SFAC C  
C      1  0.4635280000000  0.5719960000000  0.4050990000000 1.0
C      1  0.3933330000000  0.4420820000000  0.4690970000000 1.0
C      1  0.4106800000000  0.5115870000000  0.5486170000000 1.0
C      1  0.4060340000000  0.5546350000000  0.6283850000000 1.0
C      1  0.5268630000000  0.6109540000000  0.4768530000000 1.0
C      1  0.5396330000000  0.4328830000000  0.4461830000000 1.0
C      1  0.5132740000000  0.5722980000000  0.4353500000000 1.0
C      1  0.4895390000000  0.5014450000000  0.5736150000000 1.0
C      1  0.5476000000000  0.4500670000000  0.4668140000000 1.0
C      1  0.4501030000000  0.5813160000000  0.4282400000000 1.0
C      1  0.5798200000000  0.5231160000000  0.5534490000000 1.0
C      1  0.4456250000000  0.4227740000000  0.5806750000000 1.0
C      1  0.5530100000000  0.4791570000000  0.4642880000000 1.0
C      1  0.4928840000000  0.5722600000000  0.5641660000000 1.0
C      1  0.5735600000000  0.4986340000000  0.4565880000000 1.0
C      1  0.4406980000000  0.4129010000000  0.5172100000000 1.0
C      1  0.4605790000000  0.4813860000000  0.4181460000000 1.0
C      1  0.4506130000000  0.4655390000000  0.5031980000000 1.0
C      1  0.4821080000000  0.5171620000000  0.5940880000000 1.0
C      1  0.4658640000000  0.4643270000000  0.4384320000000 1.0
C      1  0.4840040000000  0.5065200000000  0.5252770000000 1.0
C      1  0.5346570000000  0.5629330000000  0.4551010000000 1.0
C      1  0.5684040000000  0.4376570000000  0.3975960000000 1.0
C      1  0.4752080000000  0.4568830000000  0.6009760000000 1.0
C      1  0.6097460000000  0.4308730000000  0.4576050000000 1.0
C      1  0.5096300000000  0.6172350000000  0.4552300000000 1.0
C      1  0.5321750000000  0.5386950000000  0.4036920000000 1.0
C      1  0.4019890000000  0.4426640000000  0.5643550000000 1.0
C      1  0.4688370000000  0.5574930000000  0.5699140000000 1.0
C      1  0.6068960000000  0.4394620000000  0.4827110000000 1.0
C      1  0.5496150000000  0.4327270000000  0.5582710000000 1.0
C      1  0.3986620000000  0.4586910000000  0.5415700000000 1.0
C      1  0.5561430000000  0.5333190000000  0.4184130000000 1.0
C      1  0.6600390000000  0.5263220000000  0.5265280000000 1.0
C      1  0.5157520000000  0.5915630000000  0.4954910000000 1.0
C      1  0.5237880000000  0.5208810000000  0.5454890000000 1.0
C      1  0.4002200000000  0.4869790000000  0.5445110000000 1.0
C      1  0.6005290000000  0.4245600000000  0.4332810000000 1.0
C      1  0.6140350000000  0.5002750000000  0.5164880000000 1.0
C      1  0.5419670000000  0.5193270000000  0.5224280000000 1.0
C      1  0.4161450000000  0.5636390000000  0.4620760000000 1.0
C      1  0.3820550000000  0.4661990000000  0.4230320000000 1.0
C      1  0.5676670000000  0.4541690000000  0.5078980000000 1.0
C      1  0.5447950000000  0.3825880000000  0.4716480000000 1.0
C      1  0.5159150000000  0.4935890000000  0.4090400000000 1.0
C      1  0.5228140000000  0.5148720000000  0.3915000000000 1.0
C      1  0.4904500000000  0.5983120000000  0.5555790000000 1.0
C      1  0.4136230000000  0.5476480000000  0.4852520000000 1.0
C      1  0.5040160000000  0.5026660000000  0.4334710000000 1.0
C      1  0.5324070000000  0.5481320000000  0.4819220000000 1.0
C      1  0.4547080000000  0.4757490000000  0.6049370000000 1.0
C      1  0.4708560000000  0.4338730000000  0.5833730000000 1.0
C      1  0.4681600000000  0.4072200000000  0.5168210000000 1.0
C      1  0.5534500000000  0.6050460000000  0.4684010000000 1.0
C      1  0.5535680000000  0.5755320000000  0.5208750000000 1.0
C      1  0.4958520000000  0.5962030000000  0.4414960000000 1.0
C      1  0.4649370000000  0.5982350000000  0.4962840000000 1.0
C      1  0.5065380000000  0.4928700000000  0.4597890000000 1.0
C      1  0.4248890000000  0.5694890000000  0.4356900000000 1.0
C      1  0.5544960000000  0.4118190000000  0.4347150000000 1.0
C      1  0.5320660000000  0.4963680000000  0.4730400000000 1.0
C      1  0.5522050000000  0.4361510000000  0.4920840000000 1.0
C      1  0.4875080000000  0.4267330000000  0.5244690000000 1.0
C      1  0.4861790000000  0.5014260000000  0.4780500000000 1.0
C      1  0.4717920000000  0.5419060000000  0.5934120000000 1.0
C      1  0.5292470000000  0.5354260000000  0.5696490000000 1.0
C      1  0.5310460000000  0.3909780000000  0.4946470000000 1.0
C      1  0.5408410000000  0.5813930000000  0.5676600000000 1.0
C      1  0.4996710000000  0.5105230000000  0.5021920000000 1.0
C      1  0.5198260000000  0.5625000000000  0.5704040000000 1.0
C      1  0.5328690000000  0.5028510000000  0.6076110000000 1.0
C      1  0.5191810000000  0.4804590000000  0.6136360000000 1.0
C      1  0.5473630000000  0.4655260000000  0.5250710000000 1.0
C      1  0.4946960000000  0.4488490000000  0.5071520000000 1.0
C      1  0.5544850000000  0.4601190000000  0.5519470000000 1.0
C      1  0.5423480000000  0.4286050000000  0.5853720000000 1.0
C      1  0.4271830000000  0.5293860000000  0.5636900000000 1.0
C      1  0.5049210000000  0.4204910000000  0.5458560000000 1.0
C      1  0.5337800000000  0.5700650000000  0.5019320000000 1.0
C      1  0.6374240000000  0.5140820000000  0.5222930000000 1.0
C      1  0.3984800000000  0.4447780000000  0.5168440000000 1.0
C      1  0.4533370000000  0.5292930000000  0.4992670000000 1.0
C      1  0.5398790000000  0.4146710000000  0.5085860000000 1.0
C      1  0.5518830000000  0.3854210000000  0.4445930000000 1.0
C      1  0.5764490000000  0.4214180000000  0.4191330000000 1.0
C      1  0.6159560000000  0.5608020000000  0.5683070000000 1.0
C      1  0.5557920000000  0.3636790000000  0.4285520000000 1.0
C      1  0.4625870000000  0.5027430000000  0.4016360000000 1.0
C      1  0.3815960000000  0.4505910000000  0.4940630000000 1.0
C      1  0.5863940000000  0.5107380000000  0.4788200000000 1.0
C      1  0.4565250000000  0.5090390000000  0.5192490000000 1.0
C      1  0.3827060000000  0.4881720000000  0.4081540000000 1.0
C      1  0.4445930000000  0.5520260000000  0.5536880000000 1.0
C      1  0.6120360000000  0.4723470000000  0.5176630000000 1.0
C      1  0.5563080000000  0.5846670000000  0.5458930000000 1.0
C      1  0.4379180000000  0.4890170000000  0.5101670000000 1.0
C      1  0.5271660000000  0.4688790000000  0.4024950000000 1.0
C      1  0.4378800000000  0.4960020000000  0.5994860000000 1.0
C      1  0.5332820000000  0.4188930000000  0.5380380000000 1.0
C      1  0.4498130000000  0.5912420000000  0.5193580000000 1.0
C      1  0.4091640000000  0.5584560000000  0.4151120000000 1.0
C      1  0.4346260000000  0.5493910000000  0.5045300000000 1.0
C      1  0.4850590000000  0.5623600000000  0.4731140000000 1.0
C      1  0.5903340000000  0.5130110000000  0.5066080000000 1.0
C      1  0.5107540000000  0.5573070000000  0.4103520000000 1.0
C      1  0.5475160000000  0.4540150000000  0.3936250000000 1.0
C      1  0.4197240000000  0.4272540000000  0.5768130000000 1.0
C      1  0.4403910000000  0.5654630000000  0.5275450000000 1.0
C      1  0.4031090000000  0.5209270000000  0.4855340000000 1.0
C      1  0.4651420000000  0.5210660000000  0.4748060000000 1.0
C      1  0.3875360000000  0.5133280000000  0.4011800000000 1.0
C      1  0.5192910000000  0.4631220000000  0.5151980000000 1.0
C      1  0.5661300000000  0.4792030000000  0.5685650000000 1.0
C      1  0.4962160000000  0.4248910000000  0.5728610000000 1.0
C      1  0.4834120000000  0.5526250000000  0.3993500000000 1.0
C      1  0.4562980000000  0.6073190000000  0.4704340000000 1.0
C      1  0.4899960000000  0.5277400000000  0.4365450000000 1.0
C      1  0.5957260000000  0.4540280000000  0.5041510000000 1.0
C      1  0.4180390000000  0.4287230000000  0.4764280000000 1.0
C      1  0.4420580000000  0.4299180000000  0.4618730000000 1.0
C      1  0.5705590000000  0.5198730000000  0.5262210000000 1.0
C      1  0.4992880000000  0.5064290000000  0.5480830000000 1.0
C      1  0.4145080000000  0.4986150000000  0.4964060000000 1.0
C      1  0.5991510000000  0.5418590000000  0.5605250000000 1.0
C      1  0.5041770000000  0.4578330000000  0.6063130000000 1.0
C      1  0.5693070000000  0.5151040000000  0.4335800000000 1.0
C      1  0.4802460000000  0.3839740000000  0.5064400000000 1.0
C      1  0.4641770000000  0.4480710000000  0.4617690000000 1.0
C      1  0.6324390000000  0.5797380000000  0.5753270000000 1.0
C      1  0.3854390000000  0.4500970000000  0.4438500000000 1.0
C      1  0.4664850000000  0.5971900000000  0.4452960000000 1.0
C      1  0.3965490000000  0.5382030000000  0.4034410000000 1.0
C      1  0.5824470000000  0.5742710000000  0.4438950000000 1.0
C      1  0.5582890000000  0.5804390000000  0.4548340000000 1.0
C      1  0.4726380000000  0.5265460000000  0.3933670000000 1.0
C      1  0.5286290000000  0.5186910000000  0.4945610000000 1.0
C      1  0.4767090000000  0.5403970000000  0.4580300000000 1.0
C      1  0.5159520000000  0.4351620000000  0.5922690000000 1.0
C      1  0.4276450000000  0.5214110000000  0.5916950000000 1.0
C      1  0.5059620000000  0.3793690000000  0.5001280000000 1.0
C      1  0.4888750000000  0.5831870000000  0.4919680000000 1.0
C      1  0.4161150000000  0.5382260000000  0.6108280000000 1.0
C      1  0.5670070000000  0.5069230000000  0.5732270000000 1.0
C      1  0.4191800000000  0.4267050000000  0.5057860000000 1.0
C      1  0.4728130000000  0.4551730000000  0.4888350000000 1.0
C      1  0.5446960000000  0.5186850000000  0.5873230000000 1.0
END
