TITL C-627106-156-1246 0.040514469022216 125000 -308.847234870979 0 0 51 (C1) n - 1
REM
REM in /home/nfs/bkarasulu/CARBON/AIRSS/Generating-Clusters/LCBOP/Only-C1/SD-CG/FIRE-CG
REM
REM
REM
REM
REM
REM ./C.cell (11c1c37f851c82e70ff6c80c92926a4b)
REM AIRSS Version 0.9.1 bugfix July 2018 build 013d7b7c2542+ Fri, 06 Jul 2018 19:26:36 +0100
REM compiler GCC version 9.2.1 20190827 (Red Hat 9.2.1-1)
REM options -cpp -mtune=generic -march=x86-64 -g -O0 -fpre-include=/usr/include/finclude/math-vector-fortran.h
REM seed -679784765 1368130207 -1905684742 -194182561 969173476 962636076 1302661186 362324691 -1013037327 1373023373 1295972238 -453700102 -1623390148 1666032006 620284985 -1026606245 1301871377 -1159461599 1971940812 -437781725 1933284105 -479735303 611004295 -1218645190 -1878886073 -1851308168 -970593487 575698158 1856696784 -1659663284 -955266823 2020024104 1256131649
REM
CELL 1.54180   50.00000   50.00000   50.00000   90.00000   90.00000   90.00000
LATT -1
SFAC C  
C      1  0.5211640000000  0.5073470000000  0.4398610000000 1.0
C      1  0.4332800000000  0.5749800000000  0.5573010000000 1.0
C      1  0.5361250000000  0.4336380000000  0.5082380000000 1.0
C      1  0.4534250000000  0.5068770000000  0.5002520000000 1.0
C      1  0.4276230000000  0.5420710000000  0.5230640000000 1.0
C      1  0.4679460000000  0.5155410000000  0.4316060000000 1.0
C      1  0.4713750000000  0.4849540000000  0.5052540000000 1.0
C      1  0.4974030000000  0.5429430000000  0.5776410000000 1.0
C      1  0.5389550000000  0.5304040000000  0.6080180000000 1.0
C      1  0.5018590000000  0.4172780000000  0.4734850000000 1.0
C      1  0.4530950000000  0.4992770000000  0.4495300000000 1.0
C      1  0.5201260000000  0.4452510000000  0.5287430000000 1.0
C      1  0.4580750000000  0.5681830000000  0.5651060000000 1.0
C      1  0.4680350000000  0.5635570000000  0.4329300000000 1.0
C      1  0.5317660000000  0.5285250000000  0.4548000000000 1.0
C      1  0.4657040000000  0.4585920000000  0.4954780000000 1.0
C      1  0.4986220000000  0.5195520000000  0.5253510000000 1.0
C      1  0.4751270000000  0.5326940000000  0.5352970000000 1.0
C      1  0.5843270000000  0.4375200000000  0.5156670000000 1.0
C      1  0.5599980000000  0.5238700000000  0.6227510000000 1.0
C      1  0.5207700000000  0.5342080000000  0.5168810000000 1.0
C      1  0.4512400000000  0.5272730000000  0.5199690000000 1.0
C      1  0.5179680000000  0.5368820000000  0.5931950000000 1.0
C      1  0.5225160000000  0.4165960000000  0.4904410000000 1.0
C      1  0.5580480000000  0.5631450000000  0.5067360000000 1.0
C      1  0.4870050000000  0.5742250000000  0.4483080000000 1.0
C      1  0.5199280000000  0.4606630000000  0.4268140000000 1.0
C      1  0.4443050000000  0.5102920000000  0.4739400000000 1.0
C      1  0.5268880000000  0.5502610000000  0.4718500000000 1.0
C      1  0.4748250000000  0.4261930000000  0.5339560000000 1.0
C      1  0.4572290000000  0.5400840000000  0.4219040000000 1.0
C      1  0.4681540000000  0.4530720000000  0.4674240000000 1.0
C      1  0.4955850000000  0.4918720000000  0.5191440000000 1.0
C      1  0.4556520000000  0.4712230000000  0.4497150000000 1.0
C      1  0.4609730000000  0.4381920000000  0.5142880000000 1.0
C      1  0.5357530000000  0.5495070000000  0.4988090000000 1.0
C      1  0.5009990000000  0.4428460000000  0.4331880000000 1.0
C      1  0.4769490000000  0.5481320000000  0.5593100000000 1.0
C      1  0.5535010000000  0.4750360000000  0.4581800000000 1.0
C      1  0.5006160000000  0.4290530000000  0.5413370000000 1.0
C      1  0.6054570000000  0.4310530000000  0.5294820000000 1.0
C      1  0.4377010000000  0.5406740000000  0.4028560000000 1.0
C      1  0.4954660000000  0.5105240000000  0.4288690000000 1.0
C      1  0.5614810000000  0.4443370000000  0.5012420000000 1.0
C      1  0.5142130000000  0.4726900000000  0.5272380000000 1.0
C      1  0.5806960000000  0.5174420000000  0.6372400000000 1.0
C      1  0.5088540000000  0.5698030000000  0.4629230000000 1.0
C      1  0.5333140000000  0.4816800000000  0.4398870000000 1.0
C      1  0.4190260000000  0.5626730000000  0.5380140000000 1.0
C      1  0.5627780000000  0.4618910000000  0.4793700000000 1.0
C      1  0.4880800000000  0.4354230000000  0.4571170000000 1.0
END
