TITL C-627110-360-1959 3.23667743176137e-07 125000 -414.296674183263 0 0 70 (C1) n - 1
REM
REM in /home/nfs/bkarasulu/CARBON/AIRSS/Generating-Clusters/LCBOP/Only-C1/SD-CG/FIRE-CG
REM
REM
REM
REM
REM
REM ./C.cell (11c1c37f851c82e70ff6c80c92926a4b)
REM AIRSS Version 0.9.1 bugfix July 2018 build 013d7b7c2542+ Fri, 06 Jul 2018 19:26:36 +0100
REM compiler GCC version 9.2.1 20190827 (Red Hat 9.2.1-1)
REM options -cpp -mtune=generic -march=x86-64 -g -O0 -fpre-include=/usr/include/finclude/math-vector-fortran.h
REM seed 1746702141 745273981 -960624551 -2010730625 2066493422 -78096049 -416643872 -1564401642 577464277 -553111843 252304349 347454727 989344381 -1845777261 -223559564 -1315071414 1170127550 -1093440756 1443439925 -1831528740 874101738 -1349738175 2136723551 -552727863 -1948736864 2020621898 -1781427247 1446472639 -1175016718 537530733 287761895 1224221260 1726761717
REM
CELL 1.54180   50.00000   50.00000   50.00000   90.00000   90.00000   90.00000
LATT -1
SFAC C  
C      1  0.5390060000000  0.5561640000000  0.4650640000000 1.0
C      1  0.5524380000000  0.4975420000000  0.4589610000000 1.0
C      1  0.4957980000000  0.5057890000000  0.4931450000000 1.0
C      1  0.4767290000000  0.4454790000000  0.5054330000000 1.0
C      1  0.5073640000000  0.4744980000000  0.4515680000000 1.0
C      1  0.4917140000000  0.5345360000000  0.4887970000000 1.0
C      1  0.5656570000000  0.4775510000000  0.5107560000000 1.0
C      1  0.4817780000000  0.4976400000000  0.4011510000000 1.0
C      1  0.4852520000000  0.4611810000000  0.4595810000000 1.0
C      1  0.4604600000000  0.4820690000000  0.4059410000000 1.0
C      1  0.5181660000000  0.5185740000000  0.4324070000000 1.0
C      1  0.4599410000000  0.4247620000000  0.5176720000000 1.0
C      1  0.4655680000000  0.4164970000000  0.5436890000000 1.0
C      1  0.4711020000000  0.5537380000000  0.4745910000000 1.0
C      1  0.5718230000000  0.4789290000000  0.4505780000000 1.0
C      1  0.4833060000000  0.5687590000000  0.4516400000000 1.0
C      1  0.5590620000000  0.5154010000000  0.4811540000000 1.0
C      1  0.4790550000000  0.4699810000000  0.5191840000000 1.0
C      1  0.6093200000000  0.4212170000000  0.4764440000000 1.0
C      1  0.5335360000000  0.4384650000000  0.5801130000000 1.0
C      1  0.4256890000000  0.4764090000000  0.4933700000000 1.0
C      1  0.5416500000000  0.5408560000000  0.5405200000000 1.0
C      1  0.4443810000000  0.5242110000000  0.4399600000000 1.0
C      1  0.5278430000000  0.5431090000000  0.4424080000000 1.0
C      1  0.4978300000000  0.5836440000000  0.5630580000000 1.0
C      1  0.5921940000000  0.4441000000000  0.4812040000000 1.0
C      1  0.4636420000000  0.5761340000000  0.4951310000000 1.0
C      1  0.4728250000000  0.4297510000000  0.5659970000000 1.0
C      1  0.4870470000000  0.5847570000000  0.4314020000000 1.0
C      1  0.5444850000000  0.5829230000000  0.4650820000000 1.0
C      1  0.4334300000000  0.4973660000000  0.4442240000000 1.0
C      1  0.4351830000000  0.4280870000000  0.5028600000000 1.0
C      1  0.4284120000000  0.5244270000000  0.4815690000000 1.0
C      1  0.4982680000000  0.4715380000000  0.5727990000000 1.0
C      1  0.5292410000000  0.4610460000000  0.5375640000000 1.0
C      1  0.4370880000000  0.4511140000000  0.4846240000000 1.0
C      1  0.6153560000000  0.4193720000000  0.4493940000000 1.0
C      1  0.4461170000000  0.5163880000000  0.5599620000000 1.0
C      1  0.5810190000000  0.4551370000000  0.5041170000000 1.0
C      1  0.5290260000000  0.5423220000000  0.5662010000000 1.0
C      1  0.5261590000000  0.4955900000000  0.4475500000000 1.0
C      1  0.5199300000000  0.4917540000000  0.4996150000000 1.0
C      1  0.4666100000000  0.4513940000000  0.4783270000000 1.0
C      1  0.5034820000000  0.5452110000000  0.5131380000000 1.0
C      1  0.4358860000000  0.4898800000000  0.5512620000000 1.0
C      1  0.6028600000000  0.4401640000000  0.4358420000000 1.0
C      1  0.4810460000000  0.5758610000000  0.5417960000000 1.0
C      1  0.5740900000000  0.5028330000000  0.5015300000000 1.0
C      1  0.4253120000000  0.4822290000000  0.5236490000000 1.0
C      1  0.5207540000000  0.4561630000000  0.5637160000000 1.0
C      1  0.4465160000000  0.5390140000000  0.4642640000000 1.0
C      1  0.4481360000000  0.4699240000000  0.5673100000000 1.0
C      1  0.4852580000000  0.5481850000000  0.5358620000000 1.0
C      1  0.5007640000000  0.5137990000000  0.4109500000000 1.0
C      1  0.4243060000000  0.4968800000000  0.4724230000000 1.0
C      1  0.5395310000000  0.5161640000000  0.6050780000000 1.0
C      1  0.5321140000000  0.5435450000000  0.5139030000000 1.0
C      1  0.5173580000000  0.5675180000000  0.5730560000000 1.0
C      1  0.5375960000000  0.4760540000000  0.5156530000000 1.0
C      1  0.4653610000000  0.5287970000000  0.5423630000000 1.0
C      1  0.4680550000000  0.5876310000000  0.5194400000000 1.0
C      1  0.4406430000000  0.4793530000000  0.4240530000000 1.0
C      1  0.4746620000000  0.4958470000000  0.5091370000000 1.0
C      1  0.4729790000000  0.4575080000000  0.5720740000000 1.0
C      1  0.5239650000000  0.5191690000000  0.5825540000000 1.0
C      1  0.5878100000000  0.4565960000000  0.4544670000000 1.0
C      1  0.4337790000000  0.5267360000000  0.5083220000000 1.0
C      1  0.5451730000000  0.5396610000000  0.4878150000000 1.0
C      1  0.5044420000000  0.4989490000000  0.5774760000000 1.0
C      1  0.4576200000000  0.5161280000000  0.5180630000000 1.0
END
