TITL C-627108-131-383 200.728885576275 125000 -1079.80286623888 0 0 176 (C1) n - 1
REM
REM in /home/nfs/bkarasulu/CARBON/AIRSS/Generating-Clusters/LCBOP/Only-C1/SD-CG/FIRE-CG
REM
REM
REM
REM
REM
REM ./C.cell (11c1c37f851c82e70ff6c80c92926a4b)
REM AIRSS Version 0.9.1 bugfix July 2018 build 013d7b7c2542+ Fri, 06 Jul 2018 19:26:36 +0100
REM compiler GCC version 9.2.1 20190827 (Red Hat 9.2.1-1)
REM options -cpp -mtune=generic -march=x86-64 -g -O0 -fpre-include=/usr/include/finclude/math-vector-fortran.h
REM seed -107445919 649668611 -5091422 957304700 241551812 1582337124 1508801118 495248870 463579793 -1234841112 -1581705136 853793453 1506735627 336958161 1699211675 -412501728 527720689 -1135771120 -1041924924 1128231542 1348460090 1737896986 397873956 259496053 2095274334 1669304550 384041096 827083000 490016888 1677723566 -141241252 -376817872 -1948519666
REM
CELL 1.54180   50.00000   50.00000   50.00000   90.00000   90.00000   90.00000
LATT -1
SFAC C  
C      1  0.5669540000000  0.5307630000000  0.5981880000000 1.0
C      1  0.5585700000000  0.6179220000000  0.4605470000000 1.0
C      1  0.5097540000000  0.5564030000000  0.4410840000000 1.0
C      1  0.4535910000000  0.6087520000000  0.4903300000000 1.0
C      1  0.4412810000000  0.4725990000000  0.6045550000000 1.0
C      1  0.4742110000000  0.6041180000000  0.5093990000000 1.0
C      1  0.4401300000000  0.5164000000000  0.4138570000000 1.0
C      1  0.5344100000000  0.4871260000000  0.3919060000000 1.0
C      1  0.4744080000000  0.5487670000000  0.5201580000000 1.0
C      1  0.5092530000000  0.5944900000000  0.5616210000000 1.0
C      1  0.4654290000000  0.4566080000000  0.5636690000000 1.0
C      1  0.5342750000000  0.5342190000000  0.3877750000000 1.0
C      1  0.3908850000000  0.4357070000000  0.5119200000000 1.0
C      1  0.4691590000000  0.4865300000000  0.6486300000000 1.0
C      1  0.4725050000000  0.5689430000000  0.5761970000000 1.0
C      1  0.3916620000000  0.5180570000000  0.5672540000000 1.0
C      1  0.5938840000000  0.4971090000000  0.5705430000000 1.0
C      1  0.5534690000000  0.4497060000000  0.4360550000000 1.0
C      1  0.4920350000000  0.5665310000000  0.4210710000000 1.0
C      1  0.5213650000000  0.5760500000000  0.5820190000000 1.0
C      1  0.4750120000000  0.4373230000000  0.5440070000000 1.0
C      1  0.4539140000000  0.4787260000000  0.6284180000000 1.0
C      1  0.4010120000000  0.5367360000000  0.4735000000000 1.0
C      1  0.4475890000000  0.5566650000000  0.5648570000000 1.0
C      1  0.5065750000000  0.4317370000000  0.4489590000000 1.0
C      1  0.5981210000000  0.5643090000000  0.5818050000000 1.0
C      1  0.4638900000000  0.5098210000000  0.5697430000000 1.0
C      1  0.5905450000000  0.5850040000000  0.4838800000000 1.0
C      1  0.5400530000000  0.5199830000000  0.4471400000000 1.0
C      1  0.4413040000000  0.4055960000000  0.4587310000000 1.0
C      1  0.4407850000000  0.5750410000000  0.5351670000000 1.0
C      1  0.5222380000000  0.5160800000000  0.6088500000000 1.0
C      1  0.4618370000000  0.5132760000000  0.4569180000000 1.0
C      1  0.4341930000000  0.5896080000000  0.4822880000000 1.0
C      1  0.5569990000000  0.5181320000000  0.5220420000000 1.0
C      1  0.4912720000000  0.6093830000000  0.4481340000000 1.0
C      1  0.5927780000000  0.5815020000000  0.5133090000000 1.0
C      1  0.6006250000000  0.4941100000000  0.4424460000000 1.0
C      1  0.4662990000000  0.4668730000000  0.4471810000000 1.0
C      1  0.4314710000000  0.5812500000000  0.4540760000000 1.0
C      1  0.4069920000000  0.5524680000000  0.4948570000000 1.0
C      1  0.4900330000000  0.4149170000000  0.5522740000000 1.0
C      1  0.5367370000000  0.3970620000000  0.4385690000000 1.0
C      1  0.4480470000000  0.4493970000000  0.5864660000000 1.0
C      1  0.5123080000000  0.5283460000000  0.4445910000000 1.0
C      1  0.5764760000000  0.4254600000000  0.4659180000000 1.0
C      1  0.4816140000000  0.4245860000000  0.4337890000000 1.0
C      1  0.4454340000000  0.4527440000000  0.5074090000000 1.0
C      1  0.4819460000000  0.4337140000000  0.4903320000000 1.0
C      1  0.4994300000000  0.4988170000000  0.5361780000000 1.0
C      1  0.4058900000000  0.4210720000000  0.4946510000000 1.0
C      1  0.5619290000000  0.4051590000000  0.4511000000000 1.0
C      1  0.5363470000000  0.4025070000000  0.5050640000000 1.0
C      1  0.5583720000000  0.5361640000000  0.4308020000000 1.0
C      1  0.4687920000000  0.4382670000000  0.5157180000000 1.0
C      1  0.5371130000000  0.4345230000000  0.3957770000000 1.0
C      1  0.3721510000000  0.4792550000000  0.5372490000000 1.0
C      1  0.4132770000000  0.4382760000000  0.4240010000000 1.0
C      1  0.4856370000000  0.5940530000000  0.4259710000000 1.0
C      1  0.5177970000000  0.3851100000000  0.4579210000000 1.0
C      1  0.6324770000000  0.5301060000000  0.5732970000000 1.0
C      1  0.4487240000000  0.5452640000000  0.4147960000000 1.0
C      1  0.4867880000000  0.5194460000000  0.3965040000000 1.0
C      1  0.5575700000000  0.4305260000000  0.5768880000000 1.0
C      1  0.6203020000000  0.5063260000000  0.5709950000000 1.0
C      1  0.4247350000000  0.5725620000000  0.5048380000000 1.0
C      1  0.5301290000000  0.4272790000000  0.4929390000000 1.0
C      1  0.5064480000000  0.4272240000000  0.4777130000000 1.0
C      1  0.5305230000000  0.4089210000000  0.4111520000000 1.0
C      1  0.4062100000000  0.4399830000000  0.4510020000000 1.0
C      1  0.4026710000000  0.4889450000000  0.4733380000000 1.0
C      1  0.4942490000000  0.3730770000000  0.5274690000000 1.0
C      1  0.5407160000000  0.6298940000000  0.5012120000000 1.0
C      1  0.5980770000000  0.4976200000000  0.4995440000000 1.0
C      1  0.4793640000000  0.5598170000000  0.4967300000000 1.0
C      1  0.5312160000000  0.4693080000000  0.5537830000000 1.0
C      1  0.5296620000000  0.4889400000000  0.6004770000000 1.0
C      1  0.5082000000000  0.5161980000000  0.4864980000000 1.0
C      1  0.4089770000000  0.4187810000000  0.5737090000000 1.0
C      1  0.4680080000000  0.5579630000000  0.4731230000000 1.0
C      1  0.5548560000000  0.5890850000000  0.5482500000000 1.0
C      1  0.4852820000000  0.4947980000000  0.6673730000000 1.0
C      1  0.4910300000000  0.4841850000000  0.4411750000000 1.0
C      1  0.5036630000000  0.3673820000000  0.5000830000000 1.0
C      1  0.4376570000000  0.4401910000000  0.4133130000000 1.0
C      1  0.5619670000000  0.4978330000000  0.4026120000000 1.0
C      1  0.5737770000000  0.5975740000000  0.5285550000000 1.0
C      1  0.5316980000000  0.5564410000000  0.3723710000000 1.0
C      1  0.4737240000000  0.4878860000000  0.4998470000000 1.0
C      1  0.4945230000000  0.4608650000000  0.3840470000000 1.0
C      1  0.4887570000000  0.5117210000000  0.4465770000000 1.0
C      1  0.5064040000000  0.3944400000000  0.5418850000000 1.0
C      1  0.3783540000000  0.4561490000000  0.5244950000000 1.0
C      1  0.3960670000000  0.4642080000000  0.4614660000000 1.0
C      1  0.5964310000000  0.4196440000000  0.4835640000000 1.0
C      1  0.5381210000000  0.4529330000000  0.4989910000000 1.0
C      1  0.6227610000000  0.5547510000000  0.5775910000000 1.0
C      1  0.4811920000000  0.5910440000000  0.5585940000000 1.0
C      1  0.5814110000000  0.5019290000000  0.5235260000000 1.0
C      1  0.5539070000000  0.5238890000000  0.4919180000000 1.0
C      1  0.3760430000000  0.5019000000000  0.5517490000000 1.0
C      1  0.4044510000000  0.5131370000000  0.4575850000000 1.0
C      1  0.4659030000000  0.3668540000000  0.5256700000000 1.0
C      1  0.4177880000000  0.4201360000000  0.4686540000000 1.0
C      1  0.5243480000000  0.5528810000000  0.5161340000000 1.0
C      1  0.5334980000000  0.4022730000000  0.5345470000000 1.0
C      1  0.5950160000000  0.4906420000000  0.4712280000000 1.0
C      1  0.5582900000000  0.4810060000000  0.6001410000000 1.0
C      1  0.5757660000000  0.5032720000000  0.5918310000000 1.0
C      1  0.4201240000000  0.4982860000000  0.5237290000000 1.0
C      1  0.5014320000000  0.5318050000000  0.5965370000000 1.0
C      1  0.4531510000000  0.5379610000000  0.4642990000000 1.0
C      1  0.5266210000000  0.5364650000000  0.4926570000000 1.0
C      1  0.4321890000000  0.5236490000000  0.5253730000000 1.0
C      1  0.5569480000000  0.5271960000000  0.4038340000000 1.0
C      1  0.5207000000000  0.5753340000000  0.4593030000000 1.0
C      1  0.5330230000000  0.6221720000000  0.4740670000000 1.0
C      1  0.4579910000000  0.3632650000000  0.4992940000000 1.0
C      1  0.4979540000000  0.5602120000000  0.5914190000000 1.0
C      1  0.4276470000000  0.4818110000000  0.5459820000000 1.0
C      1  0.4173870000000  0.5113960000000  0.4313930000000 1.0
C      1  0.5747870000000  0.5565470000000  0.4421520000000 1.0
C      1  0.5713010000000  0.5560900000000  0.5846040000000 1.0
C      1  0.4127310000000  0.4694130000000  0.5681030000000 1.0
C      1  0.4413930000000  0.5292680000000  0.5735660000000 1.0
C      1  0.4191480000000  0.4888580000000  0.4968420000000 1.0
C      1  0.5006090000000  0.5968880000000  0.4994250000000 1.0
C      1  0.5624750000000  0.4524280000000  0.5932620000000 1.0
C      1  0.4872240000000  0.3816440000000  0.4575310000000 1.0
C      1  0.5451340000000  0.5309080000000  0.6164650000000 1.0
C      1  0.4646560000000  0.5940990000000  0.5350810000000 1.0
C      1  0.5148270000000  0.5119720000000  0.3895220000000 1.0
C      1  0.4750750000000  0.5025740000000  0.5234500000000 1.0
C      1  0.4559700000000  0.4838100000000  0.5569170000000 1.0
C      1  0.5159460000000  0.4771520000000  0.5319860000000 1.0
C      1  0.5198210000000  0.4729060000000  0.5047030000000 1.0
C      1  0.5229100000000  0.4597260000000  0.3872910000000 1.0
C      1  0.4639920000000  0.4991660000000  0.4014450000000 1.0
C      1  0.4676540000000  0.4463150000000  0.4689650000000 1.0
C      1  0.5853340000000  0.4912010000000  0.4191490000000 1.0
C      1  0.4212770000000  0.4427320000000  0.5755820000000 1.0
C      1  0.5256760000000  0.4503600000000  0.4397560000000 1.0
C      1  0.4681610000000  0.4015220000000  0.4470240000000 1.0
C      1  0.4770290000000  0.5465950000000  0.4067570000000 1.0
C      1  0.5681430000000  0.4524620000000  0.4595620000000 1.0
C      1  0.5009780000000  0.4890120000000  0.4899860000000 1.0
C      1  0.5273410000000  0.5943160000000  0.5398170000000 1.0
C      1  0.5182940000000  0.5810280000000  0.5165410000000 1.0
C      1  0.5106680000000  0.6021640000000  0.4705350000000 1.0
C      1  0.4646040000000  0.4493240000000  0.4220080000000 1.0
C      1  0.5101690000000  0.5199040000000  0.5511540000000 1.0
C      1  0.5329130000000  0.5326120000000  0.5371350000000 1.0
C      1  0.4362830000000  0.5661540000000  0.4313010000000 1.0
C      1  0.5637310000000  0.6213630000000  0.4341550000000 1.0
C      1  0.5257170000000  0.3812160000000  0.4877100000000 1.0
C      1  0.5834150000000  0.5621100000000  0.4687110000000 1.0
C      1  0.5771010000000  0.6102600000000  0.4813180000000 1.0
C      1  0.5817810000000  0.4863250000000  0.5471030000000 1.0
C      1  0.5767060000000  0.5410220000000  0.4856220000000 1.0
C      1  0.4600420000000  0.5259720000000  0.5251380000000 1.0
C      1  0.5679070000000  0.4794440000000  0.4694270000000 1.0
C      1  0.5610840000000  0.4429540000000  0.4099090000000 1.0
C      1  0.5151470000000  0.4747930000000  0.4340720000000 1.0
C      1  0.4910660000000  0.5198680000000  0.5732780000000 1.0
C      1  0.4723650000000  0.4701210000000  0.3998370000000 1.0
C      1  0.5493290000000  0.4151220000000  0.5554770000000 1.0
C      1  0.5187730000000  0.4734110000000  0.5792120000000 1.0
C      1  0.5505370000000  0.5732230000000  0.5738960000000 1.0
C      1  0.5508980000000  0.5034350000000  0.4689040000000 1.0
C      1  0.5592420000000  0.4695240000000  0.5497760000000 1.0
C      1  0.4165540000000  0.5156390000000  0.5815720000000 1.0
C      1  0.4199780000000  0.4881390000000  0.5911510000000 1.0
C      1  0.4467860000000  0.4785980000000  0.4906220000000 1.0
C      1  0.4802290000000  0.3662470000000  0.4811820000000 1.0
C      1  0.5660540000000  0.6180760000000  0.5085120000000 1.0
C      1  0.4500750000000  0.4873540000000  0.4612680000000 1.0
END
