TITL C-627111-6168-577 0.0825427687095736 125000 -243.557081483077 0 0 41 (C1) n - 1
REM
REM in /home/nfs/bkarasulu/CARBON/AIRSS/Generating-Clusters/LCBOP/Only-C1/SD-CG/FIRE-CG
REM
REM
REM
REM
REM
REM ./C.cell (11c1c37f851c82e70ff6c80c92926a4b)
REM AIRSS Version 0.9.1 bugfix July 2018 build 013d7b7c2542+ Fri, 06 Jul 2018 19:26:36 +0100
REM compiler GCC version 9.2.1 20190827 (Red Hat 9.2.1-1)
REM options -cpp -mtune=generic -march=x86-64 -g -O0 -fpre-include=/usr/include/finclude/math-vector-fortran.h
REM seed 465693458 139364362 -308698837 2025729075 1757192889 873198588 1713975484 569380216 -1051418998 751386439 1443755524 976517904 777668894 1205380667 -1214652907 -1431783056 834697045 2034128953 -36217913 -1262480985 67658209 369639086 -295762204 -2092144426 812745942 1437531049 -418008969 -2086559264 170053520 -765951449 478945741 1037284854 -1616239275
REM
CELL 1.54180   50.00000   50.00000   50.00000   90.00000   90.00000   90.00000
LATT -1
SFAC C  
C      1  0.4732410000000  0.5034370000000  0.4584700000000 1.0
C      1  0.5471210000000  0.5100430000000  0.4917190000000 1.0
C      1  0.5324190000000  0.5088840000000  0.5377200000000 1.0
C      1  0.5564160000000  0.4898730000000  0.4465790000000 1.0
C      1  0.4766920000000  0.5183600000000  0.4123000000000 1.0
C      1  0.4937360000000  0.5613190000000  0.5286940000000 1.0
C      1  0.4365160000000  0.4704480000000  0.4605430000000 1.0
C      1  0.4756610000000  0.4715700000000  0.5314790000000 1.0
C      1  0.5602570000000  0.5018090000000  0.4701180000000 1.0
C      1  0.4733010000000  0.4766070000000  0.5575530000000 1.0
C      1  0.4307110000000  0.5454430000000  0.4636320000000 1.0
C      1  0.4452540000000  0.4967600000000  0.4584250000000 1.0
C      1  0.4845410000000  0.5165670000000  0.4818560000000 1.0
C      1  0.4581290000000  0.5533170000000  0.4653500000000 1.0
C      1  0.5356010000000  0.4832520000000  0.4312730000000 1.0
C      1  0.4894920000000  0.4751000000000  0.5073940000000 1.0
C      1  0.4727070000000  0.5575190000000  0.5109170000000 1.0
C      1  0.4865860000000  0.5027060000000  0.4333090000000 1.0
C      1  0.5168890000000  0.5247540000000  0.5554880000000 1.0
C      1  0.5094190000000  0.4872680000000  0.4289560000000 1.0
C      1  0.4998770000000  0.4336680000000  0.4743940000000 1.0
C      1  0.4272430000000  0.5184880000000  0.4563290000000 1.0
C      1  0.4139450000000  0.5587430000000  0.4820700000000 1.0
C      1  0.5025200000000  0.5118520000000  0.5758850000000 1.0
C      1  0.6338690000000  0.4344120000000  0.5834810000000 1.0
C      1  0.5538520000000  0.4939330000000  0.5475890000000 1.0
C      1  0.4998080000000  0.5009320000000  0.5003080000000 1.0
C      1  0.4242780000000  0.4199040000000  0.4680560000000 1.0
C      1  0.5738520000000  0.4790950000000  0.5566050000000 1.0
C      1  0.4754240000000  0.5435870000000  0.4859830000000 1.0
C      1  0.5259210000000  0.5078690000000  0.5099110000000 1.0
C      1  0.4665290000000  0.5334790000000  0.3936650000000 1.0
C      1  0.6535490000000  0.4197600000000  0.5922930000000 1.0
C      1  0.6138600000000  0.4493100000000  0.5745210000000 1.0
C      1  0.4222580000000  0.5677990000000  0.5061850000000 1.0
C      1  0.4467520000000  0.5669180000000  0.5173740000000 1.0
C      1  0.5095680000000  0.5503340000000  0.5470100000000 1.0
C      1  0.4944360000000  0.4532590000000  0.4906930000000 1.0
C      1  0.5938560000000  0.4642030000000  0.5655630000000 1.0
C      1  0.4297740000000  0.4450660000000  0.4640280000000 1.0
C      1  0.4841380000000  0.4923510000000  0.5762810000000 1.0
END
