TITL C-627110-360-1864 -1.17050507920607e-06 125000 -1156.67265363952 0 0 190 (C1) n - 1
REM
REM in /home/nfs/bkarasulu/CARBON/AIRSS/Generating-Clusters/LCBOP/Only-C1/SD-CG/FIRE-CG
REM
REM
REM
REM
REM
REM ./C.cell (11c1c37f851c82e70ff6c80c92926a4b)
REM AIRSS Version 0.9.1 bugfix July 2018 build 013d7b7c2542+ Fri, 06 Jul 2018 19:26:36 +0100
REM compiler GCC version 9.2.1 20190827 (Red Hat 9.2.1-1)
REM options -cpp -mtune=generic -march=x86-64 -g -O0 -fpre-include=/usr/include/finclude/math-vector-fortran.h
REM seed 1681511086 -150161111 813762903 -1850235937 295554055 975370037 1768920070 -113307354 -758177556 1980514178 1664339958 -675994069 2106476883 -1141870460 1510512974 -2087920058 1940677966 821702788 -890373188 201462035 1230274130 -1306647454 21744754 -352392540 -2134832375 909442144 -1500878785 -1223127041 281668628 -854683230 -901183145 769240224 -647789852
REM
CELL 1.54180   50.00000   50.00000   50.00000   90.00000   90.00000   90.00000
LATT -1
SFAC C  
C      1  0.4371170000000  0.4635560000000  0.4180630000000 1.0
C      1  0.5647170000000  0.5481620000000  0.5502930000000 1.0
C      1  0.5027610000000  0.3350730000000  0.4500630000000 1.0
C      1  0.5196210000000  0.5237030000000  0.6127330000000 1.0
C      1  0.5183580000000  0.5583430000000  0.4752480000000 1.0
C      1  0.5861180000000  0.6098960000000  0.4608220000000 1.0
C      1  0.4562790000000  0.5325490000000  0.3753640000000 1.0
C      1  0.5193060000000  0.5705420000000  0.3876150000000 1.0
C      1  0.4269150000000  0.5511020000000  0.5276990000000 1.0
C      1  0.4598560000000  0.4532540000000  0.6147760000000 1.0
C      1  0.4936080000000  0.6247670000000  0.5754650000000 1.0
C      1  0.4233660000000  0.4777070000000  0.5884310000000 1.0
C      1  0.3934220000000  0.4715910000000  0.4519710000000 1.0
C      1  0.4772900000000  0.5232980000000  0.4821740000000 1.0
C      1  0.5475500000000  0.4681260000000  0.5806200000000 1.0
C      1  0.4855420000000  0.4051870000000  0.4068630000000 1.0
C      1  0.4965780000000  0.5243050000000  0.5303600000000 1.0
C      1  0.5350280000000  0.5126150000000  0.3872990000000 1.0
C      1  0.5054790000000  0.4820760000000  0.4228810000000 1.0
C      1  0.6116120000000  0.5981070000000  0.4660700000000 1.0
C      1  0.5464460000000  0.5749570000000  0.5876180000000 1.0
C      1  0.4532510000000  0.5453380000000  0.4011480000000 1.0
C      1  0.6204240000000  0.4991780000000  0.4831960000000 1.0
C      1  0.4689920000000  0.3949750000000  0.4982330000000 1.0
C      1  0.4120440000000  0.5451490000000  0.5744570000000 1.0
C      1  0.5810620000000  0.5464050000000  0.4345680000000 1.0
C      1  0.5857680000000  0.4715040000000  0.5544330000000 1.0
C      1  0.4088470000000  0.5730900000000  0.5759710000000 1.0
C      1  0.4883450000000  0.4949460000000  0.3560930000000 1.0
C      1  0.4022680000000  0.4390600000000  0.5322360000000 1.0
C      1  0.4318660000000  0.5306650000000  0.4761860000000 1.0
C      1  0.4301110000000  0.5083930000000  0.4565680000000 1.0
C      1  0.5194080000000  0.5344210000000  0.5181720000000 1.0
C      1  0.4628630000000  0.4218080000000  0.4031700000000 1.0
C      1  0.4727840000000  0.3992800000000  0.4709360000000 1.0
C      1  0.5495250000000  0.4217090000000  0.4149380000000 1.0
C      1  0.4434280000000  0.4647670000000  0.5021860000000 1.0
C      1  0.5488400000000  0.5111350000000  0.4394260000000 1.0
C      1  0.4403690000000  0.5373050000000  0.5765920000000 1.0
C      1  0.4477470000000  0.4863690000000  0.4620790000000 1.0
C      1  0.5152670000000  0.5607360000000  0.5057790000000 1.0
C      1  0.4972050000000  0.5727680000000  0.5505860000000 1.0
C      1  0.3809900000000  0.4862030000000  0.4738190000000 1.0
C      1  0.5104920000000  0.5237400000000  0.3981800000000 1.0
C      1  0.4877170000000  0.5171320000000  0.5566160000000 1.0
C      1  0.4111530000000  0.4159410000000  0.5169590000000 1.0
C      1  0.5032550000000  0.5319710000000  0.4717370000000 1.0
C      1  0.5033680000000  0.5513720000000  0.3989540000000 1.0
C      1  0.4800490000000  0.5755580000000  0.4382500000000 1.0
C      1  0.4762780000000  0.5541660000000  0.5992280000000 1.0
C      1  0.4413570000000  0.5204060000000  0.6007600000000 1.0
C      1  0.6257140000000  0.4798410000000  0.5294430000000 1.0
C      1  0.5114340000000  0.6366790000000  0.5595560000000 1.0
C      1  0.4587190000000  0.4992710000000  0.5253510000000 1.0
C      1  0.5451340000000  0.6417090000000  0.5187720000000 1.0
C      1  0.4329900000000  0.5664740000000  0.4366970000000 1.0
C      1  0.4731800000000  0.6052560000000  0.4411360000000 1.0
C      1  0.5457440000000  0.5512680000000  0.4659180000000 1.0
C      1  0.4779000000000  0.6021880000000  0.5819150000000 1.0
C      1  0.4920020000000  0.4832080000000  0.5948410000000 1.0
C      1  0.4570080000000  0.5429190000000  0.4730840000000 1.0
C      1  0.5610980000000  0.6392510000000  0.4975680000000 1.0
C      1  0.5725540000000  0.4375920000000  0.4628870000000 1.0
C      1  0.4668390000000  0.4181590000000  0.5135720000000 1.0
C      1  0.5640480000000  0.5413330000000  0.5232100000000 1.0
C      1  0.4119410000000  0.4629340000000  0.4331540000000 1.0
C      1  0.4784220000000  0.5591060000000  0.4115160000000 1.0
C      1  0.4351020000000  0.4613400000000  0.6080090000000 1.0
C      1  0.4694590000000  0.5264500000000  0.6092160000000 1.0
C      1  0.5508830000000  0.4402230000000  0.6196840000000 1.0
C      1  0.5460780000000  0.5185500000000  0.5158960000000 1.0
C      1  0.5530470000000  0.3867430000000  0.5145840000000 1.0
C      1  0.4674220000000  0.4738180000000  0.5153850000000 1.0
C      1  0.5070450000000  0.3774180000000  0.5224620000000 1.0
C      1  0.6303500000000  0.4816490000000  0.5030450000000 1.0
C      1  0.4156750000000  0.4188200000000  0.4891820000000 1.0
C      1  0.6064510000000  0.5433410000000  0.4468160000000 1.0
C      1  0.4932810000000  0.5043020000000  0.4101360000000 1.0
C      1  0.4256950000000  0.4726880000000  0.5610400000000 1.0
C      1  0.5155880000000  0.4815780000000  0.5266190000000 1.0
C      1  0.5703470000000  0.4563180000000  0.4850510000000 1.0
C      1  0.5637740000000  0.4105550000000  0.4695660000000 1.0
C      1  0.3819660000000  0.5098040000000  0.5505280000000 1.0
C      1  0.5088610000000  0.3972150000000  0.4174790000000 1.0
C      1  0.4938430000000  0.4769760000000  0.4797920000000 1.0
C      1  0.6113260000000  0.4884990000000  0.4584720000000 1.0
C      1  0.5723850000000  0.4466170000000  0.5108890000000 1.0
C      1  0.5505190000000  0.4657590000000  0.3940340000000 1.0
C      1  0.3694400000000  0.5247450000000  0.5005780000000 1.0
C      1  0.5704070000000  0.3987370000000  0.4953560000000 1.0
C      1  0.4299030000000  0.4967280000000  0.5347580000000 1.0
C      1  0.4800750000000  0.4316030000000  0.5320360000000 1.0
C      1  0.4742190000000  0.4952330000000  0.4698860000000 1.0
C      1  0.5281960000000  0.3779840000000  0.5021500000000 1.0
C      1  0.5310000000000  0.4882490000000  0.4371470000000 1.0
C      1  0.6014240000000  0.5179510000000  0.5474880000000 1.0
C      1  0.5336780000000  0.4034770000000  0.4295470000000 1.0
C      1  0.3758470000000  0.5157500000000  0.4726900000000 1.0
C      1  0.3769430000000  0.4803780000000  0.5033490000000 1.0
C      1  0.4640430000000  0.5320780000000  0.5624630000000 1.0
C      1  0.4606410000000  0.4189130000000  0.5736870000000 1.0
C      1  0.4780890000000  0.5938620000000  0.5086790000000 1.0
C      1  0.5380670000000  0.4182170000000  0.5800200000000 1.0
C      1  0.5196900000000  0.5724350000000  0.5970050000000 1.0
C      1  0.4935500000000  0.5085510000000  0.6105020000000 1.0
C      1  0.5451710000000  0.4421120000000  0.5927230000000 1.0
C      1  0.4699220000000  0.5145250000000  0.3601310000000 1.0
C      1  0.5681040000000  0.5925570000000  0.4477150000000 1.0
C      1  0.4420250000000  0.4133330000000  0.3875760000000 1.0
C      1  0.4935130000000  0.4903590000000  0.5671700000000 1.0
C      1  0.5275470000000  0.3771320000000  0.4732520000000 1.0
C      1  0.5757310000000  0.6301940000000  0.4771830000000 1.0
C      1  0.4372220000000  0.4215020000000  0.5581950000000 1.0
C      1  0.4848690000000  0.4181240000000  0.4565020000000 1.0
C      1  0.4295870000000  0.5427440000000  0.4201210000000 1.0
C      1  0.5666850000000  0.5252090000000  0.4216690000000 1.0
C      1  0.3744710000000  0.5044420000000  0.5215080000000 1.0
C      1  0.4124900000000  0.5749230000000  0.4844750000000 1.0
C      1  0.5531980000000  0.4782260000000  0.4800930000000 1.0
C      1  0.5633760000000  0.5650470000000  0.4482540000000 1.0
C      1  0.5459910000000  0.5153020000000  0.6034100000000 1.0
C      1  0.5101710000000  0.4590210000000  0.4666290000000 1.0
C      1  0.5524030000000  0.5715560000000  0.5602440000000 1.0
C      1  0.4274450000000  0.4353220000000  0.4709130000000 1.0
C      1  0.4168730000000  0.5041770000000  0.5949670000000 1.0
C      1  0.4949190000000  0.4755960000000  0.5072510000000 1.0
C      1  0.5963860000000  0.5765530000000  0.5045950000000 1.0
C      1  0.4582880000000  0.6027920000000  0.4900460000000 1.0
C      1  0.4620560000000  0.4476250000000  0.4158280000000 1.0
C      1  0.5486180000000  0.4881260000000  0.5999970000000 1.0
C      1  0.5287400000000  0.6411480000000  0.5397770000000 1.0
C      1  0.5103100000000  0.4100280000000  0.5724090000000 1.0
C      1  0.4405720000000  0.4604220000000  0.4743400000000 1.0
C      1  0.6114460000000  0.5295520000000  0.5218840000000 1.0
C      1  0.4871060000000  0.4275880000000  0.5830630000000 1.0
C      1  0.4428630000000  0.4887450000000  0.4063970000000 1.0
C      1  0.4929130000000  0.5755150000000  0.5820490000000 1.0
C      1  0.4663760000000  0.6152250000000  0.4656360000000 1.0
C      1  0.4964930000000  0.4422470000000  0.4490520000000 1.0
C      1  0.3980480000000  0.5189920000000  0.5750670000000 1.0
C      1  0.4089240000000  0.5486070000000  0.4750530000000 1.0
C      1  0.5275870000000  0.4342090000000  0.5327930000000 1.0
C      1  0.4881550000000  0.4574230000000  0.4261150000000 1.0
C      1  0.4289940000000  0.5880660000000  0.5622200000000 1.0
C      1  0.5657710000000  0.5593620000000  0.6026060000000 1.0
C      1  0.5522240000000  0.5060440000000  0.4882300000000 1.0
C      1  0.5164090000000  0.3894040000000  0.5480610000000 1.0
C      1  0.5471080000000  0.3891810000000  0.5431340000000 1.0
C      1  0.5498530000000  0.5230780000000  0.4657820000000 1.0
C      1  0.4977520000000  0.5777810000000  0.5217720000000 1.0
C      1  0.5786870000000  0.4517640000000  0.4375650000000 1.0
C      1  0.4313460000000  0.5933480000000  0.4906130000000 1.0
C      1  0.5419910000000  0.4925750000000  0.5331570000000 1.0
C      1  0.4212320000000  0.4461120000000  0.5531100000000 1.0
C      1  0.5575360000000  0.4023160000000  0.5662020000000 1.0
C      1  0.4182610000000  0.5890700000000  0.4326300000000 1.0
C      1  0.4279570000000  0.4028410000000  0.5372020000000 1.0
C      1  0.5176710000000  0.5518630000000  0.6172890000000 1.0
C      1  0.5575430000000  0.4777420000000  0.5545980000000 1.0
C      1  0.5597080000000  0.5236160000000  0.3947390000000 1.0
C      1  0.3916010000000  0.5333970000000  0.4557630000000 1.0
C      1  0.5034270000000  0.4704890000000  0.5501960000000 1.0
C      1  0.5944520000000  0.4472520000000  0.5642360000000 1.0
C      1  0.6055760000000  0.4896580000000  0.5467510000000 1.0
C      1  0.4656650000000  0.5025310000000  0.4080520000000 1.0
C      1  0.4811210000000  0.3739860000000  0.5124470000000 1.0
C      1  0.5980700000000  0.4724460000000  0.4412110000000 1.0
C      1  0.5050520000000  0.5745560000000  0.4545600000000 1.0
C      1  0.6137110000000  0.5751050000000  0.4825210000000 1.0
C      1  0.5612310000000  0.4475320000000  0.4143330000000 1.0
C      1  0.4327980000000  0.5758440000000  0.5368220000000 1.0
C      1  0.5530830000000  0.4370540000000  0.5264050000000 1.0
C      1  0.5340650000000  0.4714450000000  0.4599100000000 1.0
C      1  0.5107710000000  0.4807710000000  0.3625330000000 1.0
C      1  0.4566980000000  0.5631780000000  0.4530610000000 1.0
C      1  0.4134100000000  0.5226330000000  0.4360770000000 1.0
C      1  0.6167310000000  0.5264170000000  0.4927860000000 1.0
C      1  0.4213080000000  0.5249920000000  0.5308940000000 1.0
C      1  0.5683090000000  0.5318500000000  0.5937160000000 1.0
C      1  0.5810450000000  0.5302260000000  0.5662270000000 1.0
C      1  0.4501450000000  0.6010620000000  0.5755660000000 1.0
C      1  0.6163960000000  0.5479820000000  0.4731570000000 1.0
C      1  0.5028680000000  0.4431460000000  0.5426750000000 1.0
C      1  0.4842350000000  0.4541500000000  0.5992570000000 1.0
C      1  0.5414220000000  0.3969310000000  0.4566490000000 1.0
C      1  0.4746880000000  0.5197020000000  0.5125630000000 1.0
C      1  0.5152640000000  0.3552450000000  0.4608270000000 1.0
C      1  0.5336770000000  0.4847280000000  0.3793550000000 1.0
C      1  0.5744910000000  0.5616340000000  0.5075920000000 1.0
C      1  0.4209700000000  0.4785440000000  0.5131280000000 1.0
END
