TITL C-627107-135-1356 0.811391299257991 125000 -621.631045931737 0 0 103 (C1) n - 1
REM
REM in /home/nfs/bkarasulu/CARBON/AIRSS/Generating-Clusters/LCBOP/Only-C1/SD-CG/FIRE-CG
REM
REM
REM
REM
REM
REM ./C.cell (11c1c37f851c82e70ff6c80c92926a4b)
REM AIRSS Version 0.9.1 bugfix July 2018 build 013d7b7c2542+ Fri, 06 Jul 2018 19:26:36 +0100
REM compiler GCC version 9.2.1 20190827 (Red Hat 9.2.1-1)
REM options -cpp -mtune=generic -march=x86-64 -g -O0 -fpre-include=/usr/include/finclude/math-vector-fortran.h
REM seed 700487178 553933243 1538387839 2110961564 1935025257 -1417279905 1903016315 -369150263 -286207045 -321334907 834320939 755369660 -992720853 -2064763136 -1400556662 -1639896844 1962038777 -984532798 -843620395 -1536789478 1862517602 1257134463 10986765 663160644 730624726 -205252147 436205020 -630094968 1143467696 1369544928 -1528912007 -440081555 -1607128372
REM
CELL 1.54180   50.00000   50.00000   50.00000   90.00000   90.00000   90.00000
LATT -1
SFAC C  
C      1  0.5041320000000  0.4876200000000  0.5647070000000 1.0
C      1  0.4325820000000  0.4641660000000  0.4560580000000 1.0
C      1  0.3858300000000  0.5737410000000  0.4523490000000 1.0
C      1  0.3954420000000  0.5499040000000  0.4566550000000 1.0
C      1  0.5750370000000  0.5353410000000  0.4434930000000 1.0
C      1  0.4253290000000  0.5315310000000  0.5106450000000 1.0
C      1  0.4647350000000  0.4501410000000  0.4900250000000 1.0
C      1  0.4989690000000  0.4588630000000  0.4129340000000 1.0
C      1  0.5334390000000  0.4017930000000  0.5196140000000 1.0
C      1  0.5327680000000  0.5226390000000  0.4645740000000 1.0
C      1  0.4579670000000  0.4723970000000  0.5057480000000 1.0
C      1  0.4898500000000  0.4555390000000  0.5932250000000 1.0
C      1  0.4160230000000  0.4425990000000  0.5004650000000 1.0
C      1  0.4187110000000  0.5355230000000  0.5389560000000 1.0
C      1  0.4774020000000  0.4282540000000  0.5321860000000 1.0
C      1  0.4146110000000  0.4894310000000  0.4936410000000 1.0
C      1  0.5402160000000  0.5230390000000  0.5158830000000 1.0
C      1  0.5697860000000  0.4809450000000  0.4956560000000 1.0
C      1  0.5862680000000  0.5142040000000  0.4592660000000 1.0
C      1  0.5253700000000  0.4639320000000  0.4235060000000 1.0
C      1  0.5165660000000  0.4099180000000  0.4788450000000 1.0
C      1  0.5329240000000  0.4498040000000  0.5694730000000 1.0
C      1  0.5509380000000  0.4748410000000  0.5178830000000 1.0
C      1  0.4686900000000  0.5160000000000  0.4268960000000 1.0
C      1  0.4805110000000  0.5398680000000  0.4172070000000 1.0
C      1  0.5284170000000  0.4974370000000  0.4560160000000 1.0
C      1  0.4537100000000  0.4448100000000  0.5401800000000 1.0
C      1  0.5288960000000  0.4918860000000  0.4283170000000 1.0
C      1  0.4709840000000  0.5503400000000  0.5288900000000 1.0
C      1  0.4660780000000  0.5014320000000  0.5891880000000 1.0
C      1  0.5583980000000  0.5680800000000  0.5438250000000 1.0
C      1  0.4904890000000  0.5965190000000  0.4590500000000 1.0
C      1  0.4163690000000  0.5638940000000  0.5436650000000 1.0
C      1  0.5999230000000  0.6210620000000  0.5879480000000 1.0
C      1  0.4534040000000  0.5367260000000  0.5110420000000 1.0
C      1  0.4764370000000  0.4274140000000  0.5023490000000 1.0
C      1  0.4421610000000  0.4904230000000  0.5620540000000 1.0
C      1  0.5127030000000  0.5177370000000  0.5149040000000 1.0
C      1  0.4854570000000  0.5292160000000  0.4715700000000 1.0
C      1  0.5035890000000  0.4768880000000  0.4959220000000 1.0
C      1  0.5292930000000  0.5422960000000  0.4199250000000 1.0
C      1  0.5481050000000  0.5437630000000  0.5563440000000 1.0
C      1  0.5334180000000  0.3525540000000  0.4328870000000 1.0
C      1  0.4602160000000  0.4593980000000  0.4635810000000 1.0
C      1  0.5486790000000  0.4892810000000  0.5437890000000 1.0
C      1  0.5711540000000  0.4323530000000  0.5355270000000 1.0
C      1  0.4598710000000  0.4723830000000  0.5489040000000 1.0
C      1  0.5308830000000  0.3671290000000  0.4543410000000 1.0
C      1  0.5295060000000  0.5831730000000  0.5046040000000 1.0
C      1  0.5351860000000  0.4506870000000  0.5107360000000 1.0
C      1  0.5614860000000  0.5288030000000  0.4980620000000 1.0
C      1  0.5075820000000  0.5643190000000  0.4999860000000 1.0
C      1  0.4741940000000  0.4703640000000  0.4096280000000 1.0
C      1  0.5500610000000  0.5184160000000  0.5426300000000 1.0
C      1  0.5304690000000  0.4243070000000  0.5003450000000 1.0
C      1  0.4878560000000  0.4841390000000  0.5885560000000 1.0
C      1  0.5311710000000  0.4776030000000  0.5628680000000 1.0
C      1  0.4557770000000  0.5306310000000  0.5718920000000 1.0
C      1  0.5252650000000  0.5477110000000  0.5723410000000 1.0
C      1  0.4745700000000  0.5455930000000  0.5572010000000 1.0
C      1  0.5730240000000  0.5863570000000  0.5590570000000 1.0
C      1  0.4553180000000  0.4908560000000  0.4182800000000 1.0
C      1  0.4848690000000  0.5708870000000  0.5159020000000 1.0
C      1  0.4978970000000  0.4938790000000  0.5173070000000 1.0
C      1  0.4765440000000  0.5096160000000  0.4540050000000 1.0
C      1  0.4905950000000  0.6071520000000  0.4863540000000 1.0
C      1  0.5000250000000  0.5530450000000  0.4747130000000 1.0
C      1  0.5743520000000  0.5071880000000  0.4846120000000 1.0
C      1  0.4866370000000  0.4846920000000  0.5417930000000 1.0
C      1  0.4145850000000  0.4637340000000  0.4797640000000 1.0
C      1  0.4888570000000  0.4105700000000  0.4836940000000 1.0
C      1  0.4142080000000  0.5070720000000  0.4417680000000 1.0
C      1  0.6084790000000  0.5008860000000  0.4503420000000 1.0
C      1  0.4995110000000  0.4223960000000  0.5512740000000 1.0
C      1  0.4309870000000  0.4849300000000  0.4349780000000 1.0
C      1  0.4762550000000  0.4819940000000  0.4583530000000 1.0
C      1  0.5053450000000  0.4391760000000  0.5754230000000 1.0
C      1  0.4989950000000  0.5513930000000  0.5697000000000 1.0
C      1  0.4068910000000  0.5252080000000  0.4624840000000 1.0
C      1  0.5632570000000  0.4471010000000  0.4596820000000 1.0
C      1  0.5449540000000  0.4484150000000  0.4389370000000 1.0
C      1  0.4362500000000  0.4864140000000  0.5118670000000 1.0
C      1  0.5280940000000  0.3830000000000  0.4766710000000 1.0
C      1  0.5685780000000  0.5560640000000  0.4984460000000 1.0
C      1  0.5035740000000  0.5549570000000  0.4265750000000 1.0
C      1  0.4720170000000  0.5952790000000  0.5065170000000 1.0
C      1  0.5180070000000  0.6086330000000  0.4970340000000 1.0
C      1  0.5185460000000  0.4785730000000  0.4739450000000 1.0
C      1  0.5482350000000  0.4304640000000  0.5538740000000 1.0
C      1  0.5551500000000  0.5483920000000  0.4304070000000 1.0
C      1  0.4120570000000  0.5172680000000  0.4893990000000 1.0
C      1  0.5269330000000  0.4117490000000  0.5448450000000 1.0
C      1  0.4290940000000  0.4389290000000  0.5247750000000 1.0
C      1  0.4460690000000  0.5987770000000  0.5174210000000 1.0
C      1  0.4994720000000  0.5701870000000  0.4513440000000 1.0
C      1  0.5359780000000  0.3780270000000  0.5041090000000 1.0
C      1  0.5865910000000  0.6038410000000  0.5736190000000 1.0
C      1  0.5801970000000  0.4363570000000  0.5093210000000 1.0
C      1  0.4335100000000  0.5177760000000  0.5571150000000 1.0
C      1  0.4272640000000  0.5863210000000  0.5326040000000 1.0
C      1  0.5276790000000  0.5146510000000  0.4116350000000 1.0
C      1  0.5537340000000  0.5732790000000  0.5156650000000 1.0
C      1  0.5755310000000  0.4537150000000  0.4854350000000 1.0
END
