TITL C-627109-622-1340 -3.7937322865473e-07 125000 -422.161259634772 0 0 70 (C1) n - 1
REM
REM in /home/nfs/bkarasulu/CARBON/AIRSS/Generating-Clusters/LCBOP/Only-C1/SD-CG/FIRE-CG
REM
REM
REM
REM
REM
REM ./C.cell (11c1c37f851c82e70ff6c80c92926a4b)
REM AIRSS Version 0.9.1 bugfix July 2018 build 013d7b7c2542+ Fri, 06 Jul 2018 19:26:36 +0100
REM compiler GCC version 9.2.1 20190827 (Red Hat 9.2.1-1)
REM options -cpp -mtune=generic -march=x86-64 -g -O0 -fpre-include=/usr/include/finclude/math-vector-fortran.h
REM seed 1231756643 61884486 -335266026 -2029581208 -720463628 2133062136 241733800 1084622270 -241579922 -1301314522 747147367 -575227937 -1478496901 -54463280 712308132 -56087697 -2053623594 376976883 -690173014 -1115676511 1281953031 -1771749441 1677750593 -1636292306 -1234346193 -1211218867 427971 1330652233 -1036829172 1261605130 262509998 -1511664984 1544244674
REM
CELL 1.54180   50.00000   50.00000   50.00000   90.00000   90.00000   90.00000
LATT -1
SFAC C  
C      1  0.5799830000000  0.5218480000000  0.5046960000000 1.0
C      1  0.4972890000000  0.5478930000000  0.4860520000000 1.0
C      1  0.5179240000000  0.5347320000000  0.5968340000000 1.0
C      1  0.4724300000000  0.4653090000000  0.3914760000000 1.0
C      1  0.4887950000000  0.4764830000000  0.5960280000000 1.0
C      1  0.5684830000000  0.5063520000000  0.5255480000000 1.0
C      1  0.4965610000000  0.5308940000000  0.5777360000000 1.0
C      1  0.4332860000000  0.4543850000000  0.5461500000000 1.0
C      1  0.4465750000000  0.4992580000000  0.4542880000000 1.0
C      1  0.4511380000000  0.4989680000000  0.5633790000000 1.0
C      1  0.5261000000000  0.4516520000000  0.5756180000000 1.0
C      1  0.5256220000000  0.4326580000000  0.4409490000000 1.0
C      1  0.5069200000000  0.5082030000000  0.5609750000000 1.0
C      1  0.5359020000000  0.4901220000000  0.6038290000000 1.0
C      1  0.5607380000000  0.4510030000000  0.4879400000000 1.0
C      1  0.5297450000000  0.4440290000000  0.5250610000000 1.0
C      1  0.5525670000000  0.4405710000000  0.4407980000000 1.0
C      1  0.4568480000000  0.4772290000000  0.4363360000000 1.0
C      1  0.5163090000000  0.5788430000000  0.4547920000000 1.0
C      1  0.4943440000000  0.5769950000000  0.4370740000000 1.0
C      1  0.5001230000000  0.4314800000000  0.4485300000000 1.0
C      1  0.4783740000000  0.4464120000000  0.3745430000000 1.0
C      1  0.5304030000000  0.5056610000000  0.4919070000000 1.0
C      1  0.5445820000000  0.5179190000000  0.5358160000000 1.0
C      1  0.4981510000000  0.5344070000000  0.5117930000000 1.0
C      1  0.5094420000000  0.4396000000000  0.5053280000000 1.0
C      1  0.5485050000000  0.5500080000000  0.4781440000000 1.0
C      1  0.4752820000000  0.5196310000000  0.5240080000000 1.0
C      1  0.5541490000000  0.4560350000000  0.5150960000000 1.0
C      1  0.5151710000000  0.4978690000000  0.4712490000000 1.0
C      1  0.4745020000000  0.5364150000000  0.4166990000000 1.0
C      1  0.4978270000000  0.4208630000000  0.5528770000000 1.0
C      1  0.4669880000000  0.4843920000000  0.4109820000000 1.0
C      1  0.5357650000000  0.5126170000000  0.5616840000000 1.0
C      1  0.4428730000000  0.6139920000000  0.5865760000000 1.0
C      1  0.4319330000000  0.4578120000000  0.4695970000000 1.0
C      1  0.4477860000000  0.4319660000000  0.5467420000000 1.0
C      1  0.5697690000000  0.4309390000000  0.4218260000000 1.0
C      1  0.4877390000000  0.4948920000000  0.4755540000000 1.0
C      1  0.5169440000000  0.4704600000000  0.5948480000000 1.0
C      1  0.5393680000000  0.5153810000000  0.5909270000000 1.0
C      1  0.5693030000000  0.5302880000000  0.4794980000000 1.0
C      1  0.4726870000000  0.5419260000000  0.5677930000000 1.0
C      1  0.4622780000000  0.5667170000000  0.5742740000000 1.0
C      1  0.4873250000000  0.5972960000000  0.4194890000000 1.0
C      1  0.4970380000000  0.4867950000000  0.5452230000000 1.0
C      1  0.4733270000000  0.6348370000000  0.3854650000000 1.0
C      1  0.4798570000000  0.5524850000000  0.4391650000000 1.0
C      1  0.5724170000000  0.5110360000000  0.4589240000000 1.0
C      1  0.5619030000000  0.4585990000000  0.4608200000000 1.0
C      1  0.4816530000000  0.4775770000000  0.4972740000000 1.0
C      1  0.5219220000000  0.5602750000000  0.4755110000000 1.0
C      1  0.4716370000000  0.5118600000000  0.4065360000000 1.0
C      1  0.4683910000000  0.5132320000000  0.4659360000000 1.0
C      1  0.4266310000000  0.4851130000000  0.4700650000000 1.0
C      1  0.5682830000000  0.4779140000000  0.5265090000000 1.0
C      1  0.4810960000000  0.4906540000000  0.5220370000000 1.0
C      1  0.4876160000000  0.4503930000000  0.4912130000000 1.0
C      1  0.4802850000000  0.6162400000000  0.4023570000000 1.0
C      1  0.4606020000000  0.5234020000000  0.5495400000000 1.0
C      1  0.4780230000000  0.5400830000000  0.4651960000000 1.0
C      1  0.5245490000000  0.5213450000000  0.5151430000000 1.0
C      1  0.4524910000000  0.5905430000000  0.5804700000000 1.0
C      1  0.4666260000000  0.4881580000000  0.5854610000000 1.0
C      1  0.4712620000000  0.4198110000000  0.5503310000000 1.0
C      1  0.5701010000000  0.4847550000000  0.4540630000000 1.0
C      1  0.4796120000000  0.4417120000000  0.4647400000000 1.0
C      1  0.4333350000000  0.4806350000000  0.5515230000000 1.0
C      1  0.5208110000000  0.4375590000000  0.5517730000000 1.0
C      1  0.4557020000000  0.4525820000000  0.4533840000000 1.0
END
