TITL C-627109-622-1024 -8.77349493009049e-07 125000 -360.727314634362 0 0 60 (C1) n - 1
REM
REM in /home/nfs/bkarasulu/CARBON/AIRSS/Generating-Clusters/LCBOP/Only-C1/SD-CG/FIRE-CG
REM
REM
REM
REM
REM
REM ./C.cell (11c1c37f851c82e70ff6c80c92926a4b)
REM AIRSS Version 0.9.1 bugfix July 2018 build 013d7b7c2542+ Fri, 06 Jul 2018 19:26:36 +0100
REM compiler GCC version 9.2.1 20190827 (Red Hat 9.2.1-1)
REM options -cpp -mtune=generic -march=x86-64 -g -O0 -fpre-include=/usr/include/finclude/math-vector-fortran.h
REM seed -1289028677 -855875469 2053698104 -1190326622 160610936 -376930336 1301305228 -801625430 -697862896 1180889179 -1647366986 1293751579 297436062 241272211 2091231777 -1417019403 -702197990 2088903344 -1647557407 227148756 -122474712 -2098972961 -308991284 225866348 1715999767 136758406 -1691874135 1987015601 1228579703 1943817977 845085864 237675055 863877120
REM
CELL 1.54180   50.00000   50.00000   50.00000   90.00000   90.00000   90.00000
LATT -1
SFAC C  
C      1  0.5384530000000  0.4190750000000  0.5221060000000 1.0
C      1  0.5044710000000  0.5111580000000  0.5559520000000 1.0
C      1  0.5283020000000  0.5183180000000  0.4566890000000 1.0
C      1  0.5697460000000  0.4525100000000  0.5474460000000 1.0
C      1  0.5550190000000  0.5540010000000  0.4797700000000 1.0
C      1  0.6031400000000  0.4505940000000  0.5149210000000 1.0
C      1  0.4684630000000  0.4342250000000  0.5082840000000 1.0
C      1  0.4536530000000  0.5617030000000  0.4384550000000 1.0
C      1  0.5795580000000  0.4398960000000  0.5021590000000 1.0
C      1  0.5976140000000  0.4576870000000  0.5410110000000 1.0
C      1  0.4762380000000  0.5489350000000  0.5429200000000 1.0
C      1  0.5082580000000  0.4692360000000  0.5339670000000 1.0
C      1  0.5340490000000  0.5729040000000  0.5810030000000 1.0
C      1  0.5401120000000  0.4856900000000  0.5777070000000 1.0
C      1  0.5600810000000  0.4367430000000  0.5240960000000 1.0
C      1  0.4890860000000  0.4273300000000  0.5270210000000 1.0
C      1  0.4847480000000  0.5947150000000  0.4498170000000 1.0
C      1  0.4623370000000  0.5110670000000  0.4217030000000 1.0
C      1  0.4873280000000  0.4524900000000  0.5728730000000 1.0
C      1  0.5611040000000  0.4774720000000  0.4468410000000 1.0
C      1  0.4804150000000  0.5003770000000  0.5129140000000 1.0
C      1  0.4403020000000  0.5557800000000  0.4912770000000 1.0
C      1  0.5168170000000  0.5566460000000  0.5691490000000 1.0
C      1  0.4944370000000  0.4747820000000  0.5868520000000 1.0
C      1  0.4752410000000  0.4378740000000  0.4811860000000 1.0
C      1  0.4772250000000  0.5825440000000  0.4748370000000 1.0
C      1  0.5563650000000  0.4673920000000  0.5668240000000 1.0
C      1  0.5123650000000  0.4126620000000  0.5206520000000 1.0
C      1  0.5480500000000  0.5005060000000  0.4487260000000 1.0
C      1  0.5000730000000  0.5122340000000  0.4545480000000 1.0
C      1  0.4709270000000  0.5830480000000  0.4288670000000 1.0
C      1  0.5510750000000  0.5888570000000  0.5926330000000 1.0
C      1  0.4775670000000  0.4691020000000  0.4376310000000 1.0
C      1  0.4436510000000  0.5281300000000  0.4991630000000 1.0
C      1  0.4449330000000  0.4466250000000  0.5179340000000 1.0
C      1  0.5696060000000  0.4508870000000  0.4494250000000 1.0
C      1  0.5732080000000  0.4352800000000  0.4272620000000 1.0
C      1  0.4515300000000  0.5340830000000  0.5459050000000 1.0
C      1  0.4688030000000  0.5159450000000  0.4928480000000 1.0
C      1  0.4808840000000  0.4513520000000  0.4588890000000 1.0
C      1  0.4525420000000  0.4395640000000  0.4051630000000 1.0
C      1  0.4476630000000  0.5730700000000  0.5134160000000 1.0
C      1  0.4526470000000  0.5659380000000  0.4674830000000 1.0
C      1  0.4994340000000  0.4956720000000  0.5324500000000 1.0
C      1  0.5060190000000  0.5475030000000  0.4865950000000 1.0
C      1  0.4264790000000  0.4940950000000  0.5298180000000 1.0
C      1  0.5743210000000  0.4405090000000  0.4750100000000 1.0
C      1  0.5132010000000  0.4945150000000  0.5779900000000 1.0
C      1  0.4593000000000  0.4636820000000  0.4155050000000 1.0
C      1  0.4753990000000  0.5683470000000  0.5215110000000 1.0
C      1  0.4918010000000  0.5701010000000  0.4967700000000 1.0
C      1  0.4944510000000  0.4476460000000  0.5460140000000 1.0
C      1  0.4308580000000  0.4679630000000  0.5258510000000 1.0
C      1  0.4879950000000  0.5268660000000  0.4759990000000 1.0
C      1  0.4828630000000  0.4977410000000  0.4381010000000 1.0
C      1  0.4993770000000  0.5391330000000  0.5562610000000 1.0
C      1  0.4527040000000  0.5368010000000  0.4259910000000 1.0
C      1  0.4358730000000  0.5203840000000  0.5261670000000 1.0
C      1  0.5316660000000  0.5410060000000  0.4748090000000 1.0
C      1  0.4501730000000  0.4896100000000  0.4068330000000 1.0
END
