TITL C-627111-6168-2096 4.86911986793412e-07 125000 -661.809117607298 0 0 110 (C1) n - 1
REM
REM in /home/nfs/bkarasulu/CARBON/AIRSS/Generating-Clusters/LCBOP/Only-C1/SD-CG/FIRE-CG
REM
REM
REM
REM
REM
REM ./C.cell (11c1c37f851c82e70ff6c80c92926a4b)
REM AIRSS Version 0.9.1 bugfix July 2018 build 013d7b7c2542+ Fri, 06 Jul 2018 19:26:36 +0100
REM compiler GCC version 9.2.1 20190827 (Red Hat 9.2.1-1)
REM options -cpp -mtune=generic -march=x86-64 -g -O0 -fpre-include=/usr/include/finclude/math-vector-fortran.h
REM seed -525932363 -1611535843 -891135373 -3264539 944148428 -253335620 1677527608 1645238743 1275695216 -1931579738 1427855103 1615473445 -478468758 -1944908054 -673870418 -1983079550 865894030 811400491 -2034953200 1056853749 1850682648 484974020 1627346713 -191330573 1425623702 -439937326 2111452562 -2099773182 -231838550 2086759507 1388680048 1427434913 -615311886
REM
CELL 1.54180   50.00000   50.00000   50.00000   90.00000   90.00000   90.00000
LATT -1
SFAC C  
C      1  0.5486910000000  0.5445330000000  0.5373340000000 1.0
C      1  0.4961420000000  0.5151470000000  0.6007790000000 1.0
C      1  0.4901430000000  0.4531160000000  0.4144510000000 1.0
C      1  0.4770880000000  0.4103510000000  0.5299000000000 1.0
C      1  0.4694330000000  0.4518230000000  0.5802310000000 1.0
C      1  0.4517640000000  0.5227000000000  0.4807870000000 1.0
C      1  0.4181090000000  0.5337230000000  0.5776360000000 1.0
C      1  0.4009180000000  0.4822570000000  0.4832330000000 1.0
C      1  0.5336050000000  0.5238270000000  0.4919340000000 1.0
C      1  0.4974940000000  0.5066770000000  0.5298350000000 1.0
C      1  0.5312600000000  0.3973030000000  0.5168730000000 1.0
C      1  0.4986900000000  0.5160480000000  0.5553650000000 1.0
C      1  0.4896060000000  0.5115190000000  0.5052340000000 1.0
C      1  0.3748760000000  0.4896690000000  0.4770290000000 1.0
C      1  0.5759190000000  0.5060720000000  0.4135590000000 1.0
C      1  0.5095830000000  0.5019580000000  0.5778550000000 1.0
C      1  0.4390570000000  0.5613030000000  0.4213430000000 1.0
C      1  0.4887350000000  0.4328140000000  0.5709790000000 1.0
C      1  0.4858750000000  0.4867680000000  0.4641220000000 1.0
C      1  0.5138870000000  0.6009920000000  0.4537680000000 1.0
C      1  0.4742170000000  0.5746820000000  0.4682130000000 1.0
C      1  0.4420600000000  0.5120440000000  0.5412110000000 1.0
C      1  0.4784330000000  0.4097110000000  0.5579320000000 1.0
C      1  0.5698860000000  0.5260350000000  0.5401480000000 1.0
C      1  0.5795340000000  0.5012710000000  0.5408600000000 1.0
C      1  0.5509460000000  0.4710680000000  0.5802070000000 1.0
C      1  0.5152150000000  0.4998670000000  0.4018040000000 1.0
C      1  0.4508200000000  0.5142490000000  0.4275240000000 1.0
C      1  0.5096320000000  0.4885310000000  0.4483930000000 1.0
C      1  0.5566300000000  0.4600990000000  0.5543030000000 1.0
C      1  0.4488540000000  0.4950790000000  0.5216480000000 1.0
C      1  0.5367940000000  0.5643840000000  0.4304390000000 1.0
C      1  0.6016350000000  0.5143450000000  0.4670850000000 1.0
C      1  0.5764370000000  0.4735160000000  0.5386890000000 1.0
C      1  0.5361850000000  0.5434320000000  0.5870450000000 1.0
C      1  0.5885130000000  0.4601420000000  0.5172630000000 1.0
C      1  0.4358900000000  0.5151860000000  0.5684980000000 1.0
C      1  0.5185470000000  0.4728660000000  0.5053970000000 1.0
C      1  0.4309020000000  0.4989020000000  0.4417690000000 1.0
C      1  0.4994060000000  0.4544410000000  0.5119000000000 1.0
C      1  0.4993410000000  0.5438370000000  0.3990160000000 1.0
C      1  0.4691570000000  0.5018440000000  0.4090590000000 1.0
C      1  0.4055120000000  0.4725380000000  0.5395900000000 1.0
C      1  0.5516410000000  0.5193490000000  0.5886800000000 1.0
C      1  0.5531820000000  0.4413660000000  0.4293230000000 1.0
C      1  0.5162710000000  0.3867460000000  0.4969080000000 1.0
C      1  0.4236970000000  0.5795090000000  0.4107790000000 1.0
C      1  0.3505630000000  0.4969440000000  0.4711070000000 1.0
C      1  0.4865340000000  0.5413100000000  0.5591940000000 1.0
C      1  0.5267980000000  0.5311340000000  0.4643610000000 1.0
C      1  0.4831070000000  0.4374280000000  0.4585980000000 1.0
C      1  0.5002270000000  0.5964690000000  0.5234730000000 1.0
C      1  0.4251530000000  0.4600380000000  0.5583750000000 1.0
C      1  0.4773070000000  0.5519690000000  0.4504770000000 1.0
C      1  0.5187380000000  0.5595960000000  0.4094080000000 1.0
C      1  0.4895590000000  0.3921110000000  0.4891930000000 1.0
C      1  0.5955120000000  0.4666770000000  0.4459210000000 1.0
C      1  0.5162520000000  0.5974410000000  0.5462040000000 1.0
C      1  0.4531450000000  0.3703560000000  0.5142480000000 1.0
C      1  0.5548640000000  0.4970620000000  0.4262680000000 1.0
C      1  0.4723020000000  0.6000520000000  0.5238130000000 1.0
C      1  0.4447160000000  0.4678410000000  0.4768730000000 1.0
C      1  0.5385700000000  0.4391270000000  0.5458830000000 1.0
C      1  0.4720160000000  0.3896870000000  0.5114820000000 1.0
C      1  0.4095830000000  0.4736390000000  0.5101640000000 1.0
C      1  0.4730670000000  0.4733210000000  0.4079260000000 1.0
C      1  0.4775640000000  0.4372880000000  0.5188550000000 1.0
C      1  0.4971090000000  0.5908590000000  0.4741990000000 1.0
C      1  0.4692290000000  0.5064260000000  0.6033420000000 1.0
C      1  0.5471600000000  0.5428420000000  0.4477840000000 1.0
C      1  0.4923850000000  0.5163990000000  0.3996850000000 1.0
C      1  0.5682940000000  0.5544630000000  0.4642470000000 1.0
C      1  0.5117130000000  0.5401020000000  0.6031660000000 1.0
C      1  0.5518120000000  0.4342850000000  0.4965740000000 1.0
C      1  0.4460740000000  0.4688590000000  0.5775310000000 1.0
C      1  0.5382620000000  0.5873520000000  0.4489820000000 1.0
C      1  0.4410800000000  0.5465420000000  0.4873630000000 1.0
C      1  0.5523680000000  0.6021450000000  0.5776710000000 1.0
C      1  0.4406760000000  0.4702070000000  0.5067160000000 1.0
C      1  0.5775730000000  0.4451180000000  0.4980230000000 1.0
C      1  0.5387660000000  0.5470100000000  0.5101060000000 1.0
C      1  0.5781790000000  0.4505370000000  0.4333370000000 1.0
C      1  0.4704200000000  0.4622920000000  0.4661290000000 1.0
C      1  0.5005880000000  0.5368940000000  0.4555840000000 1.0
C      1  0.5906290000000  0.5386720000000  0.4694360000000 1.0
C      1  0.5022990000000  0.4405660000000  0.4370740000000 1.0
C      1  0.4822720000000  0.4116950000000  0.4701230000000 1.0
C      1  0.6031610000000  0.4889790000000  0.4586540000000 1.0
C      1  0.5413440000000  0.4233810000000  0.5213010000000 1.0
C      1  0.4523830000000  0.5899090000000  0.5088570000000 1.0
C      1  0.5301030000000  0.4372620000000  0.4450900000000 1.0
C      1  0.5362520000000  0.5863090000000  0.5622770000000 1.0
C      1  0.5592580000000  0.4580550000000  0.6028140000000 1.0
C      1  0.5365600000000  0.5731610000000  0.4972620000000 1.0
C      1  0.5535260000000  0.5782730000000  0.4738180000000 1.0
C      1  0.5321250000000  0.4958720000000  0.4992550000000 1.0
C      1  0.4509020000000  0.4463940000000  0.5203590000000 1.0
C      1  0.4558530000000  0.5423710000000  0.4334240000000 1.0
C      1  0.5114520000000  0.5872810000000  0.4990850000000 1.0
C      1  0.5272760000000  0.4931880000000  0.4264200000000 1.0
C      1  0.4757320000000  0.5076210000000  0.4815200000000 1.0
C      1  0.5372660000000  0.4956440000000  0.5818870000000 1.0
C      1  0.5397250000000  0.5580390000000  0.5619670000000 1.0
C      1  0.4231800000000  0.4822180000000  0.4637020000000 1.0
C      1  0.4722920000000  0.5619600000000  0.5663670000000 1.0
C      1  0.4351020000000  0.4382420000000  0.5423690000000 1.0
C      1  0.4527010000000  0.5722210000000  0.4870880000000 1.0
C      1  0.5367330000000  0.4335060000000  0.4726470000000 1.0
C      1  0.5156380000000  0.4373180000000  0.5631300000000 1.0
C      1  0.4487560000000  0.4964020000000  0.5858850000000 1.0
END
