TITL C-627110-360-100 19185.0395723111 125000 -1005.10967381661 0 0 164 (C1) n - 1
REM
REM in /home/nfs/bkarasulu/CARBON/AIRSS/Generating-Clusters/LCBOP/Only-C1/SD-CG/FIRE-CG
REM
REM
REM
REM
REM
REM ./C.cell (11c1c37f851c82e70ff6c80c92926a4b)
REM AIRSS Version 0.9.1 bugfix July 2018 build 013d7b7c2542+ Fri, 06 Jul 2018 19:26:36 +0100
REM compiler GCC version 9.2.1 20190827 (Red Hat 9.2.1-1)
REM options -cpp -mtune=generic -march=x86-64 -g -O0 -fpre-include=/usr/include/finclude/math-vector-fortran.h
REM seed -587278974 -1863490135 -893799698 -1105552248 -284424683 901439686 877132439 38854377 -301640289 -2000593989 -1810378540 1050444194 1539300725 97612695 410039429 -643244446 -441866001 272413019 2018917596 878953797 1577635306 352996397 586770720 1881737824 -1958334329 137215526 -1627956208 1844055906 855897225 897672836 -190312755 -2123017195 -74441360
REM
CELL 1.54180   50.00000   50.00000   50.00000   90.00000   90.00000   90.00000
LATT -1
SFAC C  
C      1  0.5627810000000  0.5552350000000  0.5853250000000 1.0
C      1  0.4501960000000  0.4025870000000  0.4245580000000 1.0
C      1  0.5713400000000  0.4361180000000  0.4233900000000 1.0
C      1  0.5039720000000  0.5481370000000  0.6172990000000 1.0
C      1  0.5402350000000  0.5016860000000  0.4489920000000 1.0
C      1  0.3975790000000  0.4958300000000  0.4945360000000 1.0
C      1  0.4363970000000  0.4509790000000  0.4994710000000 1.0
C      1  0.5549890000000  0.5347940000000  0.4815990000000 1.0
C      1  0.4272940000000  0.4282790000000  0.5125900000000 1.0
C      1  0.4586830000000  0.5523870000000  0.5467930000000 1.0
C      1  0.3952970000000  0.5195740000000  0.5366740000000 1.0
C      1  0.3945400000000  0.4490090000000  0.4695530000000 1.0
C      1  0.5142000000000  0.4679870000000  0.4613620000000 1.0
C      1  0.5403550000000  0.3961300000000  0.4578090000000 1.0
C      1  0.5204410000000  0.5631090000000  0.4594760000000 1.0
C      1  0.4791930000000  0.4893700000000  0.4820210000000 1.0
C      1  0.5418180000000  0.5363920000000  0.5290330000000 1.0
C      1  0.5181060000000  0.5045040000000  0.6195580000000 1.0
C      1  0.4014600000000  0.5393060000000  0.4675960000000 1.0
C      1  0.5853860000000  0.4841550000000  0.4148690000000 1.0
C      1  0.6104560000000  0.4425300000000  0.4674290000000 1.0
C      1  0.4637710000000  0.5746280000000  0.4865950000000 1.0
C      1  0.4194690000000  0.5605690000000  0.4765750000000 1.0
C      1  0.4622790000000  0.4283110000000  0.4169110000000 1.0
C      1  0.5194270000000  0.4501370000000  0.5589110000000 1.0
C      1  0.4847680000000  0.5308520000000  0.4287860000000 1.0
C      1  0.5271640000000  0.5410150000000  0.4761330000000 1.0
C      1  0.4260810000000  0.4975120000000  0.4431900000000 1.0
C      1  0.5124070000000  0.4346340000000  0.5127030000000 1.0
C      1  0.4135620000000  0.4736090000000  0.5376740000000 1.0
C      1  0.4296940000000  0.4790710000000  0.5992900000000 1.0
C      1  0.6003410000000  0.5066700000000  0.4243140000000 1.0
C      1  0.4982660000000  0.4497200000000  0.3916630000000 1.0
C      1  0.4338630000000  0.4754380000000  0.5148740000000 1.0
C      1  0.5468570000000  0.4389200000000  0.5601300000000 1.0
C      1  0.5053710000000  0.5266280000000  0.4884930000000 1.0
C      1  0.4712170000000  0.4525060000000  0.4014410000000 1.0
C      1  0.6338990000000  0.4735970000000  0.4351030000000 1.0
C      1  0.4312180000000  0.6231170000000  0.4828140000000 1.0
C      1  0.5721390000000  0.4064390000000  0.5254880000000 1.0
C      1  0.4776700000000  0.5175500000000  0.4852420000000 1.0
C      1  0.4761630000000  0.3853640000000  0.4689290000000 1.0
C      1  0.5206040000000  0.4736920000000  0.5414040000000 1.0
C      1  0.4215000000000  0.6077700000000  0.5273170000000 1.0
C      1  0.5057710000000  0.5082480000000  0.5722500000000 1.0
C      1  0.5009150000000  0.5514680000000  0.4395500000000 1.0
C      1  0.3864370000000  0.5178350000000  0.5088840000000 1.0
C      1  0.4196420000000  0.4512720000000  0.5554000000000 1.0
C      1  0.5619620000000  0.4778360000000  0.5931910000000 1.0
C      1  0.5145970000000  0.6110050000000  0.3821490000000 1.0
C      1  0.6145370000000  0.4884090000000  0.4824320000000 1.0
C      1  0.4205520000000  0.4381820000000  0.4568780000000 1.0
C      1  0.4097780000000  0.5206090000000  0.4475730000000 1.0
C      1  0.4520770000000  0.4074030000000  0.5459640000000 1.0
C      1  0.5776800000000  0.4170780000000  0.4438070000000 1.0
C      1  0.5249960000000  0.4193100000000  0.4520000000000 1.0
C      1  0.4118930000000  0.5553820000000  0.5650100000000 1.0
C      1  0.4900920000000  0.4508420000000  0.5165700000000 1.0
C      1  0.5775560000000  0.5227540000000  0.4676990000000 1.0
C      1  0.5531370000000  0.5325710000000  0.6005480000000 1.0
C      1  0.4969720000000  0.5069340000000  0.5991470000000 1.0
C      1  0.4520200000000  0.3943220000000  0.4535590000000 1.0
C      1  0.5527530000000  0.5891330000000  0.4943430000000 1.0
C      1  0.5226580000000  0.3910390000000  0.5019890000000 1.0
C      1  0.5322520000000  0.5009240000000  0.4232310000000 1.0
C      1  0.5469590000000  0.3944570000000  0.4853640000000 1.0
C      1  0.4817850000000  0.5300090000000  0.6091210000000 1.0
C      1  0.4379860000000  0.5030230000000  0.6082580000000 1.0
C      1  0.5898670000000  0.4575770000000  0.4238010000000 1.0
C      1  0.6277640000000  0.4993730000000  0.4281100000000 1.0
C      1  0.5016140000000  0.5752720000000  0.6224710000000 1.0
C      1  0.5037140000000  0.5656450000000  0.5466650000000 1.0
C      1  0.4867560000000  0.4729090000000  0.4609400000000 1.0
C      1  0.5712340000000  0.4883140000000  0.5000430000000 1.0
C      1  0.6191890000000  0.4604090000000  0.4881350000000 1.0
C      1  0.4044520000000  0.5818930000000  0.4904080000000 1.0
C      1  0.5230730000000  0.4101020000000  0.5246950000000 1.0
C      1  0.4937010000000  0.6059570000000  0.5118350000000 1.0
C      1  0.4561300000000  0.6197480000000  0.4701700000000 1.0
C      1  0.5307500000000  0.4817110000000  0.6295480000000 1.0
C      1  0.5711800000000  0.4141740000000  0.4950850000000 1.0
C      1  0.4656880000000  0.5246630000000  0.5484520000000 1.0
C      1  0.5484340000000  0.4151500000000  0.5410680000000 1.0
C      1  0.5875570000000  0.5251990000000  0.4414510000000 1.0
C      1  0.5708840000000  0.5674850000000  0.5603260000000 1.0
C      1  0.5332930000000  0.6164250000000  0.3648080000000 1.0
C      1  0.5337070000000  0.5065440000000  0.5691410000000 1.0
C      1  0.5250380000000  0.5503270000000  0.5439870000000 1.0
C      1  0.4618470000000  0.5923110000000  0.4638800000000 1.0
C      1  0.4915340000000  0.4385980000000  0.5613820000000 1.0
C      1  0.4455900000000  0.5051000000000  0.5467210000000 1.0
C      1  0.4603430000000  0.5854950000000  0.4362840000000 1.0
C      1  0.4340000000000  0.4786200000000  0.4225090000000 1.0
C      1  0.4784010000000  0.4318530000000  0.4403500000000 1.0
C      1  0.5830750000000  0.5553310000000  0.5152970000000 1.0
C      1  0.5011600000000  0.4162450000000  0.4389440000000 1.0
C      1  0.5587990000000  0.4418840000000  0.4992410000000 1.0
C      1  0.6135800000000  0.4541770000000  0.4406500000000 1.0
C      1  0.4785690000000  0.5968140000000  0.4182430000000 1.0
C      1  0.4342520000000  0.4849040000000  0.4675220000000 1.0
C      1  0.5254900000000  0.4432980000000  0.4667070000000 1.0
C      1  0.4756150000000  0.4139740000000  0.5618580000000 1.0
C      1  0.4615230000000  0.4799670000000  0.4111230000000 1.0
C      1  0.4324730000000  0.5937870000000  0.5472550000000 1.0
C      1  0.4423240000000  0.4555480000000  0.4702460000000 1.0
C      1  0.3817940000000  0.5395020000000  0.4907200000000 1.0
C      1  0.5242970000000  0.4434710000000  0.3958240000000 1.0
C      1  0.4398480000000  0.5703030000000  0.4263690000000 1.0
C      1  0.6176850000000  0.4533650000000  0.5156430000000 1.0
C      1  0.5188510000000  0.5021440000000  0.4991160000000 1.0
C      1  0.4511330000000  0.5258800000000  0.4908760000000 1.0
C      1  0.5481040000000  0.4374060000000  0.4070830000000 1.0
C      1  0.5334970000000  0.5879210000000  0.4704430000000 1.0
C      1  0.5980510000000  0.5256430000000  0.5518100000000 1.0
C      1  0.4817370000000  0.5034730000000  0.4156830000000 1.0
C      1  0.4545170000000  0.5240340000000  0.6120010000000 1.0
C      1  0.4926000000000  0.5126890000000  0.5467840000000 1.0
C      1  0.5107340000000  0.4970690000000  0.5274580000000 1.0
C      1  0.3870310000000  0.4718770000000  0.4826050000000 1.0
C      1  0.4155350000000  0.5014990000000  0.5464750000000 1.0
C      1  0.5936050000000  0.4589090000000  0.5293180000000 1.0
C      1  0.4807010000000  0.4744430000000  0.5045330000000 1.0
C      1  0.4302780000000  0.4279770000000  0.5419440000000 1.0
C      1  0.4765550000000  0.4542960000000  0.5426420000000 1.0
C      1  0.5289860000000  0.4900430000000  0.4726800000000 1.0
C      1  0.4692190000000  0.4512520000000  0.4579190000000 1.0
C      1  0.5567170000000  0.5885700000000  0.5453350000000 1.0
C      1  0.5721310000000  0.4629150000000  0.5111140000000 1.0
C      1  0.5899710000000  0.4211470000000  0.4699390000000 1.0
C      1  0.5793620000000  0.5778950000000  0.4975340000000 1.0
C      1  0.4780750000000  0.6368470000000  0.4661300000000 1.0
C      1  0.5433670000000  0.5980520000000  0.5209420000000 1.0
C      1  0.4773140000000  0.5829620000000  0.5104620000000 1.0
C      1  0.4161390000000  0.6060310000000  0.4997400000000 1.0
C      1  0.5674560000000  0.4599420000000  0.5705460000000 1.0
C      1  0.4283100000000  0.4976160000000  0.4938510000000 1.0
C      1  0.5894210000000  0.5015760000000  0.4831870000000 1.0
C      1  0.4972560000000  0.3848490000000  0.4871930000000 1.0
C      1  0.3918750000000  0.5416630000000  0.5535340000000 1.0
C      1  0.5447610000000  0.3757860000000  0.4401920000000 1.0
C      1  0.3804580000000  0.5675860000000  0.4983100000000 1.0
C      1  0.4237600000000  0.4589850000000  0.5823540000000 1.0
C      1  0.5515720000000  0.4690010000000  0.6178820000000 1.0
C      1  0.5042020000000  0.6319020000000  0.4617650000000 1.0
C      1  0.4958220000000  0.6047830000000  0.3997890000000 1.0
C      1  0.4319920000000  0.4067910000000  0.4699950000000 1.0
C      1  0.5232570000000  0.6130450000000  0.4616860000000 1.0
C      1  0.5094350000000  0.4972150000000  0.4093710000000 1.0
C      1  0.5555210000000  0.5058600000000  0.5871810000000 1.0
C      1  0.5318320000000  0.4422110000000  0.4935710000000 1.0
C      1  0.4450560000000  0.5529310000000  0.4859750000000 1.0
C      1  0.4217380000000  0.4516730000000  0.4280430000000 1.0
C      1  0.5608830000000  0.5382480000000  0.5090620000000 1.0
C      1  0.5890270000000  0.5516540000000  0.5433820000000 1.0
C      1  0.5294620000000  0.5324180000000  0.6180980000000 1.0
C      1  0.4787210000000  0.5678330000000  0.5344310000000 1.0
C      1  0.4496500000000  0.3908340000000  0.5207530000000 1.0
C      1  0.5970590000000  0.4988600000000  0.5561990000000 1.0
C      1  0.4340550000000  0.4039130000000  0.4990300000000 1.0
C      1  0.4569640000000  0.4820220000000  0.5313430000000 1.0
C      1  0.5888950000000  0.4711880000000  0.5541210000000 1.0
C      1  0.5185020000000  0.6112710000000  0.5207150000000 1.0
C      1  0.4995860000000  0.6010670000000  0.6255610000000 1.0
C      1  0.4355840000000  0.5669870000000  0.5555760000000 1.0
END
