TITL C-627107-135-898 9.05213884901605e-07 125000 -265.725033819499 0 0 45 (C1) n - 1
REM
REM in /home/nfs/bkarasulu/CARBON/AIRSS/Generating-Clusters/LCBOP/Only-C1/SD-CG/FIRE-CG
REM
REM
REM
REM
REM
REM ./C.cell (11c1c37f851c82e70ff6c80c92926a4b)
REM AIRSS Version 0.9.1 bugfix July 2018 build 013d7b7c2542+ Fri, 06 Jul 2018 19:26:36 +0100
REM compiler GCC version 9.2.1 20190827 (Red Hat 9.2.1-1)
REM options -cpp -mtune=generic -march=x86-64 -g -O0 -fpre-include=/usr/include/finclude/math-vector-fortran.h
REM seed -1803848159 832736397 -665523683 -1372459281 1638832270 654800378 -1562715026 -1525390122 -582820988 -948729124 1025116479 -1259066416 -1116521335 -33931073 965615059 1470598352 -831667945 -387439746 478530833 -505624929 -2008164808 2045527133 428925749 1503362645 -656939108 -664649815 -96360417 -2114701862 -443594994 -24970323 458587111 -439806136 1569101825
REM
CELL 1.54180   50.00000   50.00000   50.00000   90.00000   90.00000   90.00000
LATT -1
SFAC C  
C      1  0.5560380000000  0.4325680000000  0.4614520000000 1.0
C      1  0.5036620000000  0.5497090000000  0.4810010000000 1.0
C      1  0.4643240000000  0.4474170000000  0.5022150000000 1.0
C      1  0.4575790000000  0.4573090000000  0.5264490000000 1.0
C      1  0.4940850000000  0.4541000000000  0.4641940000000 1.0
C      1  0.5176490000000  0.4955710000000  0.5720220000000 1.0
C      1  0.4449230000000  0.5671830000000  0.5475850000000 1.0
C      1  0.5668140000000  0.4727990000000  0.4304840000000 1.0
C      1  0.4707780000000  0.5661530000000  0.5369190000000 1.0
C      1  0.5114470000000  0.4531700000000  0.5108310000000 1.0
C      1  0.4855150000000  0.4946700000000  0.4399260000000 1.0
C      1  0.4556910000000  0.5319070000000  0.4480400000000 1.0
C      1  0.4903930000000  0.4497590000000  0.4914330000000 1.0
C      1  0.4911060000000  0.5489260000000  0.5474330000000 1.0
C      1  0.5598960000000  0.4627990000000  0.5136370000000 1.0
C      1  0.5613300000000  0.4984860000000  0.4265100000000 1.0
C      1  0.5638020000000  0.4880450000000  0.5038170000000 1.0
C      1  0.4720210000000  0.4906020000000  0.5615440000000 1.0
C      1  0.5925790000000  0.4414760000000  0.5509750000000 1.0
C      1  0.5643830000000  0.4492810000000  0.4425840000000 1.0
C      1  0.4001760000000  0.5511990000000  0.4957350000000 1.0
C      1  0.4748380000000  0.5772080000000  0.5111740000000 1.0
C      1  0.5277590000000  0.5349480000000  0.4411700000000 1.0
C      1  0.4815480000000  0.5213250000000  0.4474880000000 1.0
C      1  0.5117310000000  0.5410230000000  0.5297740000000 1.0
C      1  0.5040680000000  0.5366550000000  0.4559850000000 1.0
C      1  0.4987400000000  0.4549010000000  0.4163240000000 1.0
C      1  0.4312930000000  0.5384770000000  0.4561630000000 1.0
C      1  0.4860120000000  0.5707520000000  0.4875750000000 1.0
C      1  0.5444140000000  0.4256750000000  0.4859990000000 1.0
C      1  0.4765860000000  0.4697360000000  0.5429990000000 1.0
C      1  0.4192090000000  0.5641170000000  0.5412230000000 1.0
C      1  0.5477270000000  0.5209310000000  0.4306410000000 1.0
C      1  0.4928820000000  0.4676710000000  0.4397570000000 1.0
C      1  0.4025070000000  0.5582040000000  0.5213140000000 1.0
C      1  0.4847190000000  0.5497350000000  0.5958060000000 1.0
C      1  0.4919530000000  0.5077780000000  0.5724050000000 1.0
C      1  0.5171620000000  0.5392520000000  0.5035330000000 1.0
C      1  0.5230810000000  0.4752040000000  0.5548760000000 1.0
C      1  0.4112320000000  0.5445330000000  0.4724900000000 1.0
C      1  0.5393790000000  0.3996490000000  0.4926000000000 1.0
C      1  0.5383140000000  0.4468820000000  0.5040500000000 1.0
C      1  0.5045330000000  0.4642040000000  0.5364190000000 1.0
C      1  0.5772100000000  0.4521000000000  0.5328080000000 1.0
C      1  0.4889090000000  0.5359130000000  0.5726450000000 1.0
END
