TITL C-627111-6168-1097 -5.34049109525338e-07 125000 -987.691728993413 0 0 161 (C1) n - 1
REM
REM in /home/nfs/bkarasulu/CARBON/AIRSS/Generating-Clusters/LCBOP/Only-C1/SD-CG/FIRE-CG
REM
REM
REM
REM
REM
REM ./C.cell (11c1c37f851c82e70ff6c80c92926a4b)
REM AIRSS Version 0.9.1 bugfix July 2018 build 013d7b7c2542+ Fri, 06 Jul 2018 19:26:36 +0100
REM compiler GCC version 9.2.1 20190827 (Red Hat 9.2.1-1)
REM options -cpp -mtune=generic -march=x86-64 -g -O0 -fpre-include=/usr/include/finclude/math-vector-fortran.h
REM seed 705760944 -1321226896 -134090322 -1167517006 118466648 830498895 -631202058 -1957219917 -873795246 -920123665 29645727 -1089615487 343853145 2047293510 1583056845 934668468 1393925077 -603450433 -424142483 2016779089 -1605439744 -1940490886 707841736 1467593378 879635183 1726705035 128945168 907169251 -211479890 -109015270 690699890 -1987599679 1542206091
REM
CELL 1.54180   50.00000   50.00000   50.00000   90.00000   90.00000   90.00000
LATT -1
SFAC C  
C      1  0.5315060000000  0.5261680000000  0.4714770000000 1.0
C      1  0.3509190000000  0.4174610000000  0.5206440000000 1.0
C      1  0.4146910000000  0.4285040000000  0.4866020000000 1.0
C      1  0.5434620000000  0.5849040000000  0.5580610000000 1.0
C      1  0.5608550000000  0.4879420000000  0.4782660000000 1.0
C      1  0.4854920000000  0.5264220000000  0.5461070000000 1.0
C      1  0.4697650000000  0.4660570000000  0.4480920000000 1.0
C      1  0.5041350000000  0.4261770000000  0.5034610000000 1.0
C      1  0.6092610000000  0.4128960000000  0.5077670000000 1.0
C      1  0.4385040000000  0.4618740000000  0.5240090000000 1.0
C      1  0.5628270000000  0.4825790000000  0.4220790000000 1.0
C      1  0.6042330000000  0.5032910000000  0.5000700000000 1.0
C      1  0.4721990000000  0.5349410000000  0.4404320000000 1.0
C      1  0.6133800000000  0.5217670000000  0.4463810000000 1.0
C      1  0.3865700000000  0.5340280000000  0.5166810000000 1.0
C      1  0.4079040000000  0.5761210000000  0.4984230000000 1.0
C      1  0.5651850000000  0.5611290000000  0.4700940000000 1.0
C      1  0.5179000000000  0.4109350000000  0.5229710000000 1.0
C      1  0.4634690000000  0.4503510000000  0.5207340000000 1.0
C      1  0.4466190000000  0.5805300000000  0.5269210000000 1.0
C      1  0.4870450000000  0.5121790000000  0.3905800000000 1.0
C      1  0.4724070000000  0.4499010000000  0.5894600000000 1.0
C      1  0.4686330000000  0.5196030000000  0.5665710000000 1.0
C      1  0.4581110000000  0.5499820000000  0.4591040000000 1.0
C      1  0.4144420000000  0.4506570000000  0.5338460000000 1.0
C      1  0.5938730000000  0.4708730000000  0.5894380000000 1.0
C      1  0.4049370000000  0.4741330000000  0.4416290000000 1.0
C      1  0.5805970000000  0.5679580000000  0.4930340000000 1.0
C      1  0.4704610000000  0.5441860000000  0.6088040000000 1.0
C      1  0.4597710000000  0.5537070000000  0.6320580000000 1.0
C      1  0.4818630000000  0.4004150000000  0.5752790000000 1.0
C      1  0.5393450000000  0.4256390000000  0.5336380000000 1.0
C      1  0.4688910000000  0.5743080000000  0.3968340000000 1.0
C      1  0.4259500000000  0.5101630000000  0.5240090000000 1.0
C      1  0.4270710000000  0.5505270000000  0.5675910000000 1.0
C      1  0.5080310000000  0.6143570000000  0.4457660000000 1.0
C      1  0.4732700000000  0.3851490000000  0.5535300000000 1.0
C      1  0.5121920000000  0.4569950000000  0.4245650000000 1.0
C      1  0.4929820000000  0.3783050000000  0.4559470000000 1.0
C      1  0.4603970000000  0.6044350000000  0.4548300000000 1.0
C      1  0.5470740000000  0.5101150000000  0.4896170000000 1.0
C      1  0.5775840000000  0.5517030000000  0.5526500000000 1.0
C      1  0.4376000000000  0.4099440000000  0.4866560000000 1.0
C      1  0.3934750000000  0.4978370000000  0.5547680000000 1.0
C      1  0.5237860000000  0.6413430000000  0.4841870000000 1.0
C      1  0.4551240000000  0.4672520000000  0.4718540000000 1.0
C      1  0.4262140000000  0.4639450000000  0.4268150000000 1.0
C      1  0.5167000000000  0.3832400000000  0.5245170000000 1.0
C      1  0.5381080000000  0.5538290000000  0.4716720000000 1.0
C      1  0.4529190000000  0.4736450000000  0.4260110000000 1.0
C      1  0.6024940000000  0.4375750000000  0.4978620000000 1.0
C      1  0.5257830000000  0.5807910000000  0.4769010000000 1.0
C      1  0.5388270000000  0.5636760000000  0.5769090000000 1.0
C      1  0.5978070000000  0.4515630000000  0.4448260000000 1.0
C      1  0.4014300000000  0.4350540000000  0.5125730000000 1.0
C      1  0.5107720000000  0.6380140000000  0.4607530000000 1.0
C      1  0.5310180000000  0.5438560000000  0.5186420000000 1.0
C      1  0.4949510000000  0.5184800000000  0.4385970000000 1.0
C      1  0.5146810000000  0.5681130000000  0.4131080000000 1.0
C      1  0.6038430000000  0.5505390000000  0.4886100000000 1.0
C      1  0.5261030000000  0.4524280000000  0.5919770000000 1.0
C      1  0.4681210000000  0.4947680000000  0.6037220000000 1.0
C      1  0.4092420000000  0.4385650000000  0.4600600000000 1.0
C      1  0.5503540000000  0.5219480000000  0.5948350000000 1.0
C      1  0.4875850000000  0.4491520000000  0.5071590000000 1.0
C      1  0.4665160000000  0.4250810000000  0.5777160000000 1.0
C      1  0.6041560000000  0.4424240000000  0.4696640000000 1.0
C      1  0.5194590000000  0.3972030000000  0.4217740000000 1.0
C      1  0.5709710000000  0.4631610000000  0.5302450000000 1.0
C      1  0.5107870000000  0.5297640000000  0.5579250000000 1.0
C      1  0.5723570000000  0.3934850000000  0.4623300000000 1.0
C      1  0.5652330000000  0.5765230000000  0.5403630000000 1.0
C      1  0.4980640000000  0.4891350000000  0.6037720000000 1.0
C      1  0.5272560000000  0.5075330000000  0.5539290000000 1.0
C      1  0.4332700000000  0.4860080000000  0.5114950000000 1.0
C      1  0.4412560000000  0.4873220000000  0.4848580000000 1.0
C      1  0.5136680000000  0.5506260000000  0.5776300000000 1.0
C      1  0.5030010000000  0.4737070000000  0.5028180000000 1.0
C      1  0.5201010000000  0.5986640000000  0.5496700000000 1.0
C      1  0.6049070000000  0.5461110000000  0.4580880000000 1.0
C      1  0.5017950000000  0.4261500000000  0.4568390000000 1.0
C      1  0.5227890000000  0.4705770000000  0.5237330000000 1.0
C      1  0.5148260000000  0.4831040000000  0.5477340000000 1.0
C      1  0.5083640000000  0.5116800000000  0.4633760000000 1.0
C      1  0.3988610000000  0.5134600000000  0.5322230000000 1.0
C      1  0.3979490000000  0.5497660000000  0.4953380000000 1.0
C      1  0.5529290000000  0.5071790000000  0.5406710000000 1.0
C      1  0.4954910000000  0.4413010000000  0.4049360000000 1.0
C      1  0.3752980000000  0.4257920000000  0.5167370000000 1.0
C      1  0.4968140000000  0.4980420000000  0.4871150000000 1.0
C      1  0.5224490000000  0.5404330000000  0.4067140000000 1.0
C      1  0.5627210000000  0.4173590000000  0.4687750000000 1.0
C      1  0.4579560000000  0.5216730000000  0.5938390000000 1.0
C      1  0.6053300000000  0.5303430000000  0.5091640000000 1.0
C      1  0.4437250000000  0.5321620000000  0.5268070000000 1.0
C      1  0.5889280000000  0.4953190000000  0.4769770000000 1.0
C      1  0.4835280000000  0.6019300000000  0.4367240000000 1.0
C      1  0.5035100000000  0.4006170000000  0.4438760000000 1.0
C      1  0.6122870000000  0.4813260000000  0.5155480000000 1.0
C      1  0.4945910000000  0.4525220000000  0.4474650000000 1.0
C      1  0.5596440000000  0.5087680000000  0.4111370000000 1.0
C      1  0.5892190000000  0.4766850000000  0.4341020000000 1.0
C      1  0.4459390000000  0.6012490000000  0.4783080000000 1.0
C      1  0.5448760000000  0.4739870000000  0.5912690000000 1.0
C      1  0.4511940000000  0.4071070000000  0.4610990000000 1.0
C      1  0.4503310000000  0.4204060000000  0.4348210000000 1.0
C      1  0.4371970000000  0.5563450000000  0.5409780000000 1.0
C      1  0.4289000000000  0.5274220000000  0.5858050000000 1.0
C      1  0.5614930000000  0.5594130000000  0.4246240000000 1.0
C      1  0.4988990000000  0.4598670000000  0.5961530000000 1.0
C      1  0.4140160000000  0.5035690000000  0.5810980000000 1.0
C      1  0.5692220000000  0.4848800000000  0.5492140000000 1.0
C      1  0.3591430000000  0.4874900000000  0.4452050000000 1.0
C      1  0.5181610000000  0.4281500000000  0.4792500000000 1.0
C      1  0.4970820000000  0.5775650000000  0.4824430000000 1.0
C      1  0.4940890000000  0.5543960000000  0.5972580000000 1.0
C      1  0.5966630000000  0.5380040000000  0.5358700000000 1.0
C      1  0.4685360000000  0.5276840000000  0.3785190000000 1.0
C      1  0.4258710000000  0.4359270000000  0.4362590000000 1.0
C      1  0.4521320000000  0.3985950000000  0.5386350000000 1.0
C      1  0.4758900000000  0.5148980000000  0.4969870000000 1.0
C      1  0.4612820000000  0.5533720000000  0.3818670000000 1.0
C      1  0.5452050000000  0.4521940000000  0.5262490000000 1.0
C      1  0.5955110000000  0.4584040000000  0.5163670000000 1.0
C      1  0.5372870000000  0.6240680000000  0.4998670000000 1.0
C      1  0.5507300000000  0.5355880000000  0.4112090000000 1.0
C      1  0.4335380000000  0.5883850000000  0.5016970000000 1.0
C      1  0.4716890000000  0.5269230000000  0.5218610000000 1.0
C      1  0.4458290000000  0.4205210000000  0.5573130000000 1.0
C      1  0.5381240000000  0.5787480000000  0.4275970000000 1.0
C      1  0.5800880000000  0.5571650000000  0.4463170000000 1.0
C      1  0.4093660000000  0.5355580000000  0.4730870000000 1.0
C      1  0.5608970000000  0.5438410000000  0.5775770000000 1.0
C      1  0.5995030000000  0.4977800000000  0.4506410000000 1.0
C      1  0.5424530000000  0.5962710000000  0.4987540000000 1.0
C      1  0.5808740000000  0.3697010000000  0.4559120000000 1.0
C      1  0.5650840000000  0.5825890000000  0.5120440000000 1.0
C      1  0.6171240000000  0.4659460000000  0.6001210000000 1.0
C      1  0.5442610000000  0.4378700000000  0.4735860000000 1.0
C      1  0.5113460000000  0.5615730000000  0.5226400000000 1.0
C      1  0.4726940000000  0.5897080000000  0.5333130000000 1.0
C      1  0.5291680000000  0.5948920000000  0.4496880000000 1.0
C      1  0.5003320000000  0.5848280000000  0.5346940000000 1.0
C      1  0.3857740000000  0.4930530000000  0.4480460000000 1.0
C      1  0.5045680000000  0.5190330000000  0.4116650000000 1.0
C      1  0.5322210000000  0.4991730000000  0.5998970000000 1.0
C      1  0.5476830000000  0.5207850000000  0.5158460000000 1.0
C      1  0.5192110000000  0.3573710000000  0.5224790000000 1.0
C      1  0.4744160000000  0.5656360000000  0.4756110000000 1.0
C      1  0.4263140000000  0.4748580000000  0.5808310000000 1.0
C      1  0.5474500000000  0.4651390000000  0.4636620000000 1.0
C      1  0.4525180000000  0.4713090000000  0.5927690000000 1.0
C      1  0.3939300000000  0.5180970000000  0.4576780000000 1.0
C      1  0.5396800000000  0.4681890000000  0.4339750000000 1.0
C      1  0.4716170000000  0.4270950000000  0.4139540000000 1.0
C      1  0.4457160000000  0.3984980000000  0.5113080000000 1.0
C      1  0.4375730000000  0.5346760000000  0.4709250000000 1.0
C      1  0.5695830000000  0.4764590000000  0.5769080000000 1.0
C      1  0.4084400000000  0.4651930000000  0.5581750000000 1.0
C      1  0.4518280000000  0.5126920000000  0.4815140000000 1.0
C      1  0.4887160000000  0.5820020000000  0.4153860000000 1.0
END
