TITL C-627112-676-1166 -151013.740538282 125000 -1021.78739244698 0 0 167 (C1) n - 1
REM
REM in /home/nfs/bkarasulu/CARBON/AIRSS/Generating-Clusters/LCBOP/Only-C1/SD-CG/FIRE-CG
REM
REM
REM
REM
REM
REM ./C.cell (11c1c37f851c82e70ff6c80c92926a4b)
REM AIRSS Version 0.9.1 bugfix July 2018 build 013d7b7c2542+ Fri, 06 Jul 2018 19:26:36 +0100
REM compiler GCC version 9.2.1 20190827 (Red Hat 9.2.1-1)
REM options -cpp -mtune=generic -march=x86-64 -g -O0 -fpre-include=/usr/include/finclude/math-vector-fortran.h
REM seed -254622708 1339788995 -260083023 494845638 494070062 -167404767 -1009309804 1721198961 649737243 -1131823506 -1294040752 -1743468841 930671018 -295565880 -611268621 5567845 -1921606613 -322071149 1288176197 -210177508 -455769023 -1859752402 588647421 -866096653 -517892578 -93276751 -1242816987 -1192934776 1357326961 -134125417 -1130277398 1701207977 71986760
REM
CELL 1.54180   50.00000   50.00000   50.00000   90.00000   90.00000   90.00000
LATT -1
SFAC C  
C      1  0.5176540000000  0.5693700000000  0.6137890000000 1.0
C      1  0.4886850000000  0.5397720000000  0.4557830000000 1.0
C      1  0.5141630000000  0.3897200000000  0.5733360000000 1.0
C      1  0.4881820000000  0.5900360000000  0.5819590000000 1.0
C      1  0.4927430000000  0.3839770000000  0.5885290000000 1.0
C      1  0.4012550000000  0.5360280000000  0.4945520000000 1.0
C      1  0.4651000000000  0.5667840000000  0.5117620000000 1.0
C      1  0.5017650000000  0.5690140000000  0.4195120000000 1.0
C      1  0.4402580000000  0.5918150000000  0.4631140000000 1.0
C      1  0.4763490000000  0.5244270000000  0.5635420000000 1.0
C      1  0.3912970000000  0.5500380000000  0.4488200000000 1.0
C      1  0.4594880000000  0.4615750000000  0.4228790000000 1.0
C      1  0.4972180000000  0.4507240000000  0.5082900000000 1.0
C      1  0.5046490000000  0.4486980000000  0.5350020000000 1.0
C      1  0.5435950000000  0.5388650000000  0.4569320000000 1.0
C      1  0.4446750000000  0.4732780000000  0.5722550000000 1.0
C      1  0.4052530000000  0.5094670000000  0.5654740000000 1.0
C      1  0.4328270000000  0.5613270000000  0.4088780000000 1.0
C      1  0.4558250000000  0.3915430000000  0.4837820000000 1.0
C      1  0.4669040000000  0.3845890000000  0.5809250000000 1.0
C      1  0.5004340000000  0.4612580000000  0.5880960000000 1.0
C      1  0.5254450000000  0.5017660000000  0.5870810000000 1.0
C      1  0.5553920000000  0.4559060000000  0.6334950000000 1.0
C      1  0.4970980000000  0.5359290000000  0.5037110000000 1.0
C      1  0.4665220000000  0.5397100000000  0.4368300000000 1.0
C      1  0.5181270000000  0.4930750000000  0.4914540000000 1.0
C      1  0.5428290000000  0.4143110000000  0.5418170000000 1.0
C      1  0.4190350000000  0.5804220000000  0.4784890000000 1.0
C      1  0.5116810000000  0.4821820000000  0.5684840000000 1.0
C      1  0.5280500000000  0.4631570000000  0.5484360000000 1.0
C      1  0.6016620000000  0.4663650000000  0.4227810000000 1.0
C      1  0.4441390000000  0.4989970000000  0.5958450000000 1.0
C      1  0.5159370000000  0.5283560000000  0.4548440000000 1.0
C      1  0.5875770000000  0.5051810000000  0.5924010000000 1.0
C      1  0.5333580000000  0.4683990000000  0.3951560000000 1.0
C      1  0.5764890000000  0.5792210000000  0.5639120000000 1.0
C      1  0.5135880000000  0.5052040000000  0.6124820000000 1.0
C      1  0.4047300000000  0.5553760000000  0.4728350000000 1.0
C      1  0.5737890000000  0.5042660000000  0.3999260000000 1.0
C      1  0.3972370000000  0.5483970000000  0.5198080000000 1.0
C      1  0.5626960000000  0.5781710000000  0.5871200000000 1.0
C      1  0.5823530000000  0.5308560000000  0.4084360000000 1.0
C      1  0.5174040000000  0.5563980000000  0.5547360000000 1.0
C      1  0.5785580000000  0.6008840000000  0.5191650000000 1.0
C      1  0.4026620000000  0.5747070000000  0.5241440000000 1.0
C      1  0.5430020000000  0.5736760000000  0.6051280000000 1.0
C      1  0.5537480000000  0.4320270000000  0.4232400000000 1.0
C      1  0.4811530000000  0.4217980000000  0.4530620000000 1.0
C      1  0.4201340000000  0.4889730000000  0.4058580000000 1.0
C      1  0.4893480000000  0.5108430000000  0.6223540000000 1.0
C      1  0.4011210000000  0.4770100000000  0.4241920000000 1.0
C      1  0.5480990000000  0.5824560000000  0.4847070000000 1.0
C      1  0.4283730000000  0.4463570000000  0.5266300000000 1.0
C      1  0.5900220000000  0.5099820000000  0.5442640000000 1.0
C      1  0.4676330000000  0.5525540000000  0.6055580000000 1.0
C      1  0.4574460000000  0.4843430000000  0.5257270000000 1.0
C      1  0.4572900000000  0.3902980000000  0.5564980000000 1.0
C      1  0.5078060000000  0.5416900000000  0.4037580000000 1.0
C      1  0.5714420000000  0.4461410000000  0.5678870000000 1.0
C      1  0.4057480000000  0.4552730000000  0.4419170000000 1.0
C      1  0.5066920000000  0.3891890000000  0.5017530000000 1.0
C      1  0.4124480000000  0.4921950000000  0.5441280000000 1.0
C      1  0.4578700000000  0.4643720000000  0.4508280000000 1.0
C      1  0.5758110000000  0.5296930000000  0.5291150000000 1.0
C      1  0.5277670000000  0.4184930000000  0.4231390000000 1.0
C      1  0.4064620000000  0.4378990000000  0.4624540000000 1.0
C      1  0.5903310000000  0.4651880000000  0.5666920000000 1.0
C      1  0.5463780000000  0.4391610000000  0.5568420000000 1.0
C      1  0.5378750000000  0.4866400000000  0.3737750000000 1.0
C      1  0.4284530000000  0.5018770000000  0.4745990000000 1.0
C      1  0.5765880000000  0.4718330000000  0.6304180000000 1.0
C      1  0.5380900000000  0.4215710000000  0.4759950000000 1.0
C      1  0.5160610000000  0.4528400000000  0.4491230000000 1.0
C      1  0.5355980000000  0.5348520000000  0.5532670000000 1.0
C      1  0.4937630000000  0.6117130000000  0.4872880000000 1.0
C      1  0.5166210000000  0.4998160000000  0.4610440000000 1.0
C      1  0.4234340000000  0.4680710000000  0.3559730000000 1.0
C      1  0.5657020000000  0.6023550000000  0.4952120000000 1.0
C      1  0.4705340000000  0.5902130000000  0.5266950000000 1.0
C      1  0.4919720000000  0.4908080000000  0.4000840000000 1.0
C      1  0.6169160000000  0.4531870000000  0.5096290000000 1.0
C      1  0.5430050000000  0.5211870000000  0.5767850000000 1.0
C      1  0.5982140000000  0.5554990000000  0.4950620000000 1.0
C      1  0.4128570000000  0.5905460000000  0.5044780000000 1.0
C      1  0.4523940000000  0.5601940000000  0.5801280000000 1.0
C      1  0.4263190000000  0.4212160000000  0.5099280000000 1.0
C      1  0.4872340000000  0.5188850000000  0.4018710000000 1.0
C      1  0.4716230000000  0.4490340000000  0.4960600000000 1.0
C      1  0.5755890000000  0.4103440000000  0.4974570000000 1.0
C      1  0.4884350000000  0.5500930000000  0.5524210000000 1.0
C      1  0.5673300000000  0.5245150000000  0.5903640000000 1.0
C      1  0.5623510000000  0.5171660000000  0.4550680000000 1.0
C      1  0.5279180000000  0.4474240000000  0.4735360000000 1.0
C      1  0.5159120000000  0.4793510000000  0.4406080000000 1.0
C      1  0.5858840000000  0.5585010000000  0.4711090000000 1.0
C      1  0.4713850000000  0.5756470000000  0.5610870000000 1.0
C      1  0.5594680000000  0.5486380000000  0.4060670000000 1.0
C      1  0.5257560000000  0.5454750000000  0.5077410000000 1.0
C      1  0.3745470000000  0.4860180000000  0.4223280000000 1.0
C      1  0.5803090000000  0.5001090000000  0.4645560000000 1.0
C      1  0.5885340000000  0.5540870000000  0.5217400000000 1.0
C      1  0.4338580000000  0.5140410000000  0.4097690000000 1.0
C      1  0.5048860000000  0.4287620000000  0.4377730000000 1.0
C      1  0.4061990000000  0.5081620000000  0.4904450000000 1.0
C      1  0.6075850000000  0.5381770000000  0.4153250000000 1.0
C      1  0.5486060000000  0.5105260000000  0.3842430000000 1.0
C      1  0.5114660000000  0.6011340000000  0.5701770000000 1.0
C      1  0.5970740000000  0.4439260000000  0.4398070000000 1.0
C      1  0.5926660000000  0.4837370000000  0.4813230000000 1.0
C      1  0.4696190000000  0.3974210000000  0.4612770000000 1.0
C      1  0.5784520000000  0.4764810000000  0.4092730000000 1.0
C      1  0.3923430000000  0.4855940000000  0.5021530000000 1.0
C      1  0.5896370000000  0.4902680000000  0.6160980000000 1.0
C      1  0.4904410000000  0.5006300000000  0.5542090000000 1.0
C      1  0.4659390000000  0.5222090000000  0.6120460000000 1.0
C      1  0.5147530000000  0.4808160000000  0.4126460000000 1.0
C      1  0.5223000000000  0.5845730000000  0.5498780000000 1.0
C      1  0.5935010000000  0.4931970000000  0.5670510000000 1.0
C      1  0.5710730000000  0.4653400000000  0.5195360000000 1.0
C      1  0.4409620000000  0.4892400000000  0.5477480000000 1.0
C      1  0.4488320000000  0.4020490000000  0.5094270000000 1.0
C      1  0.4797070000000  0.5471600000000  0.5245640000000 1.0
C      1  0.4676670000000  0.3965900000000  0.5309980000000 1.0
C      1  0.6266210000000  0.4766930000000  0.4189770000000 1.0
C      1  0.4886530000000  0.5890070000000  0.4400630000000 1.0
C      1  0.5183620000000  0.5914740000000  0.5227610000000 1.0
C      1  0.5831580000000  0.5785230000000  0.5362920000000 1.0
C      1  0.4041960000000  0.4737740000000  0.5248980000000 1.0
C      1  0.4969430000000  0.3949070000000  0.5275020000000 1.0
C      1  0.4215300000000  0.4775130000000  0.3801920000000 1.0
C      1  0.4115430000000  0.4251030000000  0.4856020000000 1.0
C      1  0.4827590000000  0.4953320000000  0.5270730000000 1.0
C      1  0.3681860000000  0.4773200000000  0.4924350000000 1.0
C      1  0.5940850000000  0.4668390000000  0.5035570000000 1.0
C      1  0.4596000000000  0.5859270000000  0.4430870000000 1.0
C      1  0.4363950000000  0.4474610000000  0.5611740000000 1.0
C      1  0.5576930000000  0.5625010000000  0.4667180000000 1.0
C      1  0.4523430000000  0.5633410000000  0.4288160000000 1.0
C      1  0.4905830000000  0.5719440000000  0.6053320000000 1.0
C      1  0.4619130000000  0.5207940000000  0.4160370000000 1.0
C      1  0.3937980000000  0.5399630000000  0.4241290000000 1.0
C      1  0.5451930000000  0.5273220000000  0.5248990000000 1.0
C      1  0.5357700000000  0.5354160000000  0.3951070000000 1.0
C      1  0.5563450000000  0.4569300000000  0.4074510000000 1.0
C      1  0.5661360000000  0.4186940000000  0.4713170000000 1.0
C      1  0.4172360000000  0.5377040000000  0.4088940000000 1.0
C      1  0.4275210000000  0.5179000000000  0.5810690000000 1.0
C      1  0.5314270000000  0.4469180000000  0.6259140000000 1.0
C      1  0.4694100000000  0.4445380000000  0.4675270000000 1.0
C      1  0.5298600000000  0.5733960000000  0.5039530000000 1.0
C      1  0.5626400000000  0.4082080000000  0.5216660000000 1.0
C      1  0.5169970000000  0.4632430000000  0.4930930000000 1.0
C      1  0.4464850000000  0.4870930000000  0.4621790000000 1.0
C      1  0.3496230000000  0.4919010000000  0.4174750000000 1.0
C      1  0.4515730000000  0.4601150000000  0.5127050000000 1.0
C      1  0.5104500000000  0.4483830000000  0.6094040000000 1.0
C      1  0.5737740000000  0.4284760000000  0.4449370000000 1.0
C      1  0.4706780000000  0.4723260000000  0.4009350000000 1.0
C      1  0.4950030000000  0.5067020000000  0.5044870000000 1.0
C      1  0.4990890000000  0.6045040000000  0.4615910000000 1.0
C      1  0.4477690000000  0.5338760000000  0.5689920000000 1.0
C      1  0.5183800000000  0.3993040000000  0.5470920000000 1.0
C      1  0.5470480000000  0.4770910000000  0.5285950000000 1.0
C      1  0.5392150000000  0.4998170000000  0.5133010000000 1.0
C      1  0.4829110000000  0.5497920000000  0.4811430000000 1.0
C      1  0.5226860000000  0.3995400000000  0.4832670000000 1.0
C      1  0.4933840000000  0.6035100000000  0.5147750000000 1.0
END
