TITL C-627110-360-1352 0.00104135452035657 125000 -564.768414932987 0 0 94 (C1) n - 1
REM
REM in /home/nfs/bkarasulu/CARBON/AIRSS/Generating-Clusters/LCBOP/Only-C1/SD-CG/FIRE-CG
REM
REM
REM
REM
REM
REM ./C.cell (11c1c37f851c82e70ff6c80c92926a4b)
REM AIRSS Version 0.9.1 bugfix July 2018 build 013d7b7c2542+ Fri, 06 Jul 2018 19:26:36 +0100
REM compiler GCC version 9.2.1 20190827 (Red Hat 9.2.1-1)
REM options -cpp -mtune=generic -march=x86-64 -g -O0 -fpre-include=/usr/include/finclude/math-vector-fortran.h
REM seed 589047641 234672789 1387986156 782697610 43079152 785368690 -266936947 1204093269 791009198 -1811567581 1832163612 1673045954 2087328245 -193004030 862837035 -1825499242 -871714811 171988368 -842084834 -637766106 -686409251 -73502322 314820853 -859133887 -1889264340 1511179641 -1371727182 -1863183307 -1355187896 -1770478888 -23807471 -371683387 561202426
REM
CELL 1.54180   50.00000   50.00000   50.00000   90.00000   90.00000   90.00000
LATT -1
SFAC C  
C      1  0.4378080000000  0.5639260000000  0.4697730000000 1.0
C      1  0.4718210000000  0.6506540000000  0.4837680000000 1.0
C      1  0.5576110000000  0.4664350000000  0.5747850000000 1.0
C      1  0.4540910000000  0.4556660000000  0.4666010000000 1.0
C      1  0.4179070000000  0.4728610000000  0.5177530000000 1.0
C      1  0.5703910000000  0.4743840000000  0.4794830000000 1.0
C      1  0.4191190000000  0.4677810000000  0.5457460000000 1.0
C      1  0.4436340000000  0.5950260000000  0.5256170000000 1.0
C      1  0.5310710000000  0.5144000000000  0.4283590000000 1.0
C      1  0.4788520000000  0.5216950000000  0.4256310000000 1.0
C      1  0.4583370000000  0.5343750000000  0.5799610000000 1.0
C      1  0.5463120000000  0.4923960000000  0.5860050000000 1.0
C      1  0.5243350000000  0.4193020000000  0.4772750000000 1.0
C      1  0.5091810000000  0.5041090000000  0.5043950000000 1.0
C      1  0.4236470000000  0.4993050000000  0.5075020000000 1.0
C      1  0.4944860000000  0.4184350000000  0.5193460000000 1.0
C      1  0.5068720000000  0.5255230000000  0.4239430000000 1.0
C      1  0.5430850000000  0.4424330000000  0.4316540000000 1.0
C      1  0.4547780000000  0.6137470000000  0.5103650000000 1.0
C      1  0.4762740000000  0.6761370000000  0.4806030000000 1.0
C      1  0.5005200000000  0.4140600000000  0.4912750000000 1.0
C      1  0.4437900000000  0.4899380000000  0.4355100000000 1.0
C      1  0.5661720000000  0.5165660000000  0.5484580000000 1.0
C      1  0.4392260000000  0.5174290000000  0.5276600000000 1.0
C      1  0.5139220000000  0.4554730000000  0.5839940000000 1.0
C      1  0.5387050000000  0.4429950000000  0.5750320000000 1.0
C      1  0.4774540000000  0.5199640000000  0.5641780000000 1.0
C      1  0.4774700000000  0.4126870000000  0.4747510000000 1.0
C      1  0.5707120000000  0.4898250000000  0.3808690000000 1.0
C      1  0.5485190000000  0.5487530000000  0.4713680000000 1.0
C      1  0.4750160000000  0.4781900000000  0.5802340000000 1.0
C      1  0.4583360000000  0.5372380000000  0.4377350000000 1.0
C      1  0.4931740000000  0.5007160000000  0.5806090000000 1.0
C      1  0.4657690000000  0.5283040000000  0.4845430000000 1.0
C      1  0.4971450000000  0.4764630000000  0.4647780000000 1.0
C      1  0.4349550000000  0.5445910000000  0.5177200000000 1.0
C      1  0.5616630000000  0.4237070000000  0.5333300000000 1.0
C      1  0.5513810000000  0.4700920000000  0.4234960000000 1.0
C      1  0.5409430000000  0.4702090000000  0.4856910000000 1.0
C      1  0.5370650000000  0.5420060000000  0.5746050000000 1.0
C      1  0.4326720000000  0.4957790000000  0.5947390000000 1.0
C      1  0.5146410000000  0.4160850000000  0.5392920000000 1.0
C      1  0.4406120000000  0.4576860000000  0.5609470000000 1.0
C      1  0.4357640000000  0.5698300000000  0.5291680000000 1.0
C      1  0.5390880000000  0.4249740000000  0.5512670000000 1.0
C      1  0.4380090000000  0.4641580000000  0.4452730000000 1.0
C      1  0.5642980000000  0.5269810000000  0.4706710000000 1.0
C      1  0.5437580000000  0.5077930000000  0.5323620000000 1.0
C      1  0.5168660000000  0.4845530000000  0.4838590000000 1.0
C      1  0.5255130000000  0.5545000000000  0.5530960000000 1.0
C      1  0.4671170000000  0.6233670000000  0.4871100000000 1.0
C      1  0.5346020000000  0.5874260000000  0.4085550000000 1.0
C      1  0.4379260000000  0.5223650000000  0.5933450000000 1.0
C      1  0.4473060000000  0.4747610000000  0.5831180000000 1.0
C      1  0.4672210000000  0.5120630000000  0.5373410000000 1.0
C      1  0.4235490000000  0.4474940000000  0.5066370000000 1.0
C      1  0.5900520000000  0.5045230000000  0.5390820000000 1.0
C      1  0.4342740000000  0.5130720000000  0.4499330000000 1.0
C      1  0.4654030000000  0.4443040000000  0.5504440000000 1.0
C      1  0.5360840000000  0.4300040000000  0.4556880000000 1.0
C      1  0.5179610000000  0.4863590000000  0.5896880000000 1.0
C      1  0.5502100000000  0.4950490000000  0.4371620000000 1.0
C      1  0.5850900000000  0.4778360000000  0.5306250000000 1.0
C      1  0.5603500000000  0.4694140000000  0.3953940000000 1.0
C      1  0.4678530000000  0.4294250000000  0.5261060000000 1.0
C      1  0.5257040000000  0.5222390000000  0.5176650000000 1.0
C      1  0.4710570000000  0.4764630000000  0.4768040000000 1.0
C      1  0.5365920000000  0.4799650000000  0.5363050000000 1.0
C      1  0.4906030000000  0.4577610000000  0.5632980000000 1.0
C      1  0.4587250000000  0.5625560000000  0.4503110000000 1.0
C      1  0.5827970000000  0.4630370000000  0.5065030000000 1.0
C      1  0.4829380000000  0.5017650000000  0.5156130000000 1.0
C      1  0.4809950000000  0.5800330000000  0.4558540000000 1.0
C      1  0.5178120000000  0.5667960000000  0.5034410000000 1.0
C      1  0.5621600000000  0.4694470000000  0.5467260000000 1.0
C      1  0.5661310000000  0.5003160000000  0.4614570000000 1.0
C      1  0.4926810000000  0.4772320000000  0.4365860000000 1.0
C      1  0.5460660000000  0.4269300000000  0.4072540000000 1.0
C      1  0.4746720000000  0.6050630000000  0.4672790000000 1.0
C      1  0.4564650000000  0.4305540000000  0.4788870000000 1.0
C      1  0.5560760000000  0.4423370000000  0.3867330000000 1.0
C      1  0.5862740000000  0.4569030000000  0.4597110000000 1.0
C      1  0.4677430000000  0.5002290000000  0.4913620000000 1.0
C      1  0.5759240000000  0.4354370000000  0.5132130000000 1.0
C      1  0.4470880000000  0.4318320000000  0.5057030000000 1.0
C      1  0.5249060000000  0.5639870000000  0.4760810000000 1.0
C      1  0.4714820000000  0.4937280000000  0.4261110000000 1.0
C      1  0.5096640000000  0.4691740000000  0.5399750000000 1.0
C      1  0.5089900000000  0.5738440000000  0.4542720000000 1.0
C      1  0.4230140000000  0.5151280000000  0.4788440000000 1.0
C      1  0.5221850000000  0.5805850000000  0.4304230000000 1.0
C      1  0.5213640000000  0.5493460000000  0.5252590000000 1.0
C      1  0.5539350000000  0.5186380000000  0.5749300000000 1.0
C      1  0.4381890000000  0.5410770000000  0.4880970000000 1.0
END
