TITL C-627113-6568-91 -2.75813997612254e-06 125000 -1180.80763127407 0 0 193 (C1) n - 1
REM
REM in /home/nfs/bkarasulu/CARBON/AIRSS/Generating-Clusters/LCBOP/Only-C1/SD-CG/FIRE-CG
REM
REM
REM
REM
REM
REM ./C.cell (11c1c37f851c82e70ff6c80c92926a4b)
REM AIRSS Version 0.9.1 bugfix July 2018 build 013d7b7c2542+ Fri, 06 Jul 2018 19:26:36 +0100
REM compiler GCC version 9.2.1 20190827 (Red Hat 9.2.1-1)
REM options -cpp -mtune=generic -march=x86-64 -g -O0 -fpre-include=/usr/include/finclude/math-vector-fortran.h
REM seed 1352400934 -1787243013 1430777820 1809338456 1888399252 397205714 80917448 -1862355045 776703514 -1275630560 224214032 -100008300 -20661781 -996985214 -1242082838 -86897771 -1655889053 -1461138665 813484534 654877987 1870016262 1423911269 -853126578 -1817722847 -68485194 1059652836 -242313108 415362284 222804346 1182647400 729795254 -7543587 -1824661601
REM
CELL 1.54180   50.00000   50.00000   50.00000   90.00000   90.00000   90.00000
LATT -1
SFAC C  
C      1  0.4126070000000  0.4682600000000  0.5374950000000 1.0
C      1  0.3595720000000  0.4789850000000  0.5441320000000 1.0
C      1  0.4756570000000  0.5090670000000  0.4246080000000 1.0
C      1  0.6086950000000  0.4436610000000  0.5641540000000 1.0
C      1  0.5222940000000  0.4422630000000  0.4827660000000 1.0
C      1  0.4545050000000  0.3895670000000  0.4684100000000 1.0
C      1  0.5401980000000  0.3817250000000  0.5454500000000 1.0
C      1  0.6338630000000  0.4414550000000  0.4091640000000 1.0
C      1  0.5938420000000  0.4887040000000  0.4752070000000 1.0
C      1  0.4962260000000  0.5060720000000  0.4794460000000 1.0
C      1  0.5711090000000  0.5670730000000  0.5832140000000 1.0
C      1  0.5490840000000  0.5362400000000  0.3820950000000 1.0
C      1  0.3862680000000  0.5132330000000  0.5734320000000 1.0
C      1  0.4806450000000  0.6158920000000  0.4558110000000 1.0
C      1  0.5647330000000  0.5708070000000  0.5064700000000 1.0
C      1  0.5093770000000  0.5259710000000  0.5186170000000 1.0
C      1  0.4446220000000  0.5010900000000  0.4995880000000 1.0
C      1  0.5930460000000  0.4616600000000  0.4651080000000 1.0
C      1  0.5388730000000  0.4603880000000  0.5957130000000 1.0
C      1  0.4560720000000  0.5665600000000  0.4684220000000 1.0
C      1  0.5695160000000  0.4886620000000  0.6205120000000 1.0
C      1  0.5499660000000  0.3871000000000  0.4911880000000 1.0
C      1  0.4626190000000  0.4642470000000  0.5826310000000 1.0
C      1  0.5336690000000  0.4917640000000  0.4268180000000 1.0
C      1  0.6170780000000  0.5299780000000  0.4835030000000 1.0
C      1  0.4789710000000  0.5535830000000  0.3950380000000 1.0
C      1  0.4528780000000  0.4755870000000  0.4843890000000 1.0
C      1  0.5171820000000  0.4805820000000  0.3510340000000 1.0
C      1  0.4898220000000  0.4167680000000  0.3693310000000 1.0
C      1  0.5576630000000  0.5127040000000  0.6345650000000 1.0
C      1  0.4805340000000  0.3801400000000  0.4626870000000 1.0
C      1  0.5597830000000  0.5912040000000  0.4568170000000 1.0
C      1  0.5048900000000  0.5960360000000  0.5734150000000 1.0
C      1  0.5925170000000  0.4223780000000  0.5665890000000 1.0
C      1  0.5245600000000  0.5479120000000  0.4729760000000 1.0
C      1  0.6128760000000  0.5436300000000  0.5077900000000 1.0
C      1  0.4681570000000  0.4685920000000  0.6097760000000 1.0
C      1  0.4731000000000  0.4909700000000  0.4028160000000 1.0
C      1  0.4781620000000  0.5711510000000  0.5425470000000 1.0
C      1  0.5660630000000  0.4150860000000  0.5611960000000 1.0
C      1  0.4658690000000  0.5648110000000  0.4415310000000 1.0
C      1  0.3840120000000  0.4642840000000  0.5830860000000 1.0
C      1  0.4677760000000  0.4386600000000  0.4067550000000 1.0
C      1  0.5084710000000  0.5275000000000  0.5648220000000 1.0
C      1  0.4422240000000  0.4533760000000  0.5034420000000 1.0
C      1  0.4182970000000  0.5195490000000  0.4024050000000 1.0
C      1  0.5067940000000  0.5273690000000  0.4614700000000 1.0
C      1  0.4085400000000  0.5193640000000  0.5909280000000 1.0
C      1  0.5629790000000  0.5870190000000  0.5322190000000 1.0
C      1  0.6181330000000  0.5021290000000  0.4803840000000 1.0
C      1  0.6548220000000  0.4953070000000  0.5099110000000 1.0
C      1  0.6334300000000  0.5375710000000  0.5266160000000 1.0
C      1  0.4939770000000  0.4685470000000  0.4508000000000 1.0
C      1  0.4554440000000  0.5894670000000  0.5454450000000 1.0
C      1  0.6195130000000  0.4569240000000  0.4532100000000 1.0
C      1  0.4863320000000  0.3936740000000  0.4122900000000 1.0
C      1  0.5405410000000  0.5560670000000  0.4963650000000 1.0
C      1  0.5708230000000  0.5371070000000  0.6259510000000 1.0
C      1  0.5205220000000  0.4819340000000  0.5938790000000 1.0
C      1  0.4394180000000  0.5811140000000  0.5674990000000 1.0
C      1  0.6020440000000  0.5043490000000  0.4044240000000 1.0
C      1  0.5674480000000  0.5177810000000  0.4497560000000 1.0
C      1  0.4898430000000  0.6187830000000  0.5272880000000 1.0
C      1  0.5616030000000  0.5591140000000  0.4214840000000 1.0
C      1  0.5217000000000  0.5242570000000  0.3861740000000 1.0
C      1  0.5057760000000  0.5606340000000  0.3562210000000 1.0
C      1  0.4821250000000  0.5039880000000  0.6413130000000 1.0
C      1  0.3856090000000  0.4624370000000  0.4476960000000 1.0
C      1  0.4320740000000  0.4155110000000  0.5518530000000 1.0
C      1  0.4002270000000  0.5169090000000  0.5080890000000 1.0
C      1  0.5478170000000  0.5242640000000  0.5869030000000 1.0
C      1  0.5193450000000  0.5133510000000  0.4147050000000 1.0
C      1  0.4854460000000  0.4481360000000  0.6201360000000 1.0
C      1  0.5006720000000  0.3842980000000  0.5740800000000 1.0
C      1  0.4635750000000  0.4949640000000  0.6206960000000 1.0
C      1  0.4996120000000  0.6067610000000  0.4388770000000 1.0
C      1  0.4193250000000  0.5721680000000  0.5148970000000 1.0
C      1  0.5398940000000  0.4540460000000  0.4611560000000 1.0
C      1  0.5083870000000  0.6195760000000  0.5057000000000 1.0
C      1  0.4997770000000  0.5228790000000  0.4327900000000 1.0
C      1  0.5272650000000  0.3907980000000  0.5695340000000 1.0
C      1  0.5229720000000  0.4712570000000  0.4441920000000 1.0
C      1  0.5299210000000  0.4337580000000  0.5965750000000 1.0
C      1  0.6412390000000  0.4216370000000  0.3939340000000 1.0
C      1  0.6002220000000  0.4692520000000  0.5629020000000 1.0
C      1  0.6238830000000  0.4889680000000  0.4140110000000 1.0
C      1  0.3772070000000  0.4577840000000  0.4760720000000 1.0
C      1  0.4272410000000  0.5393200000000  0.4416940000000 1.0
C      1  0.3816120000000  0.5236790000000  0.5272610000000 1.0
C      1  0.3864230000000  0.5397430000000  0.4613030000000 1.0
C      1  0.5011480000000  0.6159910000000  0.5534510000000 1.0
C      1  0.3921530000000  0.4998970000000  0.4878620000000 1.0
C      1  0.4708020000000  0.3919610000000  0.5328830000000 1.0
C      1  0.4762670000000  0.4878940000000  0.4671320000000 1.0
C      1  0.5258120000000  0.3777000000000  0.4841460000000 1.0
C      1  0.4360130000000  0.4672690000000  0.4611120000000 1.0
C      1  0.6406740000000  0.4859540000000  0.4873930000000 1.0
C      1  0.4589560000000  0.5565070000000  0.4143850000000 1.0
C      1  0.4480170000000  0.6101270000000  0.4991570000000 1.0
C      1  0.4271220000000  0.5758320000000  0.4697670000000 1.0
C      1  0.3970220000000  0.4722110000000  0.4916580000000 1.0
C      1  0.5209680000000  0.5943180000000  0.4279070000000 1.0
C      1  0.4851020000000  0.3815120000000  0.5108590000000 1.0
C      1  0.5733090000000  0.4760550000000  0.5680560000000 1.0
C      1  0.4006410000000  0.5745000000000  0.5355510000000 1.0
C      1  0.5007970000000  0.5240030000000  0.6309680000000 1.0
C      1  0.6409360000000  0.4620610000000  0.4720510000000 1.0
C      1  0.5766310000000  0.5683380000000  0.4628310000000 1.0
C      1  0.4331200000000  0.5432700000000  0.4129260000000 1.0
C      1  0.4946740000000  0.5459980000000  0.5813620000000 1.0
C      1  0.5524260000000  0.6135440000000  0.4728950000000 1.0
C      1  0.4437460000000  0.5041440000000  0.5551060000000 1.0
C      1  0.5636940000000  0.4329930000000  0.4982300000000 1.0
C      1  0.5116950000000  0.4554560000000  0.3444350000000 1.0
C      1  0.5182160000000  0.5021240000000  0.3664190000000 1.0
C      1  0.4827140000000  0.4416420000000  0.4522630000000 1.0
C      1  0.4104750000000  0.5553760000000  0.4578250000000 1.0
C      1  0.5957560000000  0.5315060000000  0.3971650000000 1.0
C      1  0.4125220000000  0.5003490000000  0.4248110000000 1.0
C      1  0.3866540000000  0.5608700000000  0.5542110000000 1.0
C      1  0.5182610000000  0.6009090000000  0.5966540000000 1.0
C      1  0.5703270000000  0.5458100000000  0.3977890000000 1.0
C      1  0.4151650000000  0.4616130000000  0.5106800000000 1.0
C      1  0.3528440000000  0.4663470000000  0.5208040000000 1.0
C      1  0.4577490000000  0.5208930000000  0.6059720000000 1.0
C      1  0.4629770000000  0.6185700000000  0.4761010000000 1.0
C      1  0.5690260000000  0.6354430000000  0.4728750000000 1.0
C      1  0.5284430000000  0.5150000000000  0.6288260000000 1.0
C      1  0.5712020000000  0.5049400000000  0.4744680000000 1.0
C      1  0.5647810000000  0.5442630000000  0.5989540000000 1.0
C      1  0.6507790000000  0.5166760000000  0.5261020000000 1.0
C      1  0.4697680000000  0.4650090000000  0.3963240000000 1.0
C      1  0.5363570000000  0.5262250000000  0.5620490000000 1.0
C      1  0.5344460000000  0.4662970000000  0.5259170000000 1.0
C      1  0.4351550000000  0.5602620000000  0.5845390000000 1.0
C      1  0.5604650000000  0.4988330000000  0.4294230000000 1.0
C      1  0.4929560000000  0.5707780000000  0.5673120000000 1.0
C      1  0.4731490000000  0.4606170000000  0.5585100000000 1.0
C      1  0.4600370000000  0.4375050000000  0.4343030000000 1.0
C      1  0.5647060000000  0.4729480000000  0.5959390000000 1.0
C      1  0.5296180000000  0.5073120000000  0.6012810000000 1.0
C      1  0.5781140000000  0.4904920000000  0.4098730000000 1.0
C      1  0.4614700000000  0.5567070000000  0.4958850000000 1.0
C      1  0.5057420000000  0.4318230000000  0.6119410000000 1.0
C      1  0.5724550000000  0.5707540000000  0.5552250000000 1.0
C      1  0.5535830000000  0.5033140000000  0.4946830000000 1.0
C      1  0.4982110000000  0.4303050000000  0.4735350000000 1.0
C      1  0.4802880000000  0.4155350000000  0.3955750000000 1.0
C      1  0.5633290000000  0.4057900000000  0.5081210000000 1.0
C      1  0.4593740000000  0.5031410000000  0.4467290000000 1.0
C      1  0.5538260000000  0.4735550000000  0.5462400000000 1.0
C      1  0.4433080000000  0.4086020000000  0.4833950000000 1.0
C      1  0.4335750000000  0.5333780000000  0.5952360000000 1.0
C      1  0.4256020000000  0.5917490000000  0.4943970000000 1.0
C      1  0.5033550000000  0.5018490000000  0.5065200000000 1.0
C      1  0.5469870000000  0.5835430000000  0.4310470000000 1.0
C      1  0.4278610000000  0.5224500000000  0.5076230000000 1.0
C      1  0.4055810000000  0.4442970000000  0.4362820000000 1.0
C      1  0.3981600000000  0.4415400000000  0.5822740000000 1.0
C      1  0.4501740000000  0.4116640000000  0.5305880000000 1.0
C      1  0.5715550000000  0.5456120000000  0.4458550000000 1.0
C      1  0.3843820000000  0.5106700000000  0.4625930000000 1.0
C      1  0.5686040000000  0.4470560000000  0.4712680000000 1.0
C      1  0.5505530000000  0.5327670000000  0.5395600000000 1.0
C      1  0.4884520000000  0.3810730000000  0.4357790000000 1.0
C      1  0.5289210000000  0.6146820000000  0.4889880000000 1.0
C      1  0.4363270000000  0.5490770000000  0.5091510000000 1.0
C      1  0.4812790000000  0.5624340000000  0.5155250000000 1.0
C      1  0.4789350000000  0.3843610000000  0.5586340000000 1.0
C      1  0.3812070000000  0.5332290000000  0.5534850000000 1.0
C      1  0.5016420000000  0.4316610000000  0.3507290000000 1.0
C      1  0.4325360000000  0.5110020000000  0.4447950000000 1.0
C      1  0.4628870000000  0.5202540000000  0.5485050000000 1.0
C      1  0.3746440000000  0.4864860000000  0.5680230000000 1.0
C      1  0.4976620000000  0.3778260000000  0.4856320000000 1.0
C      1  0.6257550000000  0.4626220000000  0.4255770000000 1.0
C      1  0.5420170000000  0.4141280000000  0.5793870000000 1.0
C      1  0.4848090000000  0.5354230000000  0.6067480000000 1.0
C      1  0.5085320000000  0.4788320000000  0.5228460000000 1.0
C      1  0.4615180000000  0.6102240000000  0.5250970000000 1.0
C      1  0.4148990000000  0.4245270000000  0.5702040000000 1.0
C      1  0.3895750000000  0.4915320000000  0.4405180000000 1.0
C      1  0.4257190000000  0.4849730000000  0.5533250000000 1.0
C      1  0.4467320000000  0.4253760000000  0.5057160000000 1.0
C      1  0.5869660000000  0.5519970000000  0.5147330000000 1.0
C      1  0.4877950000000  0.4671240000000  0.5374560000000 1.0
C      1  0.5763540000000  0.5447450000000  0.5409790000000 1.0
C      1  0.5605880000000  0.4002630000000  0.5362450000000 1.0
C      1  0.5333090000000  0.5396020000000  0.5185820000000 1.0
C      1  0.5384790000000  0.4458310000000  0.5067310000000 1.0
C      1  0.3554840000000  0.4561330000000  0.4952660000000 1.0
C      1  0.4336950000000  0.4467610000000  0.4420520000000 1.0
C      1  0.5014230000000  0.5466540000000  0.3795630000000 1.0
END
