TITL C-627108-131-789 6.82703977457695e-05 125000 -1164.52991775516 0 0 190 (C1) n - 1
REM
REM in /home/nfs/bkarasulu/CARBON/AIRSS/Generating-Clusters/LCBOP/Only-C1/SD-CG/FIRE-CG
REM
REM
REM
REM
REM
REM ./C.cell (11c1c37f851c82e70ff6c80c92926a4b)
REM AIRSS Version 0.9.1 bugfix July 2018 build 013d7b7c2542+ Fri, 06 Jul 2018 19:26:36 +0100
REM compiler GCC version 9.2.1 20190827 (Red Hat 9.2.1-1)
REM options -cpp -mtune=generic -march=x86-64 -g -O0 -fpre-include=/usr/include/finclude/math-vector-fortran.h
REM seed 2032231493 815517505 1569188245 -2102937099 1269572856 -1924139999 -658503792 -1658343874 -1327773620 -1207499133 1606104559 589619754 -1701478858 -518028970 364662549 -23279137 -1295756016 -1129116718 1815846181 210415305 1130536216 -1764332936 70080730 -1562215589 1937611307 -529553281 831218220 -592653048 253295968 188513731 1867439831 -904201471 -1713140045
REM
CELL 1.54180   50.00000   50.00000   50.00000   90.00000   90.00000   90.00000
LATT -1
SFAC C  
C      1  0.4898280000000  0.6214950000000  0.5003300000000 1.0
C      1  0.3709980000000  0.4625750000000  0.5108780000000 1.0
C      1  0.4348060000000  0.5757700000000  0.3529670000000 1.0
C      1  0.5568030000000  0.5292210000000  0.5488250000000 1.0
C      1  0.5887890000000  0.4546330000000  0.5028540000000 1.0
C      1  0.4789350000000  0.5053190000000  0.6095750000000 1.0
C      1  0.5095520000000  0.4688110000000  0.4637730000000 1.0
C      1  0.5509640000000  0.5044620000000  0.4373120000000 1.0
C      1  0.3991130000000  0.4379700000000  0.4802350000000 1.0
C      1  0.4412090000000  0.5205520000000  0.4524110000000 1.0
C      1  0.5034070000000  0.5116330000000  0.5958670000000 1.0
C      1  0.4868930000000  0.4198810000000  0.5317930000000 1.0
C      1  0.5512110000000  0.4474480000000  0.4312510000000 1.0
C      1  0.4733160000000  0.4592610000000  0.5596150000000 1.0
C      1  0.4515550000000  0.6144420000000  0.4431360000000 1.0
C      1  0.5375080000000  0.4882040000000  0.3974470000000 1.0
C      1  0.5682670000000  0.5826210000000  0.5852000000000 1.0
C      1  0.4656510000000  0.4787460000000  0.4930740000000 1.0
C      1  0.4682750000000  0.4442430000000  0.5335590000000 1.0
C      1  0.5290960000000  0.5200970000000  0.6086380000000 1.0
C      1  0.4425730000000  0.4304780000000  0.5826540000000 1.0
C      1  0.6001340000000  0.5012790000000  0.4986540000000 1.0
C      1  0.4194330000000  0.4209260000000  0.4388900000000 1.0
C      1  0.4763150000000  0.5391090000000  0.3994010000000 1.0
C      1  0.5904850000000  0.5599830000000  0.5242570000000 1.0
C      1  0.5168930000000  0.5268290000000  0.3731040000000 1.0
C      1  0.6089590000000  0.4458480000000  0.5502070000000 1.0
C      1  0.5719950000000  0.4447810000000  0.5931460000000 1.0
C      1  0.5121780000000  0.5794830000000  0.5061150000000 1.0
C      1  0.6919650000000  0.4877660000000  0.5275640000000 1.0
C      1  0.5606830000000  0.5809750000000  0.4361870000000 1.0
C      1  0.5295800000000  0.5206240000000  0.4439840000000 1.0
C      1  0.5466630000000  0.4474070000000  0.5256670000000 1.0
C      1  0.5049790000000  0.5611800000000  0.6271690000000 1.0
C      1  0.5715420000000  0.4620670000000  0.5237940000000 1.0
C      1  0.5313330000000  0.4870620000000  0.5083880000000 1.0
C      1  0.4111140000000  0.5509430000000  0.4358200000000 1.0
C      1  0.5830930000000  0.5647840000000  0.5714230000000 1.0
C      1  0.5038790000000  0.4197680000000  0.4025550000000 1.0
C      1  0.4554710000000  0.5572780000000  0.4927660000000 1.0
C      1  0.5851280000000  0.5057850000000  0.6029220000000 1.0
C      1  0.4606460000000  0.3970140000000  0.4182860000000 1.0
C      1  0.4849050000000  0.3998180000000  0.4712320000000 1.0
C      1  0.5554850000000  0.5082240000000  0.6010580000000 1.0
C      1  0.6309790000000  0.4889530000000  0.5958520000000 1.0
C      1  0.5769390000000  0.4181090000000  0.4754700000000 1.0
C      1  0.5759900000000  0.5337450000000  0.4750360000000 1.0
C      1  0.4731030000000  0.4847830000000  0.4401030000000 1.0
C      1  0.3964140000000  0.4514890000000  0.5055610000000 1.0
C      1  0.4521500000000  0.4042630000000  0.5756310000000 1.0
C      1  0.5527000000000  0.5929480000000  0.4625170000000 1.0
C      1  0.4934750000000  0.4794640000000  0.5603600000000 1.0
C      1  0.5057480000000  0.5165320000000  0.4587160000000 1.0
C      1  0.5094430000000  0.4110550000000  0.6090480000000 1.0
C      1  0.4567740000000  0.5173960000000  0.5443170000000 1.0
C      1  0.5797510000000  0.5811140000000  0.5078700000000 1.0
C      1  0.4759640000000  0.4603720000000  0.5092580000000 1.0
C      1  0.5340600000000  0.5373410000000  0.4982330000000 1.0
C      1  0.5461990000000  0.5110000000000  0.5040810000000 1.0
C      1  0.5086880000000  0.5846510000000  0.5337130000000 1.0
C      1  0.5267830000000  0.4731940000000  0.4844950000000 1.0
C      1  0.4168360000000  0.5248090000000  0.5666190000000 1.0
C      1  0.4927370000000  0.3921210000000  0.5995870000000 1.0
C      1  0.4858700000000  0.4006470000000  0.4088550000000 1.0
C      1  0.4237320000000  0.4527050000000  0.5899110000000 1.0
C      1  0.6046410000000  0.4745240000000  0.4922100000000 1.0
C      1  0.5945040000000  0.3809580000000  0.4496710000000 1.0
C      1  0.4943320000000  0.5961590000000  0.5935590000000 1.0
C      1  0.4362130000000  0.4057130000000  0.4863580000000 1.0
C      1  0.4849890000000  0.4635520000000  0.3919940000000 1.0
C      1  0.6083220000000  0.5387950000000  0.4334780000000 1.0
C      1  0.5104210000000  0.6033090000000  0.4902230000000 1.0
C      1  0.5296360000000  0.5395730000000  0.5525240000000 1.0
C      1  0.5784680000000  0.3900240000000  0.4699130000000 1.0
C      1  0.3687800000000  0.5091630000000  0.4625290000000 1.0
C      1  0.4449640000000  0.6068570000000  0.5228630000000 1.0
C      1  0.4901660000000  0.4206440000000  0.4535510000000 1.0
C      1  0.4192260000000  0.4855870000000  0.5352390000000 1.0
C      1  0.5530870000000  0.5565990000000  0.4215280000000 1.0
C      1  0.5216300000000  0.6026470000000  0.5922730000000 1.0
C      1  0.4606030000000  0.5673090000000  0.4659260000000 1.0
C      1  0.5275170000000  0.4515490000000  0.5783600000000 1.0
C      1  0.4606080000000  0.4502330000000  0.3873660000000 1.0
C      1  0.6125520000000  0.5448100000000  0.5156730000000 1.0
C      1  0.4644820000000  0.4614670000000  0.6087420000000 1.0
C      1  0.5404610000000  0.5843980000000  0.5825520000000 1.0
C      1  0.4782160000000  0.5464680000000  0.5091890000000 1.0
C      1  0.3850910000000  0.5610690000000  0.5713320000000 1.0
C      1  0.4998140000000  0.5440030000000  0.4667590000000 1.0
C      1  0.4172300000000  0.4962580000000  0.3837660000000 1.0
C      1  0.5520020000000  0.4906550000000  0.5790010000000 1.0
C      1  0.5888870000000  0.4269490000000  0.5013230000000 1.0
C      1  0.4584670000000  0.5949090000000  0.4618500000000 1.0
C      1  0.5000320000000  0.5058410000000  0.5682260000000 1.0
C      1  0.5789820000000  0.4085470000000  0.5578790000000 1.0
C      1  0.6006670000000  0.4727810000000  0.5608400000000 1.0
C      1  0.4455310000000  0.6401860000000  0.4494800000000 1.0
C      1  0.4863080000000  0.4921390000000  0.3897010000000 1.0
C      1  0.5339860000000  0.5323830000000  0.3526790000000 1.0
C      1  0.5175710000000  0.4336900000000  0.5973480000000 1.0
C      1  0.3538330000000  0.4998370000000  0.4825110000000 1.0
C      1  0.4417710000000  0.4338560000000  0.3971160000000 1.0
C      1  0.5327620000000  0.4224470000000  0.5247440000000 1.0
C      1  0.5619370000000  0.5012590000000  0.5542730000000 1.0
C      1  0.4427700000000  0.5782010000000  0.3776620000000 1.0
C      1  0.4193430000000  0.4196040000000  0.4685910000000 1.0
C      1  0.5551350000000  0.5512420000000  0.4831810000000 1.0
C      1  0.4388530000000  0.4152080000000  0.4184800000000 1.0
C      1  0.4341650000000  0.5160260000000  0.3957270000000 1.0
C      1  0.5292100000000  0.5629100000000  0.5681470000000 1.0
C      1  0.4769120000000  0.5946820000000  0.5701260000000 1.0
C      1  0.5680170000000  0.5349860000000  0.4070900000000 1.0
C      1  0.6049340000000  0.4890080000000  0.5861850000000 1.0
C      1  0.4194840000000  0.5370930000000  0.4123830000000 1.0
C      1  0.5520630000000  0.4630350000000  0.5853580000000 1.0
C      1  0.3977500000000  0.4404530000000  0.4321050000000 1.0
C      1  0.4595800000000  0.5680070000000  0.6037530000000 1.0
C      1  0.4800100000000  0.3954930000000  0.5744950000000 1.0
C      1  0.4880370000000  0.6472350000000  0.4910720000000 1.0
C      1  0.5086760000000  0.5897140000000  0.4450500000000 1.0
C      1  0.4950020000000  0.4912430000000  0.4551390000000 1.0
C      1  0.4448290000000  0.5182170000000  0.5710770000000 1.0
C      1  0.4585820000000  0.3920590000000  0.4765730000000 1.0
C      1  0.5038710000000  0.3986930000000  0.4916220000000 1.0
C      1  0.5246820000000  0.6018940000000  0.4651160000000 1.0
C      1  0.4989060000000  0.5455490000000  0.3840370000000 1.0
C      1  0.4503610000000  0.6044540000000  0.4171080000000 1.0
C      1  0.4857100000000  0.5761240000000  0.6132340000000 1.0
C      1  0.4125590000000  0.5548790000000  0.4641000000000 1.0
C      1  0.5061700000000  0.5512070000000  0.4958530000000 1.0
C      1  0.5639730000000  0.4351250000000  0.4534280000000 1.0
C      1  0.4417930000000  0.5010480000000  0.5260420000000 1.0
C      1  0.5141820000000  0.5010320000000  0.3850550000000 1.0
C      1  0.4511750000000  0.4706930000000  0.4362470000000 1.0
C      1  0.4677080000000  0.4462010000000  0.5844190000000 1.0
C      1  0.5084330000000  0.4478440000000  0.4007050000000 1.0
C      1  0.6461000000000  0.5095110000000  0.5139420000000 1.0
C      1  0.4349120000000  0.4135880000000  0.5134640000000 1.0
C      1  0.5543750000000  0.3943310000000  0.5558010000000 1.0
C      1  0.5167530000000  0.4650030000000  0.5555960000000 1.0
C      1  0.3832590000000  0.4447290000000  0.4568170000000 1.0
C      1  0.4061110000000  0.4635540000000  0.4181270000000 1.0
C      1  0.4727390000000  0.6123560000000  0.5224130000000 1.0
C      1  0.5776050000000  0.5499570000000  0.5478440000000 1.0
C      1  0.4481630000000  0.4994710000000  0.4987990000000 1.0
C      1  0.4378860000000  0.5181150000000  0.4813250000000 1.0
C      1  0.4623340000000  0.5561900000000  0.4170200000000 1.0
C      1  0.4796590000000  0.5319900000000  0.5343480000000 1.0
C      1  0.5571370000000  0.5068800000000  0.4092510000000 1.0
C      1  0.5076770000000  0.4180640000000  0.5112630000000 1.0
C      1  0.5080760000000  0.5618250000000  0.4448120000000 1.0
C      1  0.4188070000000  0.5038920000000  0.4430060000000 1.0
C      1  0.4249080000000  0.4783850000000  0.4333730000000 1.0
C      1  0.5626210000000  0.5783970000000  0.4852920000000 1.0
C      1  0.4030740000000  0.4747320000000  0.3924170000000 1.0
C      1  0.4868080000000  0.5991960000000  0.5439400000000 1.0
C      1  0.4805670000000  0.4796470000000  0.6229570000000 1.0
C      1  0.5246690000000  0.5427730000000  0.6252110000000 1.0
C      1  0.4983960000000  0.4033670000000  0.5535370000000 1.0
C      1  0.3918320000000  0.5090560000000  0.4493180000000 1.0
C      1  0.5636950000000  0.3721730000000  0.4855300000000 1.0
C      1  0.4533330000000  0.5779620000000  0.5772240000000 1.0
C      1  0.4391250000000  0.4763440000000  0.6008310000000 1.0
C      1  0.5286850000000  0.4691560000000  0.5307780000000 1.0
C      1  0.4308960000000  0.5730660000000  0.5603650000000 1.0
C      1  0.4517660000000  0.5037400000000  0.5950420000000 1.0
C      1  0.5290380000000  0.4042090000000  0.5481310000000 1.0
C      1  0.5741820000000  0.5114100000000  0.4931540000000 1.0
C      1  0.4039150000000  0.5022470000000  0.5534030000000 1.0
C      1  0.5028340000000  0.4438460000000  0.4540210000000 1.0
C      1  0.6201620000000  0.5185180000000  0.5092740000000 1.0
C      1  0.4516890000000  0.5797560000000  0.4041910000000 1.0
C      1  0.5962410000000  0.5373590000000  0.4093550000000 1.0
C      1  0.5338400000000  0.4605560000000  0.4093520000000 1.0
C      1  0.3544490000000  0.4815380000000  0.5019460000000 1.0
C      1  0.4296190000000  0.5899330000000  0.5374260000000 1.0
C      1  0.5041280000000  0.5264800000000  0.5491550000000 1.0
C      1  0.5519220000000  0.3539560000000  0.4999780000000 1.0
C      1  0.4107700000000  0.5528920000000  0.5660120000000 1.0
C      1  0.4175860000000  0.4582540000000  0.5245530000000 1.0
C      1  0.5817130000000  0.4216100000000  0.5832970000000 1.0
C      1  0.5794040000000  0.4819070000000  0.5430500000000 1.0
C      1  0.4290400000000  0.5449150000000  0.4878210000000 1.0
C      1  0.6694240000000  0.4988190000000  0.5205410000000 1.0
C      1  0.5976200000000  0.5380800000000  0.4580270000000 1.0
C      1  0.5950620000000  0.4215740000000  0.5367900000000 1.0
C      1  0.4561670000000  0.5469020000000  0.4441660000000 1.0
C      1  0.4386720000000  0.4381460000000  0.5275380000000 1.0
C      1  0.5287030000000  0.5467010000000  0.4319640000000 1.0
C      1  0.4643580000000  0.5131550000000  0.3942870000000 1.0
END
