TITL C-627111-6168-1126 -9517.70357515924 125000 -937.06133957766 0 0 154 (C1) n - 1
REM
REM in /home/nfs/bkarasulu/CARBON/AIRSS/Generating-Clusters/LCBOP/Only-C1/SD-CG/FIRE-CG
REM
REM
REM
REM
REM
REM ./C.cell (11c1c37f851c82e70ff6c80c92926a4b)
REM AIRSS Version 0.9.1 bugfix July 2018 build 013d7b7c2542+ Fri, 06 Jul 2018 19:26:36 +0100
REM compiler GCC version 9.2.1 20190827 (Red Hat 9.2.1-1)
REM options -cpp -mtune=generic -march=x86-64 -g -O0 -fpre-include=/usr/include/finclude/math-vector-fortran.h
REM seed -1939705350 1853789668 1589909538 -1113994550 1673868366 -1578122162 309875337 744980372 811031380 702015660 687455723 986511938 1034627361 1058298725 373399693 1307880236 1598078894 1604543157 -534837390 -1821421682 -1753226470 -322524383 761287621 309730959 76144363 598902326 143976817 1206314552 1031047501 676434659 343438332 -872151847 -90179825
REM
CELL 1.54180   50.00000   50.00000   50.00000   90.00000   90.00000   90.00000
LATT -1
SFAC C  
C      1  0.6046000000000  0.4915990000000  0.5626910000000 1.0
C      1  0.5205250000000  0.5200290000000  0.4832540000000 1.0
C      1  0.4937750000000  0.5678050000000  0.5166180000000 1.0
C      1  0.4768970000000  0.5272000000000  0.5915650000000 1.0
C      1  0.5181790000000  0.5524010000000  0.5795080000000 1.0
C      1  0.3935320000000  0.5065530000000  0.5023890000000 1.0
C      1  0.5536270000000  0.4686050000000  0.3965940000000 1.0
C      1  0.4686850000000  0.5946090000000  0.4872540000000 1.0
C      1  0.4597100000000  0.5535630000000  0.4216470000000 1.0
C      1  0.5401960000000  0.5131560000000  0.5281330000000 1.0
C      1  0.4063560000000  0.5536240000000  0.4852980000000 1.0
C      1  0.4132880000000  0.4052010000000  0.4974710000000 1.0
C      1  0.4491400000000  0.5096350000000  0.5237810000000 1.0
C      1  0.4936130000000  0.5316650000000  0.5433280000000 1.0
C      1  0.4818530000000  0.5931600000000  0.5130000000000 1.0
C      1  0.5776600000000  0.5301090000000  0.5710840000000 1.0
C      1  0.4739860000000  0.4503640000000  0.4903420000000 1.0
C      1  0.5371530000000  0.6035780000000  0.5038060000000 1.0
C      1  0.6175850000000  0.4306610000000  0.4610260000000 1.0
C      1  0.4728280000000  0.4824020000000  0.3841170000000 1.0
C      1  0.6145280000000  0.4975270000000  0.5354000000000 1.0
C      1  0.4510680000000  0.5372820000000  0.5779000000000 1.0
C      1  0.5608220000000  0.5040980000000  0.5680010000000 1.0
C      1  0.6162050000000  0.4943700000000  0.4774460000000 1.0
C      1  0.4552720000000  0.5351900000000  0.5138530000000 1.0
C      1  0.5687620000000  0.5717460000000  0.5031620000000 1.0
C      1  0.4013510000000  0.5261970000000  0.4824780000000 1.0
C      1  0.5739190000000  0.4756510000000  0.4926310000000 1.0
C      1  0.4645610000000  0.5140680000000  0.3425400000000 1.0
C      1  0.4588030000000  0.3971540000000  0.5185340000000 1.0
C      1  0.4409490000000  0.5875520000000  0.4887690000000 1.0
C      1  0.4711890000000  0.5700600000000  0.4425090000000 1.0
C      1  0.5822880000000  0.5971750000000  0.5085280000000 1.0
C      1  0.5653840000000  0.4063000000000  0.4915310000000 1.0
C      1  0.5654740000000  0.5200810000000  0.5216380000000 1.0
C      1  0.5239440000000  0.3800670000000  0.4895030000000 1.0
C      1  0.5883570000000  0.3913970000000  0.4914310000000 1.0
C      1  0.5713710000000  0.4285510000000  0.5338150000000 1.0
C      1  0.4085270000000  0.4208080000000  0.4742060000000 1.0
C      1  0.5401320000000  0.5739980000000  0.5077220000000 1.0
C      1  0.4188300000000  0.4125060000000  0.4283180000000 1.0
C      1  0.5331630000000  0.5825350000000  0.4432810000000 1.0
C      1  0.4542250000000  0.5679030000000  0.5730060000000 1.0
C      1  0.4986200000000  0.5329470000000  0.4720580000000 1.0
C      1  0.5780620000000  0.4807330000000  0.5732510000000 1.0
C      1  0.5136160000000  0.4845090000000  0.5503220000000 1.0
C      1  0.5126260000000  0.5936150000000  0.4608530000000 1.0
C      1  0.3928800000000  0.4724190000000  0.4644110000000 1.0
C      1  0.4668460000000  0.4012930000000  0.4708880000000 1.0
C      1  0.5361850000000  0.4730230000000  0.6016330000000 1.0
C      1  0.6050100000000  0.5176440000000  0.5769490000000 1.0
C      1  0.4684940000000  0.4970970000000  0.3625080000000 1.0
C      1  0.4339640000000  0.5034870000000  0.4223410000000 1.0
C      1  0.4735170000000  0.3891350000000  0.4954830000000 1.0
C      1  0.4634050000000  0.4403730000000  0.4429520000000 1.0
C      1  0.4666160000000  0.4976830000000  0.4698410000000 1.0
C      1  0.5181220000000  0.4014900000000  0.5612700000000 1.0
C      1  0.4458090000000  0.5282120000000  0.4234630000000 1.0
C      1  0.5439700000000  0.4041300000000  0.5672710000000 1.0
C      1  0.5596110000000  0.5736770000000  0.4513080000000 1.0
C      1  0.4766680000000  0.5474810000000  0.5265640000000 1.0
C      1  0.4094210000000  0.5235230000000  0.5508050000000 1.0
C      1  0.4577300000000  0.5502180000000  0.3049790000000 1.0
C      1  0.5165160000000  0.5483030000000  0.5512000000000 1.0
C      1  0.5415460000000  0.5555210000000  0.5942690000000 1.0
C      1  0.5425300000000  0.5187090000000  0.4649870000000 1.0
C      1  0.4965460000000  0.5040960000000  0.5316910000000 1.0
C      1  0.5151310000000  0.4562000000000  0.4411620000000 1.0
C      1  0.4974260000000  0.4118720000000  0.5454470000000 1.0
C      1  0.5709990000000  0.5035340000000  0.4990700000000 1.0
C      1  0.5126120000000  0.4869330000000  0.6031080000000 1.0
C      1  0.5226910000000  0.6108070000000  0.4811820000000 1.0
C      1  0.4292960000000  0.4896050000000  0.6098290000000 1.0
C      1  0.3954680000000  0.5144760000000  0.5295170000000 1.0
C      1  0.5209970000000  0.5635240000000  0.5255470000000 1.0
C      1  0.4344750000000  0.5605460000000  0.4794610000000 1.0
C      1  0.5613520000000  0.4664970000000  0.5921180000000 1.0
C      1  0.4275830000000  0.4927080000000  0.5826490000000 1.0
C      1  0.5270530000000  0.4307270000000  0.4405180000000 1.0
C      1  0.4839330000000  0.5870590000000  0.4624080000000 1.0
C      1  0.4110310000000  0.4314410000000  0.4477110000000 1.0
C      1  0.4471310000000  0.4562320000000  0.5039010000000 1.0
C      1  0.5910020000000  0.5363190000000  0.4720970000000 1.0
C      1  0.4610330000000  0.5321690000000  0.3235000000000 1.0
C      1  0.5277010000000  0.5825960000000  0.4162420000000 1.0
C      1  0.5179200000000  0.5104260000000  0.5103310000000 1.0
C      1  0.5348930000000  0.5249060000000  0.4123340000000 1.0
C      1  0.4839230000000  0.4757230000000  0.4738900000000 1.0
C      1  0.5980810000000  0.4720380000000  0.4765760000000 1.0
C      1  0.4293700000000  0.4748900000000  0.4922000000000 1.0
C      1  0.4202720000000  0.5922210000000  0.5096650000000 1.0
C      1  0.5652480000000  0.4163700000000  0.5567440000000 1.0
C      1  0.5529260000000  0.5999890000000  0.5471290000000 1.0
C      1  0.5264830000000  0.6070500000000  0.5563540000000 1.0
C      1  0.5270200000000  0.4709100000000  0.3976450000000 1.0
C      1  0.5534680000000  0.4550740000000  0.4963720000000 1.0
C      1  0.4199220000000  0.5131750000000  0.4649570000000 1.0
C      1  0.4615600000000  0.3854250000000  0.5658380000000 1.0
C      1  0.6152790000000  0.5217270000000  0.5176480000000 1.0
C      1  0.6075750000000  0.6051590000000  0.5033880000000 1.0
C      1  0.3979060000000  0.5752920000000  0.5020820000000 1.0
C      1  0.4625360000000  0.5635210000000  0.3959940000000 1.0
C      1  0.4515700000000  0.5880460000000  0.5516250000000 1.0
C      1  0.4391800000000  0.4935440000000  0.4729620000000 1.0
C      1  0.6064210000000  0.5453790000000  0.5315550000000 1.0
C      1  0.5598540000000  0.6121370000000  0.5209890000000 1.0
C      1  0.4691710000000  0.4295500000000  0.4682840000000 1.0
C      1  0.5681960000000  0.5189180000000  0.4756190000000 1.0
C      1  0.4003050000000  0.4799160000000  0.4918150000000 1.0
C      1  0.4228750000000  0.4700050000000  0.5661460000000 1.0
C      1  0.4932070000000  0.5516150000000  0.5932760000000 1.0
C      1  0.4555510000000  0.3872330000000  0.4491930000000 1.0
C      1  0.5636670000000  0.4302910000000  0.5068900000000 1.0
C      1  0.4367980000000  0.3924970000000  0.4306020000000 1.0
C      1  0.4572010000000  0.4610540000000  0.4252690000000 1.0
C      1  0.5061650000000  0.4669650000000  0.4162290000000 1.0
C      1  0.4979280000000  0.6066310000000  0.5599860000000 1.0
C      1  0.4763070000000  0.6012910000000  0.5406160000000 1.0
C      1  0.5013840000000  0.4445150000000  0.5062470000000 1.0
C      1  0.4725970000000  0.3979250000000  0.5434490000000 1.0
C      1  0.4534650000000  0.5407240000000  0.4861240000000 1.0
C      1  0.5012920000000  0.4378050000000  0.5341100000000 1.0
C      1  0.3975470000000  0.3834190000000  0.5027360000000 1.0
C      1  0.4283380000000  0.5937510000000  0.5365700000000 1.0
C      1  0.5761170000000  0.4633100000000  0.4098370000000 1.0
C      1  0.5364200000000  0.4092440000000  0.4529740000000 1.0
C      1  0.6017770000000  0.4524880000000  0.4564410000000 1.0
C      1  0.5909450000000  0.4570290000000  0.4309670000000 1.0
C      1  0.4978120000000  0.4601060000000  0.5514190000000 1.0
C      1  0.4506230000000  0.3744340000000  0.5867820000000 1.0
C      1  0.4317780000000  0.4750240000000  0.4286570000000 1.0
C      1  0.4892840000000  0.5999400000000  0.5864130000000 1.0
C      1  0.5247610000000  0.4561770000000  0.4906810000000 1.0
C      1  0.4687420000000  0.4927170000000  0.5339860000000 1.0
C      1  0.5380600000000  0.4991180000000  0.5525980000000 1.0
C      1  0.5665010000000  0.5738170000000  0.5504560000000 1.0
C      1  0.4786700000000  0.4704170000000  0.4087200000000 1.0
C      1  0.4357890000000  0.4393330000000  0.5238880000000 1.0
C      1  0.4254430000000  0.4507960000000  0.5475170000000 1.0
C      1  0.4910360000000  0.5031990000000  0.5986520000000 1.0
C      1  0.5667380000000  0.5466870000000  0.5926630000000 1.0
C      1  0.5789800000000  0.5449780000000  0.5438150000000 1.0
C      1  0.4291440000000  0.5191880000000  0.5709740000000 1.0
C      1  0.5384170000000  0.5186590000000  0.4373940000000 1.0
C      1  0.4769880000000  0.5749490000000  0.5907020000000 1.0
C      1  0.5113330000000  0.4678040000000  0.4669060000000 1.0
C      1  0.4985220000000  0.3765250000000  0.4967670000000 1.0
C      1  0.4100850000000  0.4603230000000  0.4441210000000 1.0
C      1  0.4708600000000  0.4700230000000  0.5507400000000 1.0
C      1  0.4344700000000  0.4121290000000  0.5155380000000 1.0
C      1  0.4722680000000  0.5253970000000  0.4713950000000 1.0
C      1  0.6124750000000  0.5211710000000  0.4878590000000 1.0
C      1  0.5824510000000  0.5600960000000  0.4584090000000 1.0
C      1  0.5425770000000  0.3971200000000  0.4774190000000 1.0
END
