TITL C-627109-622-2037 0.000118719904823962 125000 -805.370914804236 0 0 130 (C1) n - 1
REM
REM in /home/nfs/bkarasulu/CARBON/AIRSS/Generating-Clusters/LCBOP/Only-C1/SD-CG/FIRE-CG
REM
REM
REM
REM
REM
REM ./C.cell (11c1c37f851c82e70ff6c80c92926a4b)
REM AIRSS Version 0.9.1 bugfix July 2018 build 013d7b7c2542+ Fri, 06 Jul 2018 19:26:36 +0100
REM compiler GCC version 9.2.1 20190827 (Red Hat 9.2.1-1)
REM options -cpp -mtune=generic -march=x86-64 -g -O0 -fpre-include=/usr/include/finclude/math-vector-fortran.h
REM seed 1564914057 -1972662853 162393545 -895834850 1103363440 938402002 -1734269088 695980428 604261513 -1821552931 -817041452 -115262111 515679584 1089368769 1236381621 1425240813 -543576483 1759411797 1987810401 -1183131657 -1941225681 315065655 847813560 -1798904119 123835376 311752479 -1850310187 -1526713616 1790659263 1839589906 1223694631 1723539139 -687525311
REM
CELL 1.54180   50.00000   50.00000   50.00000   90.00000   90.00000   90.00000
LATT -1
SFAC C  
C      1  0.5894300000000  0.4914530000000  0.3672220000000 1.0
C      1  0.5556450000000  0.4477280000000  0.5609600000000 1.0
C      1  0.5258400000000  0.5573020000000  0.5224520000000 1.0
C      1  0.5358430000000  0.5482420000000  0.5470840000000 1.0
C      1  0.4298510000000  0.4207680000000  0.5677450000000 1.0
C      1  0.4851470000000  0.5407480000000  0.4355160000000 1.0
C      1  0.5129780000000  0.6010500000000  0.5613730000000 1.0
C      1  0.5655870000000  0.5436340000000  0.4748550000000 1.0
C      1  0.4901440000000  0.4943430000000  0.5070020000000 1.0
C      1  0.5628980000000  0.6017520000000  0.5542370000000 1.0
C      1  0.4256730000000  0.5816050000000  0.4238520000000 1.0
C      1  0.5031220000000  0.4986210000000  0.5318930000000 1.0
C      1  0.4907460000000  0.5556320000000  0.4894590000000 1.0
C      1  0.4619420000000  0.4875020000000  0.5067460000000 1.0
C      1  0.4468920000000  0.5677260000000  0.4357820000000 1.0
C      1  0.5401590000000  0.5779430000000  0.5090210000000 1.0
C      1  0.4716650000000  0.4417930000000  0.5229600000000 1.0
C      1  0.4176480000000  0.4080810000000  0.5467310000000 1.0
C      1  0.4597750000000  0.5616240000000  0.5370660000000 1.0
C      1  0.5502200000000  0.5197950000000  0.4766010000000 1.0
C      1  0.5789410000000  0.4839610000000  0.4583800000000 1.0
C      1  0.5605710000000  0.4205310000000  0.5545430000000 1.0
C      1  0.6281010000000  0.5334790000000  0.5093950000000 1.0
C      1  0.4484020000000  0.5923800000000  0.4837570000000 1.0
C      1  0.5292430000000  0.6017940000000  0.4993590000000 1.0
C      1  0.4846690000000  0.4446630000000  0.4479770000000 1.0
C      1  0.4510120000000  0.5703060000000  0.4654630000000 1.0
C      1  0.5097140000000  0.6196330000000  0.4963290000000 1.0
C      1  0.5270490000000  0.4469470000000  0.3964390000000 1.0
C      1  0.4786140000000  0.5041540000000  0.5730260000000 1.0
C      1  0.4158940000000  0.5498410000000  0.5109010000000 1.0
C      1  0.5569530000000  0.4418790000000  0.4508170000000 1.0
C      1  0.4680550000000  0.5340980000000  0.3949710000000 1.0
C      1  0.5063690000000  0.5569620000000  0.4437210000000 1.0
C      1  0.4609890000000  0.5219210000000  0.4720590000000 1.0
C      1  0.4590480000000  0.5159530000000  0.5889420000000 1.0
C      1  0.4993290000000  0.4617990000000  0.5579680000000 1.0
C      1  0.5227970000000  0.4750780000000  0.4015650000000 1.0
C      1  0.4812690000000  0.5421930000000  0.5361130000000 1.0
C      1  0.5628070000000  0.4290890000000  0.4772970000000 1.0
C      1  0.4797840000000  0.4707610000000  0.4361790000000 1.0
C      1  0.4100520000000  0.5345290000000  0.4895220000000 1.0
C      1  0.4880030000000  0.5167990000000  0.5489250000000 1.0
C      1  0.5237330000000  0.5117910000000  0.4691050000000 1.0
C      1  0.4998790000000  0.4108290000000  0.4162170000000 1.0
C      1  0.4745540000000  0.4685890000000  0.4072790000000 1.0
C      1  0.4841310000000  0.5122840000000  0.3885930000000 1.0
C      1  0.4772850000000  0.4251720000000  0.4258790000000 1.0
C      1  0.4051890000000  0.4471300000000  0.4827550000000 1.0
C      1  0.4899790000000  0.3785890000000  0.4963350000000 1.0
C      1  0.4543710000000  0.4652090000000  0.5235090000000 1.0
C      1  0.4463400000000  0.5033440000000  0.4885370000000 1.0
C      1  0.4692690000000  0.4219340000000  0.5023760000000 1.0
C      1  0.5447000000000  0.4016710000000  0.5406210000000 1.0
C      1  0.5313960000000  0.5419800000000  0.6136570000000 1.0
C      1  0.5689820000000  0.5560830000000  0.4493490000000 1.0
C      1  0.5412190000000  0.5628310000000  0.5706150000000 1.0
C      1  0.5702230000000  0.5026740000000  0.5915440000000 1.0
C      1  0.5630970000000  0.4946650000000  0.4796560000000 1.0
C      1  0.4913970000000  0.4058650000000  0.4944000000000 1.0
C      1  0.5779120000000  0.4433230000000  0.4980930000000 1.0
C      1  0.5191650000000  0.4761250000000  0.5419290000000 1.0
C      1  0.5201070000000  0.5000340000000  0.4427030000000 1.0
C      1  0.4365630000000  0.4473670000000  0.5664420000000 1.0
C      1  0.4643910000000  0.5507710000000  0.4188970000000 1.0
C      1  0.4916360000000  0.4948370000000  0.4426450000000 1.0
C      1  0.4081720000000  0.4517370000000  0.5290950000000 1.0
C      1  0.6054600000000  0.5450050000000  0.5036010000000 1.0
C      1  0.5684850000000  0.5762470000000  0.5117740000000 1.0
C      1  0.5256570000000  0.4917140000000  0.6089950000000 1.0
C      1  0.4682570000000  0.5891320000000  0.5323340000000 1.0
C      1  0.4170120000000  0.4230760000000  0.4951000000000 1.0
C      1  0.4947800000000  0.4857390000000  0.3946910000000 1.0
C      1  0.4052950000000  0.5946340000000  0.4130450000000 1.0
C      1  0.5084820000000  0.5647100000000  0.4693890000000 1.0
C      1  0.4109830000000  0.4894080000000  0.4591830000000 1.0
C      1  0.4885530000000  0.5993850000000  0.5499000000000 1.0
C      1  0.5310570000000  0.4341640000000  0.4423670000000 1.0
C      1  0.5869240000000  0.5094000000000  0.3859640000000 1.0
C      1  0.5508310000000  0.4830200000000  0.5968000000000 1.0
C      1  0.5374380000000  0.4838430000000  0.4262570000000 1.0
C      1  0.3852170000000  0.6074540000000  0.4024550000000 1.0
C      1  0.5707300000000  0.5295980000000  0.5902980000000 1.0
C      1  0.3986990000000  0.4642060000000  0.5057180000000 1.0
C      1  0.3588000000000  0.5170890000000  0.5333020000000 1.0
C      1  0.3773340000000  0.5059810000000  0.5187280000000 1.0
C      1  0.5456990000000  0.4635350000000  0.5389270000000 1.0
C      1  0.5829450000000  0.5262390000000  0.4060430000000 1.0
C      1  0.5776320000000  0.5924660000000  0.5332160000000 1.0
C      1  0.4651120000000  0.4417190000000  0.4050860000000 1.0
C      1  0.5589830000000  0.4599740000000  0.5135400000000 1.0
C      1  0.5350710000000  0.4382390000000  0.6041650000000 1.0
C      1  0.4205350000000  0.5420870000000  0.6133300000000 1.0
C      1  0.5419660000000  0.4120610000000  0.4890340000000 1.0
C      1  0.5073130000000  0.4929350000000  0.4852990000000 1.0
C      1  0.5612790000000  0.4695260000000  0.4403350000000 1.0
C      1  0.5392960000000  0.5911160000000  0.5662600000000 1.0
C      1  0.5102920000000  0.4469960000000  0.6117790000000 1.0
C      1  0.4974220000000  0.4130370000000  0.5537340000000 1.0
C      1  0.4883630000000  0.4384120000000  0.5460620000000 1.0
C      1  0.5469050000000  0.4743580000000  0.4924100000000 1.0
C      1  0.6030290000000  0.4720070000000  0.4677450000000 1.0
C      1  0.4767450000000  0.5170960000000  0.4491880000000 1.0
C      1  0.4098850000000  0.4226620000000  0.5237560000000 1.0
C      1  0.5142680000000  0.4183600000000  0.4834080000000 1.0
C      1  0.5105600000000  0.4418740000000  0.4644210000000 1.0
C      1  0.4397340000000  0.5288270000000  0.6017040000000 1.0
C      1  0.4320820000000  0.4614170000000  0.5417730000000 1.0
C      1  0.5480370000000  0.3981520000000  0.5128630000000 1.0
C      1  0.5650740000000  0.5830190000000  0.4463580000000 1.0
C      1  0.4635180000000  0.6021940000000  0.5063400000000 1.0
C      1  0.5189960000000  0.3973380000000  0.5513880000000 1.0
C      1  0.3966560000000  0.4920170000000  0.5041970000000 1.0
C      1  0.4441190000000  0.4170870000000  0.4903260000000 1.0
C      1  0.4997900000000  0.5500840000000  0.5153530000000 1.0
C      1  0.4646600000000  0.5489760000000  0.4795170000000 1.0
C      1  0.6024070000000  0.4544640000000  0.4887370000000 1.0
C      1  0.4898130000000  0.4781320000000  0.5797870000000 1.0
C      1  0.5205820000000  0.4673830000000  0.4816790000000 1.0
C      1  0.5803290000000  0.5550800000000  0.4969310000000 1.0
C      1  0.4158220000000  0.5054260000000  0.4847380000000 1.0
C      1  0.4332660000000  0.5551470000000  0.5305280000000 1.0
C      1  0.4081200000000  0.4621500000000  0.4590450000000 1.0
C      1  0.5497370000000  0.5485220000000  0.5932000000000 1.0
C      1  0.4832110000000  0.6214320000000  0.4995870000000 1.0
C      1  0.5224890000000  0.5173560000000  0.6198510000000 1.0
C      1  0.5769750000000  0.5406410000000  0.4274550000000 1.0
C      1  0.5514690000000  0.4555060000000  0.5880700000000 1.0
C      1  0.5235900000000  0.4264510000000  0.4161090000000 1.0
C      1  0.5036710000000  0.4737670000000  0.6043850000000 1.0
END
