TITL C-627107-135-1536 58301.1753612549 125000 -1210.9968312173 0 0 198 (C1) n - 1
REM
REM in /home/nfs/bkarasulu/CARBON/AIRSS/Generating-Clusters/LCBOP/Only-C1/SD-CG/FIRE-CG
REM
REM
REM
REM
REM
REM ./C.cell (11c1c37f851c82e70ff6c80c92926a4b)
REM AIRSS Version 0.9.1 bugfix July 2018 build 013d7b7c2542+ Fri, 06 Jul 2018 19:26:36 +0100
REM compiler GCC version 9.2.1 20190827 (Red Hat 9.2.1-1)
REM options -cpp -mtune=generic -march=x86-64 -g -O0 -fpre-include=/usr/include/finclude/math-vector-fortran.h
REM seed 1767031313 576155239 -498037852 116455363 -1706790199 602393060 350265533 1026688893 -704574860 441839844 -841629636 2043069245 -1165729586 -152420666 1621411917 1992391461 1856003765 230070011 1594580638 2087362271 1489443224 -424276206 530017764 -1634948306 93812575 113442647 811875960 -1585673830 -1702435473 47040834 -72491532 -1505257332 -1254695203
REM
CELL 1.54180   50.00000   50.00000   50.00000   90.00000   90.00000   90.00000
LATT -1
SFAC C  
C      1  0.4559140000000  0.5615140000000  0.4421440000000 1.0
C      1  0.4556750000000  0.5041080000000  0.5831640000000 1.0
C      1  0.5240050000000  0.4554500000000  0.4013910000000 1.0
C      1  0.4073440000000  0.5002130000000  0.4917190000000 1.0
C      1  0.5469690000000  0.5193630000000  0.3722590000000 1.0
C      1  0.3904130000000  0.4983540000000  0.4390370000000 1.0
C      1  0.5406320000000  0.4026450000000  0.5201020000000 1.0
C      1  0.5901430000000  0.4244700000000  0.5574420000000 1.0
C      1  0.5292940000000  0.4956350000000  0.4302190000000 1.0
C      1  0.5612360000000  0.5656260000000  0.4196300000000 1.0
C      1  0.6090330000000  0.4694030000000  0.4628980000000 1.0
C      1  0.4358810000000  0.4441250000000  0.5851600000000 1.0
C      1  0.4240290000000  0.4012630000000  0.5221780000000 1.0
C      1  0.5908100000000  0.4159690000000  0.5103000000000 1.0
C      1  0.4250590000000  0.4214160000000  0.5433180000000 1.0
C      1  0.4301770000000  0.5623930000000  0.4995980000000 1.0
C      1  0.5439800000000  0.4372310000000  0.5829720000000 1.0
C      1  0.4981950000000  0.4712280000000  0.4002190000000 1.0
C      1  0.5243900000000  0.5739440000000  0.4809110000000 1.0
C      1  0.5256970000000  0.4630190000000  0.4836260000000 1.0
C      1  0.5144340000000  0.5687170000000  0.3947660000000 1.0
C      1  0.5569100000000  0.5806790000000  0.4438220000000 1.0
C      1  0.4949260000000  0.6523810000000  0.4562810000000 1.0
C      1  0.4464930000000  0.5049510000000  0.3917960000000 1.0
C      1  0.6212630000000  0.4776540000000  0.5104540000000 1.0
C      1  0.5250900000000  0.4409600000000  0.5612040000000 1.0
C      1  0.4490130000000  0.4504080000000  0.4631800000000 1.0
C      1  0.4857650000000  0.5331360000000  0.5418530000000 1.0
C      1  0.4960670000000  0.3982930000000  0.5550830000000 1.0
C      1  0.5986560000000  0.4796030000000  0.5590890000000 1.0
C      1  0.4814580000000  0.6306870000000  0.4614920000000 1.0
C      1  0.6018930000000  0.5534870000000  0.5214980000000 1.0
C      1  0.4860530000000  0.4047290000000  0.4982770000000 1.0
C      1  0.6002300000000  0.4762530000000  0.4357590000000 1.0
C      1  0.6016000000000  0.5650260000000  0.4727160000000 1.0
C      1  0.5055390000000  0.6086080000000  0.5544370000000 1.0
C      1  0.5404300000000  0.4918420000000  0.5755550000000 1.0
C      1  0.4938980000000  0.5310670000000  0.4867270000000 1.0
C      1  0.4091490000000  0.4283280000000  0.4463790000000 1.0
C      1  0.4752310000000  0.5837410000000  0.4507150000000 1.0
C      1  0.4920370000000  0.4742980000000  0.5732110000000 1.0
C      1  0.5027960000000  0.5402740000000  0.6400420000000 1.0
C      1  0.4933330000000  0.4443710000000  0.5624480000000 1.0
C      1  0.4251010000000  0.4684950000000  0.5907240000000 1.0
C      1  0.4408840000000  0.5687520000000  0.5228770000000 1.0
C      1  0.3993060000000  0.4289820000000  0.4746000000000 1.0
C      1  0.4501090000000  0.4042640000000  0.4550640000000 1.0
C      1  0.4475500000000  0.3825140000000  0.5212780000000 1.0
C      1  0.4456670000000  0.4241000000000  0.5660070000000 1.0
C      1  0.4333000000000  0.5131920000000  0.5322760000000 1.0
C      1  0.5958080000000  0.5083900000000  0.5632550000000 1.0
C      1  0.5073570000000  0.4193180000000  0.4863750000000 1.0
C      1  0.4208350000000  0.5465870000000  0.5914040000000 1.0
C      1  0.4460360000000  0.5587270000000  0.5501110000000 1.0
C      1  0.4641050000000  0.5287300000000  0.5950600000000 1.0
C      1  0.5229250000000  0.4465870000000  0.4286290000000 1.0
C      1  0.5318010000000  0.4554670000000  0.5356570000000 1.0
C      1  0.5817120000000  0.5333230000000  0.5200150000000 1.0
C      1  0.4548290000000  0.5305860000000  0.5425700000000 1.0
C      1  0.6148120000000  0.5402530000000  0.4661910000000 1.0
C      1  0.3962410000000  0.6101050000000  0.4498440000000 1.0
C      1  0.4817250000000  0.3508390000000  0.4678890000000 1.0
C      1  0.3945000000000  0.4920970000000  0.5169550000000 1.0
C      1  0.5335570000000  0.4198720000000  0.4983800000000 1.0
C      1  0.4742040000000  0.3794270000000  0.5083530000000 1.0
C      1  0.4809670000000  0.3559930000000  0.4942610000000 1.0
C      1  0.4227900000000  0.5691610000000  0.5682590000000 1.0
C      1  0.4417880000000  0.4774420000000  0.4646150000000 1.0
C      1  0.4540070000000  0.6096310000000  0.4948940000000 1.0
C      1  0.5537060000000  0.4787600000000  0.4334170000000 1.0
C      1  0.5617140000000  0.5355760000000  0.5406160000000 1.0
C      1  0.4405330000000  0.4584320000000  0.5226760000000 1.0
C      1  0.4926390000000  0.4884350000000  0.5187810000000 1.0
C      1  0.5085730000000  0.4971820000000  0.3969040000000 1.0
C      1  0.5327910000000  0.5397670000000  0.3589730000000 1.0
C      1  0.4945590000000  0.5562060000000  0.5286460000000 1.0
C      1  0.5927470000000  0.4218040000000  0.4814200000000 1.0
C      1  0.3941000000000  0.4646370000000  0.5264090000000 1.0
C      1  0.5425280000000  0.4576900000000  0.6050120000000 1.0
C      1  0.6117220000000  0.5814570000000  0.5910430000000 1.0
C      1  0.4698280000000  0.4295430000000  0.4058430000000 1.0
C      1  0.4162670000000  0.4477830000000  0.5329310000000 1.0
C      1  0.4456190000000  0.4384160000000  0.4172780000000 1.0
C      1  0.5417170000000  0.5436980000000  0.6093400000000 1.0
C      1  0.6228610000000  0.5155030000000  0.4742580000000 1.0
C      1  0.4806980000000  0.4502960000000  0.3899260000000 1.0
C      1  0.5121020000000  0.4962020000000  0.5734230000000 1.0
C      1  0.5812900000000  0.5070180000000  0.5083010000000 1.0
C      1  0.5242370000000  0.5274970000000  0.6263060000000 1.0
C      1  0.4389560000000  0.4286150000000  0.4438540000000 1.0
C      1  0.4630010000000  0.4213610000000  0.4983410000000 1.0
C      1  0.5124650000000  0.4018790000000  0.4193710000000 1.0
C      1  0.5461340000000  0.4691980000000  0.3871420000000 1.0
C      1  0.5468640000000  0.4451210000000  0.4914620000000 1.0
C      1  0.5731090000000  0.4380370000000  0.5749140000000 1.0
C      1  0.4065510000000  0.5260230000000  0.4802060000000 1.0
C      1  0.5280430000000  0.4722330000000  0.6247670000000 1.0
C      1  0.4872470000000  0.6139540000000  0.5356620000000 1.0
C      1  0.5610340000000  0.5336820000000  0.5908960000000 1.0
C      1  0.5690610000000  0.3986000000000  0.5194570000000 1.0
C      1  0.5073660000000  0.4640930000000  0.5221770000000 1.0
C      1  0.4752080000000  0.5363770000000  0.4046020000000 1.0
C      1  0.4690240000000  0.4882100000000  0.5635180000000 1.0
C      1  0.5195120000000  0.3957510000000  0.5397480000000 1.0
C      1  0.4014270000000  0.4518390000000  0.4295260000000 1.0
C      1  0.3861230000000  0.4705690000000  0.4468520000000 1.0
C      1  0.4284200000000  0.5440040000000  0.4789790000000 1.0
C      1  0.5817670000000  0.4657840000000  0.5785820000000 1.0
C      1  0.3833770000000  0.4545170000000  0.4727120000000 1.0
C      1  0.5040000000000  0.5808470000000  0.4409180000000 1.0
C      1  0.5754830000000  0.5225490000000  0.4362580000000 1.0
C      1  0.4702360000000  0.5671240000000  0.5673090000000 1.0
C      1  0.4866760000000  0.4467160000000  0.5319610000000 1.0
C      1  0.5294800000000  0.5083300000000  0.5064390000000 1.0
C      1  0.5378190000000  0.4032310000000  0.4295130000000 1.0
C      1  0.4766930000000  0.4184280000000  0.5666850000000 1.0
C      1  0.4244300000000  0.6120320000000  0.4956180000000 1.0
C      1  0.4691960000000  0.3912020000000  0.4387530000000 1.0
C      1  0.5667220000000  0.5845790000000  0.6155310000000 1.0
C      1  0.4750300000000  0.5126970000000  0.3897230000000 1.0
C      1  0.5169410000000  0.5986490000000  0.5764800000000 1.0
C      1  0.4840150000000  0.4069060000000  0.4190350000000 1.0
C      1  0.4884550000000  0.4777560000000  0.4357170000000 1.0
C      1  0.5776490000000  0.4105770000000  0.4596880000000 1.0
C      1  0.5271240000000  0.5053750000000  0.4574290000000 1.0
C      1  0.4166480000000  0.4115240000000  0.4939060000000 1.0
C      1  0.6089490000000  0.4639030000000  0.5339850000000 1.0
C      1  0.4167250000000  0.5085400000000  0.4308780000000 1.0
C      1  0.5074190000000  0.5184720000000  0.5538000000000 1.0
C      1  0.4431340000000  0.5433090000000  0.6096860000000 1.0
C      1  0.3969260000000  0.5733110000000  0.5523210000000 1.0
C      1  0.5258430000000  0.4990230000000  0.6294970000000 1.0
C      1  0.5921490000000  0.5872360000000  0.6081140000000 1.0
C      1  0.3858880000000  0.6029800000000  0.4270030000000 1.0
C      1  0.5809110000000  0.5799130000000  0.4597330000000 1.0
C      1  0.5336180000000  0.4958030000000  0.3803350000000 1.0
C      1  0.4692940000000  0.6063130000000  0.4697730000000 1.0
C      1  0.4956020000000  0.5349800000000  0.4246100000000 1.0
C      1  0.5488540000000  0.4940910000000  0.5490400000000 1.0
C      1  0.4747300000000  0.5246590000000  0.4666270000000 1.0
C      1  0.5746570000000  0.5286590000000  0.5665080000000 1.0
C      1  0.4282950000000  0.4967720000000  0.5885780000000 1.0
C      1  0.6203070000000  0.5704260000000  0.5684180000000 1.0
C      1  0.6001010000000  0.4344390000000  0.5320940000000 1.0
C      1  0.5687120000000  0.5281860000000  0.3879670000000 1.0
C      1  0.4374610000000  0.6125880000000  0.5416380000000 1.0
C      1  0.5777200000000  0.4941500000000  0.4360120000000 1.0
C      1  0.5741910000000  0.4634620000000  0.3922850000000 1.0
C      1  0.3941600000000  0.5174700000000  0.5611650000000 1.0
C      1  0.4049260000000  0.5107410000000  0.5363450000000 1.0
C      1  0.4629880000000  0.4418820000000  0.5173860000000 1.0
C      1  0.4768370000000  0.3650470000000  0.4456740000000 1.0
C      1  0.4518870000000  0.5418230000000  0.4632990000000 1.0
C      1  0.4086030000000  0.6142010000000  0.4729230000000 1.0
C      1  0.5592020000000  0.4783650000000  0.5919950000000 1.0
C      1  0.4433660000000  0.4087420000000  0.4822370000000 1.0
C      1  0.5201070000000  0.5895790000000  0.6030300000000 1.0
C      1  0.4340340000000  0.4857140000000  0.4384130000000 1.0
C      1  0.5007930000000  0.4546510000000  0.4460540000000 1.0
C      1  0.4616890000000  0.6133960000000  0.5240380000000 1.0
C      1  0.4810450000000  0.5491150000000  0.5847410000000 1.0
C      1  0.5078400000000  0.5608210000000  0.4210110000000 1.0
C      1  0.6211040000000  0.4879750000000  0.4822920000000 1.0
C      1  0.5315220000000  0.4906220000000  0.4822250000000 1.0
C      1  0.5296090000000  0.5857270000000  0.4551570000000 1.0
C      1  0.4339320000000  0.4792560000000  0.3909080000000 1.0
C      1  0.5381190000000  0.5176090000000  0.5351050000000 1.0
C      1  0.4449810000000  0.4879600000000  0.5191410000000 1.0
C      1  0.4526140000000  0.5514390000000  0.6348850000000 1.0
C      1  0.6046630000000  0.5709990000000  0.4999530000000 1.0
C      1  0.4101260000000  0.5196720000000  0.5843070000000 1.0
C      1  0.5711570000000  0.4800050000000  0.5107140000000 1.0
C      1  0.4699550000000  0.4892130000000  0.5345720000000 1.0
C      1  0.6164720000000  0.5589330000000  0.5447550000000 1.0
C      1  0.5501090000000  0.4492090000000  0.4382200000000 1.0
C      1  0.4862680000000  0.5119870000000  0.4426630000000 1.0
C      1  0.5030490000000  0.5990840000000  0.6222960000000 1.0
C      1  0.4776760000000  0.5485780000000  0.6447460000000 1.0
C      1  0.4318900000000  0.5239290000000  0.4112730000000 1.0
C      1  0.4326510000000  0.5998550000000  0.5679680000000 1.0
C      1  0.4345810000000  0.4894960000000  0.4895870000000 1.0
C      1  0.5577510000000  0.4206600000000  0.4417090000000 1.0
C      1  0.5359010000000  0.5315290000000  0.4639890000000 1.0
C      1  0.5416900000000  0.5725830000000  0.6106820000000 1.0
C      1  0.5541230000000  0.4728140000000  0.5325720000000 1.0
C      1  0.3941210000000  0.5926590000000  0.5329830000000 1.0
C      1  0.5936200000000  0.4501090000000  0.4770130000000 1.0
C      1  0.5047010000000  0.4460800000000  0.4725970000000 1.0
C      1  0.5633330000000  0.5335870000000  0.4594780000000 1.0
C      1  0.4505390000000  0.5467740000000  0.4164830000000 1.0
C      1  0.5713390000000  0.4595260000000  0.4917660000000 1.0
C      1  0.5207640000000  0.5611530000000  0.3699200000000 1.0
C      1  0.5172950000000  0.5467610000000  0.4793630000000 1.0
C      1  0.5715670000000  0.5395290000000  0.4134050000000 1.0
C      1  0.5006580000000  0.5116620000000  0.5057700000000 1.0
C      1  0.4279580000000  0.4634670000000  0.4159380000000 1.0
C      1  0.4145850000000  0.6098250000000  0.5228580000000 1.0
C      1  0.5960470000000  0.4630020000000  0.4096490000000 1.0
END
