TITL C-627106-156-487 -2.12646460839254e-08 125000 -408.832354730867 0 0 69 (C1) n - 1
REM
REM in /home/nfs/bkarasulu/CARBON/AIRSS/Generating-Clusters/LCBOP/Only-C1/SD-CG/FIRE-CG
REM
REM
REM
REM
REM
REM ./C.cell (11c1c37f851c82e70ff6c80c92926a4b)
REM AIRSS Version 0.9.1 bugfix July 2018 build 013d7b7c2542+ Fri, 06 Jul 2018 19:26:36 +0100
REM compiler GCC version 9.2.1 20190827 (Red Hat 9.2.1-1)
REM options -cpp -mtune=generic -march=x86-64 -g -O0 -fpre-include=/usr/include/finclude/math-vector-fortran.h
REM seed -704023647 1983086773 -1063732223 -638858901 -149366384 1156572143 659745609 -882200483 667103268 826078572 -1167290454 785545214 -274814398 -1384877246 -50996158 -679421120 1348359619 2047719455 -396678685 -1281589033 -927209304 616788620 -228604510 891303611 1964909582 -1716008951 137228485 1459058479 1938524244 -904041433 1517543121 99224022 -297210143
REM
CELL 1.54180   50.00000   50.00000   50.00000   90.00000   90.00000   90.00000
LATT -1
SFAC C  
C      1  0.4506150000000  0.4366350000000  0.4960960000000 1.0
C      1  0.4766560000000  0.5088850000000  0.5464330000000 1.0
C      1  0.3626850000000  0.5723330000000  0.5718120000000 1.0
C      1  0.5243240000000  0.5927990000000  0.5115230000000 1.0
C      1  0.4660080000000  0.4528420000000  0.5523210000000 1.0
C      1  0.4716520000000  0.5830430000000  0.4600880000000 1.0
C      1  0.4050190000000  0.5430580000000  0.4880300000000 1.0
C      1  0.5571430000000  0.4650030000000  0.4639070000000 1.0
C      1  0.4852020000000  0.5582890000000  0.4685070000000 1.0
C      1  0.4788990000000  0.5896490000000  0.4338840000000 1.0
C      1  0.5839010000000  0.5051790000000  0.4572520000000 1.0
C      1  0.4908570000000  0.4541270000000  0.5389080000000 1.0
C      1  0.5493680000000  0.5324460000000  0.4756520000000 1.0
C      1  0.5874260000000  0.5096750000000  0.5144060000000 1.0
C      1  0.5755320000000  0.4600610000000  0.5167610000000 1.0
C      1  0.4583450000000  0.5050380000000  0.4731870000000 1.0
C      1  0.4912080000000  0.5582780000000  0.5172770000000 1.0
C      1  0.5550020000000  0.4662110000000  0.5349720000000 1.0
C      1  0.4980040000000  0.4975110000000  0.5604400000000 1.0
C      1  0.5008850000000  0.5514580000000  0.4445950000000 1.0
C      1  0.5336000000000  0.4599570000000  0.4790980000000 1.0
C      1  0.5522860000000  0.5332860000000  0.5488170000000 1.0
C      1  0.4194040000000  0.5332380000000  0.4680050000000 1.0
C      1  0.5339190000000  0.4120510000000  0.4510750000000 1.0
C      1  0.4829210000000  0.5450190000000  0.4929570000000 1.0
C      1  0.5463720000000  0.4043650000000  0.4754380000000 1.0
C      1  0.5066420000000  0.4190170000000  0.4485530000000 1.0
C      1  0.5287300000000  0.5004050000000  0.5109450000000 1.0
C      1  0.5841930000000  0.4830340000000  0.5018280000000 1.0
C      1  0.4010990000000  0.5505390000000  0.5408550000000 1.0
C      1  0.4406690000000  0.5195150000000  0.4559800000000 1.0
C      1  0.5608770000000  0.4505470000000  0.4399620000000 1.0
C      1  0.4967070000000  0.5704150000000  0.4244590000000 1.0
C      1  0.4146960000000  0.4684330000000  0.4898660000000 1.0
C      1  0.5179710000000  0.5678250000000  0.5210200000000 1.0
C      1  0.5313830000000  0.4807330000000  0.5312600000000 1.0
C      1  0.3983760000000  0.5488720000000  0.5130550000000 1.0
C      1  0.5776730000000  0.4822610000000  0.4732940000000 1.0
C      1  0.5772490000000  0.5290240000000  0.4714890000000 1.0
C      1  0.4405520000000  0.4607190000000  0.4857440000000 1.0
C      1  0.6055210000000  0.5032090000000  0.4080940000000 1.0
C      1  0.5512280000000  0.4261930000000  0.4335460000000 1.0
C      1  0.4249400000000  0.5143860000000  0.5633920000000 1.0
C      1  0.5085650000000  0.4748990000000  0.5466950000000 1.0
C      1  0.5762870000000  0.4334600000000  0.5069990000000 1.0
C      1  0.5637040000000  0.4135300000000  0.4939760000000 1.0
C      1  0.4445060000000  0.4659780000000  0.5613570000000 1.0
C      1  0.5381010000000  0.5528330000000  0.5340080000000 1.0
C      1  0.5326790000000  0.5181500000000  0.4912920000000 1.0
C      1  0.5151600000000  0.4493270000000  0.4955580000000 1.0
C      1  0.4713820000000  0.5621480000000  0.5370330000000 1.0
C      1  0.5156370000000  0.5118780000000  0.5768450000000 1.0
C      1  0.5952260000000  0.5044850000000  0.4320000000000 1.0
C      1  0.5742320000000  0.5189660000000  0.5378060000000 1.0
C      1  0.4674910000000  0.5097280000000  0.5213150000000 1.0
C      1  0.5390990000000  0.5240660000000  0.5719980000000 1.0
C      1  0.4740290000000  0.4238810000000  0.5048770000000 1.0
C      1  0.4249880000000  0.5404100000000  0.5526330000000 1.0
C      1  0.4701660000000  0.5193070000000  0.4950760000000 1.0
C      1  0.4767250000000  0.3967510000000  0.5053050000000 1.0
C      1  0.5926740000000  0.5305430000000  0.4953870000000 1.0
C      1  0.4589850000000  0.4765280000000  0.4704800000000 1.0
C      1  0.4487330000000  0.5552670000000  0.5494650000000 1.0
C      1  0.4948570000000  0.4413150000000  0.5136090000000 1.0
C      1  0.4889810000000  0.4391920000000  0.4468900000000 1.0
C      1  0.4443450000000  0.5198100000000  0.4289090000000 1.0
C      1  0.4303450000000  0.4882970000000  0.5654180000000 1.0
C      1  0.3811520000000  0.5618660000000  0.5566930000000 1.0
C      1  0.4762130000000  0.4618180000000  0.4535920000000 1.0
END
