TITL C-627108-131-296 0.146943677612805 125000 -260.478085524712 0 0 44 (C1) n - 1
REM
REM in /home/nfs/bkarasulu/CARBON/AIRSS/Generating-Clusters/LCBOP/Only-C1/SD-CG/FIRE-CG
REM
REM
REM
REM
REM
REM ./C.cell (11c1c37f851c82e70ff6c80c92926a4b)
REM AIRSS Version 0.9.1 bugfix July 2018 build 013d7b7c2542+ Fri, 06 Jul 2018 19:26:36 +0100
REM compiler GCC version 9.2.1 20190827 (Red Hat 9.2.1-1)
REM options -cpp -mtune=generic -march=x86-64 -g -O0 -fpre-include=/usr/include/finclude/math-vector-fortran.h
REM seed 854309065 -1376555984 -1824756331 24051281 -26904280 631926942 981813188 1844409850 -1738862086 156252623 349790565 -895561296 460359592 -4171298 -1700860986 -2122509535 587111233 -492335168 -554480373 1109894537 996395546 -1967134259 -412223831 -1829928761 -113937544 -595197033 -293700637 76831088 -1850426338 -1334421141 1237791013 -65185814 -439042407
REM
CELL 1.54180   50.00000   50.00000   50.00000   90.00000   90.00000   90.00000
LATT -1
SFAC C  
C      1  0.4959310000000  0.4501820000000  0.5503890000000 1.0
C      1  0.5054360000000  0.4365610000000  0.5270610000000 1.0
C      1  0.4621980000000  0.4859260000000  0.5414360000000 1.0
C      1  0.4747300000000  0.5380370000000  0.5246140000000 1.0
C      1  0.4640810000000  0.5143980000000  0.5369050000000 1.0
C      1  0.4590160000000  0.4875820000000  0.4781680000000 1.0
C      1  0.5033920000000  0.4927560000000  0.5211730000000 1.0
C      1  0.5707100000000  0.3897530000000  0.5276760000000 1.0
C      1  0.5318730000000  0.4818190000000  0.4460180000000 1.0
C      1  0.5494390000000  0.4987190000000  0.5248690000000 1.0
C      1  0.5247330000000  0.4937250000000  0.5380980000000 1.0
C      1  0.4858990000000  0.4946970000000  0.4744210000000 1.0
C      1  0.5683290000000  0.5144420000000  0.5382000000000 1.0
C      1  0.5179090000000  0.5525550000000  0.5501470000000 1.0
C      1  0.4915640000000  0.4416890000000  0.5021340000000 1.0
C      1  0.4192260000000  0.5345800000000  0.4988970000000 1.0
C      1  0.5245680000000  0.5355170000000  0.4570600000000 1.0
C      1  0.4517160000000  0.4679250000000  0.5217700000000 1.0
C      1  0.4896390000000  0.5575240000000  0.4834290000000 1.0
C      1  0.5272750000000  0.4193460000000  0.5282090000000 1.0
C      1  0.5027020000000  0.5475850000000  0.5273090000000 1.0
C      1  0.5647060000000  0.5358870000000  0.5540730000000 1.0
C      1  0.4785210000000  0.5318290000000  0.4429730000000 1.0
C      1  0.5049810000000  0.4455400000000  0.4769750000000 1.0
C      1  0.4658440000000  0.5502840000000  0.4989600000000 1.0
C      1  0.5081970000000  0.4941530000000  0.4938220000000 1.0
C      1  0.4643810000000  0.4494290000000  0.5062760000000 1.0
C      1  0.4971890000000  0.5494460000000  0.4565700000000 1.0
C      1  0.5170530000000  0.4590390000000  0.4565410000000 1.0
C      1  0.4802200000000  0.4710830000000  0.5582060000000 1.0
C      1  0.5454830000000  0.4952110000000  0.4970260000000 1.0
C      1  0.5197140000000  0.5080340000000  0.4453620000000 1.0
C      1  0.4328800000000  0.4910160000000  0.4825770000000 1.0
C      1  0.4907440000000  0.5063530000000  0.4485310000000 1.0
C      1  0.4525250000000  0.5414520000000  0.4401820000000 1.0
C      1  0.4380210000000  0.5536190000000  0.4594350000000 1.0
C      1  0.4397690000000  0.5502640000000  0.4875760000000 1.0
C      1  0.5647260000000  0.4893400000000  0.4780640000000 1.0
C      1  0.5342650000000  0.5439360000000  0.4833740000000 1.0
C      1  0.5592590000000  0.4820560000000  0.4527210000000 1.0
C      1  0.4157420000000  0.5083100000000  0.4938790000000 1.0
C      1  0.5428230000000  0.5504080000000  0.5597590000000 1.0
C      1  0.5134980000000  0.5536750000000  0.5010870000000 1.0
C      1  0.5490930000000  0.4043200000000  0.5280470000000 1.0
END
