TITL C-627112-676-1727 0.0127605069683925 125000 -560.73225184181 0 0 92 (C1) n - 1
REM
REM in /home/nfs/bkarasulu/CARBON/AIRSS/Generating-Clusters/LCBOP/Only-C1/SD-CG/FIRE-CG
REM
REM
REM
REM
REM
REM ./C.cell (11c1c37f851c82e70ff6c80c92926a4b)
REM AIRSS Version 0.9.1 bugfix July 2018 build 013d7b7c2542+ Fri, 06 Jul 2018 19:26:36 +0100
REM compiler GCC version 9.2.1 20190827 (Red Hat 9.2.1-1)
REM options -cpp -mtune=generic -march=x86-64 -g -O0 -fpre-include=/usr/include/finclude/math-vector-fortran.h
REM seed 1335282722 1116776183 1754117275 -1107387938 250358172 357606065 -517583218 -411382965 -947934398 1659256547 1259620045 -843786407 -829541240 88972360 -1301103843 1810979441 -1711821030 -1538657163 -1343723888 2111357307 84933918 168650514 854424709 -1046466785 1433377276 442180145 169319971 -939525267 1907439543 2074959994 2032604199 -238196290 1616426693
REM
CELL 1.54180   50.00000   50.00000   50.00000   90.00000   90.00000   90.00000
LATT -1
SFAC C  
C      1  0.4296950000000  0.5380170000000  0.4896540000000 1.0
C      1  0.5787360000000  0.5357660000000  0.5628750000000 1.0
C      1  0.5124630000000  0.4484640000000  0.4694400000000 1.0
C      1  0.4928110000000  0.4299150000000  0.4581520000000 1.0
C      1  0.5918770000000  0.4926790000000  0.5028520000000 1.0
C      1  0.4163180000000  0.5272270000000  0.5408680000000 1.0
C      1  0.5428290000000  0.4544100000000  0.5826620000000 1.0
C      1  0.5773680000000  0.4996290000000  0.3557280000000 1.0
C      1  0.5354500000000  0.5096780000000  0.5178410000000 1.0
C      1  0.4264680000000  0.5177900000000  0.4696450000000 1.0
C      1  0.5282150000000  0.4782280000000  0.5854510000000 1.0
C      1  0.5684850000000  0.4793150000000  0.5396760000000 1.0
C      1  0.3998830000000  0.3784780000000  0.4950600000000 1.0
C      1  0.4830860000000  0.4775480000000  0.6088040000000 1.0
C      1  0.5729190000000  0.4959700000000  0.3815870000000 1.0
C      1  0.5134810000000  0.5279730000000  0.4619580000000 1.0
C      1  0.5503810000000  0.4549700000000  0.4399720000000 1.0
C      1  0.4161540000000  0.5357320000000  0.5140740000000 1.0
C      1  0.5399110000000  0.5193870000000  0.4679540000000 1.0
C      1  0.5699360000000  0.4938980000000  0.4092590000000 1.0
C      1  0.4852540000000  0.4702030000000  0.5555410000000 1.0
C      1  0.4928890000000  0.5769430000000  0.5611710000000 1.0
C      1  0.4628690000000  0.5141090000000  0.5600970000000 1.0
C      1  0.5360180000000  0.4986110000000  0.5666100000000 1.0
C      1  0.4431190000000  0.4433410000000  0.4602350000000 1.0
C      1  0.4373610000000  0.4420450000000  0.5621210000000 1.0
C      1  0.4591260000000  0.4934970000000  0.4949610000000 1.0
C      1  0.5466490000000  0.5053810000000  0.4916910000000 1.0
C      1  0.4246880000000  0.4158690000000  0.5232130000000 1.0
C      1  0.3847620000000  0.5449170000000  0.4154020000000 1.0
C      1  0.5620590000000  0.4423560000000  0.5108650000000 1.0
C      1  0.5932730000000  0.5195130000000  0.5466680000000 1.0
C      1  0.4054710000000  0.5342340000000  0.4280070000000 1.0
C      1  0.4270440000000  0.5234710000000  0.4417370000000 1.0
C      1  0.5642130000000  0.4512330000000  0.5378920000000 1.0
C      1  0.5906350000000  0.4956870000000  0.5313170000000 1.0
C      1  0.4365410000000  0.4923010000000  0.4771890000000 1.0
C      1  0.5112850000000  0.6128330000000  0.4850330000000 1.0
C      1  0.6290990000000  0.5457160000000  0.3869560000000 1.0
C      1  0.4516570000000  0.5170360000000  0.4295020000000 1.0
C      1  0.4825160000000  0.5299030000000  0.5761790000000 1.0
C      1  0.4957610000000  0.4640130000000  0.4878230000000 1.0
C      1  0.4564590000000  0.4817940000000  0.5208750000000 1.0
C      1  0.5594520000000  0.5218270000000  0.4479420000000 1.0
C      1  0.4979850000000  0.5891780000000  0.4873020000000 1.0
C      1  0.4899070000000  0.5307660000000  0.5150080000000 1.0
C      1  0.5256840000000  0.5563450000000  0.5324090000000 1.0
C      1  0.4558890000000  0.4528580000000  0.5177450000000 1.0
C      1  0.5402530000000  0.4517920000000  0.4659330000000 1.0
C      1  0.4908730000000  0.5726810000000  0.4647300000000 1.0
C      1  0.6204710000000  0.5470400000000  0.4129100000000 1.0
C      1  0.4891750000000  0.5779980000000  0.5122360000000 1.0
C      1  0.5175420000000  0.5310280000000  0.5219480000000 1.0
C      1  0.5822410000000  0.5037240000000  0.3304470000000 1.0
C      1  0.4737030000000  0.5533190000000  0.5086660000000 1.0
C      1  0.4534230000000  0.5534350000000  0.4884580000000 1.0
C      1  0.5051790000000  0.5199260000000  0.5899780000000 1.0
C      1  0.3945870000000  0.5147910000000  0.5517930000000 1.0
C      1  0.4925870000000  0.5083520000000  0.4610890000000 1.0
C      1  0.5550850000000  0.5403140000000  0.5756500000000 1.0
C      1  0.4119990000000  0.3969180000000  0.5097450000000 1.0
C      1  0.5062020000000  0.4219020000000  0.5528950000000 1.0
C      1  0.4754970000000  0.5584000000000  0.5732310000000 1.0
C      1  0.5446180000000  0.4947660000000  0.5406440000000 1.0
C      1  0.4393450000000  0.4368400000000  0.5343980000000 1.0
C      1  0.5225600000000  0.5634000000000  0.4297110000000 1.0
C      1  0.5093320000000  0.5549100000000  0.4522200000000 1.0
C      1  0.5317300000000  0.5246020000000  0.5780010000000 1.0
C      1  0.5673530000000  0.4854880000000  0.4896590000000 1.0
C      1  0.4396300000000  0.5316330000000  0.5559920000000 1.0
C      1  0.5579650000000  0.4581850000000  0.4875630000000 1.0
C      1  0.5327690000000  0.4176530000000  0.5542470000000 1.0
C      1  0.5055890000000  0.5764410000000  0.5358450000000 1.0
C      1  0.3880330000000  0.3604180000000  0.4804640000000 1.0
C      1  0.4314980000000  0.4674900000000  0.4644210000000 1.0
C      1  0.4757690000000  0.5093360000000  0.4383490000000 1.0
C      1  0.4919470000000  0.4443360000000  0.5556750000000 1.0
C      1  0.3643810000000  0.5554640000000  0.4030320000000 1.0
C      1  0.5983160000000  0.5319390000000  0.4208900000000 1.0
C      1  0.4737690000000  0.4450670000000  0.4969220000000 1.0
C      1  0.4610100000000  0.4633390000000  0.6034320000000 1.0
C      1  0.4853490000000  0.4904240000000  0.4824560000000 1.0
C      1  0.5507320000000  0.4387020000000  0.5599590000000 1.0
C      1  0.6332720000000  0.5629690000000  0.4311300000000 1.0
C      1  0.4667230000000  0.4322330000000  0.4711970000000 1.0
C      1  0.5759180000000  0.5161220000000  0.4260670000000 1.0
C      1  0.5055920000000  0.4913200000000  0.5992690000000 1.0
C      1  0.4678840000000  0.4901820000000  0.5456720000000 1.0
C      1  0.5607110000000  0.4701330000000  0.4207830000000 1.0
C      1  0.4445750000000  0.4508770000000  0.5863380000000 1.0
C      1  0.4474320000000  0.5574870000000  0.5662060000000 1.0
C      1  0.4632490000000  0.5655730000000  0.4647480000000 1.0
END
