TITL C-627109-622-1861 97.5868461620991 125000 -833.069846222034 0 0 138 (C1) n - 1
REM
REM in /home/nfs/bkarasulu/CARBON/AIRSS/Generating-Clusters/LCBOP/Only-C1/SD-CG/FIRE-CG
REM
REM
REM
REM
REM
REM ./C.cell (11c1c37f851c82e70ff6c80c92926a4b)
REM AIRSS Version 0.9.1 bugfix July 2018 build 013d7b7c2542+ Fri, 06 Jul 2018 19:26:36 +0100
REM compiler GCC version 9.2.1 20190827 (Red Hat 9.2.1-1)
REM options -cpp -mtune=generic -march=x86-64 -g -O0 -fpre-include=/usr/include/finclude/math-vector-fortran.h
REM seed -70616128 1682777471 1110657209 388095207 -1463096934 -770774475 1986353787 -42740068 479021541 -2877654 -1366580674 -171000720 -1524908790 -1059046445 -643285849 -473356309 1564725596 1907808017 1460018370 327606305 -1531118048 572286119 1421535985 1737235409 316726868 96614419 357819540 1701949999 1146730222 -2089497314 -642586997 -1701594245 1373368506
REM
CELL 1.54180   50.00000   50.00000   50.00000   90.00000   90.00000   90.00000
LATT -1
SFAC C  
C      1  0.4494840000000  0.5753560000000  0.4276800000000 1.0
C      1  0.5186710000000  0.6357360000000  0.4964960000000 1.0
C      1  0.5490400000000  0.6009410000000  0.4415250000000 1.0
C      1  0.3991400000000  0.5250400000000  0.5116220000000 1.0
C      1  0.5201750000000  0.4042450000000  0.5877190000000 1.0
C      1  0.5112310000000  0.4363670000000  0.5063530000000 1.0
C      1  0.5568230000000  0.5456170000000  0.5808290000000 1.0
C      1  0.5334210000000  0.5585240000000  0.5857960000000 1.0
C      1  0.4239330000000  0.4509010000000  0.4788860000000 1.0
C      1  0.5107230000000  0.4801850000000  0.4209730000000 1.0
C      1  0.5380950000000  0.5046790000000  0.4675480000000 1.0
C      1  0.4795190000000  0.5345640000000  0.4716530000000 1.0
C      1  0.4977270000000  0.5112560000000  0.5873050000000 1.0
C      1  0.4873250000000  0.4189200000000  0.4263310000000 1.0
C      1  0.4998790000000  0.5801760000000  0.4560000000000 1.0
C      1  0.4890480000000  0.4598860000000  0.4527450000000 1.0
C      1  0.5121150000000  0.5693300000000  0.4321810000000 1.0
C      1  0.5505590000000  0.5910830000000  0.5274450000000 1.0
C      1  0.5180720000000  0.5045340000000  0.4465740000000 1.0
C      1  0.5660070000000  0.5070330000000  0.4624570000000 1.0
C      1  0.4918610000000  0.3731190000000  0.5244370000000 1.0
C      1  0.4192710000000  0.4633420000000  0.5571690000000 1.0
C      1  0.6003560000000  0.4439700000000  0.5528880000000 1.0
C      1  0.5587710000000  0.5548840000000  0.4260880000000 1.0
C      1  0.5007820000000  0.5253780000000  0.4559900000000 1.0
C      1  0.4759170000000  0.5045080000000  0.6046540000000 1.0
C      1  0.5165080000000  0.5780090000000  0.4797960000000 1.0
C      1  0.4643250000000  0.4725070000000  0.5147590000000 1.0
C      1  0.4866680000000  0.5778410000000  0.5705010000000 1.0
C      1  0.4086490000000  0.4957290000000  0.4713100000000 1.0
C      1  0.5800700000000  0.5449580000000  0.5278320000000 1.0
C      1  0.4761950000000  0.5566500000000  0.4908470000000 1.0
C      1  0.4574010000000  0.4215320000000  0.4685590000000 1.0
C      1  0.4971170000000  0.5327540000000  0.5695040000000 1.0
C      1  0.4574300000000  0.4570430000000  0.4123710000000 1.0
C      1  0.5133290000000  0.4277570000000  0.4328300000000 1.0
C      1  0.4371430000000  0.5350370000000  0.4511240000000 1.0
C      1  0.4744820000000  0.3520820000000  0.5247330000000 1.0
C      1  0.4420810000000  0.4543920000000  0.5726580000000 1.0
C      1  0.4928510000000  0.4419610000000  0.5747690000000 1.0
C      1  0.4621610000000  0.4430980000000  0.5107210000000 1.0
C      1  0.5725070000000  0.4212920000000  0.5188850000000 1.0
C      1  0.5749410000000  0.4250880000000  0.4899310000000 1.0
C      1  0.5054570000000  0.5580890000000  0.5802310000000 1.0
C      1  0.4807230000000  0.4354930000000  0.4623960000000 1.0
C      1  0.4795460000000  0.4859870000000  0.4922890000000 1.0
C      1  0.4922250000000  0.6118860000000  0.5331170000000 1.0
C      1  0.4610970000000  0.4284690000000  0.4210140000000 1.0
C      1  0.5762150000000  0.4582050000000  0.4477800000000 1.0
C      1  0.5232100000000  0.4252200000000  0.4828720000000 1.0
C      1  0.4807660000000  0.4825660000000  0.5383680000000 1.0
C      1  0.4129360000000  0.5426000000000  0.4655040000000 1.0
C      1  0.5687950000000  0.4987180000000  0.5847910000000 1.0
C      1  0.5195680000000  0.3693460000000  0.5273400000000 1.0
C      1  0.5262640000000  0.4478310000000  0.5279840000000 1.0
C      1  0.5746320000000  0.4780680000000  0.4264150000000 1.0
C      1  0.4655610000000  0.4391670000000  0.5651180000000 1.0
C      1  0.4384210000000  0.4883790000000  0.5109070000000 1.0
C      1  0.5122730000000  0.4567100000000  0.4352450000000 1.0
C      1  0.5018610000000  0.5031880000000  0.5316420000000 1.0
C      1  0.4736240000000  0.4835630000000  0.4466010000000 1.0
C      1  0.4206780000000  0.4773290000000  0.4898140000000 1.0
C      1  0.4553960000000  0.5204590000000  0.4673690000000 1.0
C      1  0.4148040000000  0.4898910000000  0.4430400000000 1.0
C      1  0.6259650000000  0.4914810000000  0.5390630000000 1.0
C      1  0.4717100000000  0.4760920000000  0.6050470000000 1.0
C      1  0.5432710000000  0.6241440000000  0.4888130000000 1.0
C      1  0.4464540000000  0.5164780000000  0.5170630000000 1.0
C      1  0.4999540000000  0.6297910000000  0.5148160000000 1.0
C      1  0.5254960000000  0.4173520000000  0.4568390000000 1.0
C      1  0.5421080000000  0.5183940000000  0.5165830000000 1.0
C      1  0.4948990000000  0.5865360000000  0.5447030000000 1.0
C      1  0.5773680000000  0.4728560000000  0.4939560000000 1.0
C      1  0.5524430000000  0.5276140000000  0.4194700000000 1.0
C      1  0.5424880000000  0.4885960000000  0.5866440000000 1.0
C      1  0.5278960000000  0.5105300000000  0.4927790000000 1.0
C      1  0.4635190000000  0.4937640000000  0.4703250000000 1.0
C      1  0.4754700000000  0.5328730000000  0.4194690000000 1.0
C      1  0.4586080000000  0.5737170000000  0.5735660000000 1.0
C      1  0.5952320000000  0.5427200000000  0.5034770000000 1.0
C      1  0.4828490000000  0.3995450000000  0.5212150000000 1.0
C      1  0.5562690000000  0.6103780000000  0.5097800000000 1.0
C      1  0.5825510000000  0.4447400000000  0.5324290000000 1.0
C      1  0.4852080000000  0.4266220000000  0.5141270000000 1.0
C      1  0.5377230000000  0.5662060000000  0.5306420000000 1.0
C      1  0.5239820000000  0.5185200000000  0.3800500000000 1.0
C      1  0.5018670000000  0.5006730000000  0.5007020000000 1.0
C      1  0.4723170000000  0.5798790000000  0.4686050000000 1.0
C      1  0.5816770000000  0.4646220000000  0.3746980000000 1.0
C      1  0.6056250000000  0.5073660000000  0.5304400000000 1.0
C      1  0.4499090000000  0.5878790000000  0.4534280000000 1.0
C      1  0.4661890000000  0.5367220000000  0.5187050000000 1.0
C      1  0.5515490000000  0.4084020000000  0.5342910000000 1.0
C      1  0.4200530000000  0.5099390000000  0.5733630000000 1.0
C      1  0.5082110000000  0.5640770000000  0.5295930000000 1.0
C      1  0.4423760000000  0.4229990000000  0.4433510000000 1.0
C      1  0.4464750000000  0.4656250000000  0.5984340000000 1.0
C      1  0.4029950000000  0.4437120000000  0.5455050000000 1.0
C      1  0.4298010000000  0.5343010000000  0.5785750000000 1.0
C      1  0.5837180000000  0.4987660000000  0.4839990000000 1.0
C      1  0.5033430000000  0.5451540000000  0.4168520000000 1.0
C      1  0.4243100000000  0.4450970000000  0.4493280000000 1.0
C      1  0.4930860000000  0.5330640000000  0.5389140000000 1.0
C      1  0.3981520000000  0.5030840000000  0.5308630000000 1.0
C      1  0.5495620000000  0.6181640000000  0.4620500000000 1.0
C      1  0.4074700000000  0.5700170000000  0.4686810000000 1.0
C      1  0.5319220000000  0.4979320000000  0.5352580000000 1.0
C      1  0.5895790000000  0.4854350000000  0.5966390000000 1.0
C      1  0.4811730000000  0.4705790000000  0.4002380000000 1.0
C      1  0.4735560000000  0.5045350000000  0.4259310000000 1.0
C      1  0.5733600000000  0.5238280000000  0.5716900000000 1.0
C      1  0.5522880000000  0.5432980000000  0.5244200000000 1.0
C      1  0.4511210000000  0.5470680000000  0.4278970000000 1.0
C      1  0.5893930000000  0.5254360000000  0.5476330000000 1.0
C      1  0.4438920000000  0.4338060000000  0.4909360000000 1.0
C      1  0.5695240000000  0.4676650000000  0.5211220000000 1.0
C      1  0.4056400000000  0.5502620000000  0.5236250000000 1.0
C      1  0.4201560000000  0.5632120000000  0.5423890000000 1.0
C      1  0.5676650000000  0.5055700000000  0.4333460000000 1.0
C      1  0.5406470000000  0.5762520000000  0.4307470000000 1.0
C      1  0.4245320000000  0.5907490000000  0.4654230000000 1.0
C      1  0.4026730000000  0.5216540000000  0.4824080000000 1.0
C      1  0.4113590000000  0.4912620000000  0.5539580000000 1.0
C      1  0.5421790000000  0.4716370000000  0.5297790000000 1.0
C      1  0.5428170000000  0.3820330000000  0.5309130000000 1.0
C      1  0.4841390000000  0.4752950000000  0.3738980000000 1.0
C      1  0.4962200000000  0.4649330000000  0.5918230000000 1.0
C      1  0.5146370000000  0.4872540000000  0.5868940000000 1.0
C      1  0.5260630000000  0.5288100000000  0.4055140000000 1.0
C      1  0.5766640000000  0.4504490000000  0.4755520000000 1.0
C      1  0.5325520000000  0.4270200000000  0.5468360000000 1.0
C      1  0.4357080000000  0.5588410000000  0.5658400000000 1.0
C      1  0.4289100000000  0.4674650000000  0.4314350000000 1.0
C      1  0.3881360000000  0.4254630000000  0.5343140000000 1.0
C      1  0.5025100000000  0.5659970000000  0.5011310000000 1.0
C      1  0.5152160000000  0.4243240000000  0.5696090000000 1.0
C      1  0.5792220000000  0.4707810000000  0.3999000000000 1.0
C      1  0.6005430000000  0.5142010000000  0.5013590000000 1.0
END
