TITL C-627113-6568-182 -1782.75993385228 125000 -518.195784376438 0 0 86 (C1) n - 1
REM
REM in /home/nfs/bkarasulu/CARBON/AIRSS/Generating-Clusters/LCBOP/Only-C1/SD-CG/FIRE-CG
REM
REM
REM
REM
REM
REM ./C.cell (11c1c37f851c82e70ff6c80c92926a4b)
REM AIRSS Version 0.9.1 bugfix July 2018 build 013d7b7c2542+ Fri, 06 Jul 2018 19:26:36 +0100
REM compiler GCC version 9.2.1 20190827 (Red Hat 9.2.1-1)
REM options -cpp -mtune=generic -march=x86-64 -g -O0 -fpre-include=/usr/include/finclude/math-vector-fortran.h
REM seed -1914320412 45052235 -2037665901 -668907732 -328204872 1681239011 1590036310 202606901 1813182779 55885192 1810874035 404316980 1706555057 509778477 1595094745 -968731731 -1020964452 1170043687 -1615304611 1665684455 111870178 -214767772 229162152 1112584097 -455449153 828181155 -276470005 1014825272 802565871 189643184 1669315820 1593769732 -1396277266
REM
CELL 1.54180   50.00000   50.00000   50.00000   90.00000   90.00000   90.00000
LATT -1
SFAC C  
C      1  0.4281700000000  0.4977940000000  0.5004310000000 1.0
C      1  0.4534350000000  0.4982140000000  0.5141830000000 1.0
C      1  0.4867680000000  0.4633210000000  0.4987420000000 1.0
C      1  0.5304910000000  0.5938740000000  0.4770690000000 1.0
C      1  0.5087760000000  0.4177910000000  0.4900560000000 1.0
C      1  0.4680890000000  0.6052340000000  0.5310620000000 1.0
C      1  0.5570490000000  0.4836440000000  0.4607030000000 1.0
C      1  0.4680040000000  0.5870160000000  0.4866640000000 1.0
C      1  0.5108270000000  0.4198100000000  0.5391600000000 1.0
C      1  0.5747090000000  0.5120490000000  0.5460990000000 1.0
C      1  0.5304660000000  0.4142050000000  0.4465860000000 1.0
C      1  0.4946040000000  0.4210820000000  0.5154930000000 1.0
C      1  0.4244790000000  0.4761290000000  0.4580770000000 1.0
C      1  0.4636820000000  0.6092820000000  0.5042840000000 1.0
C      1  0.4848980000000  0.5328390000000  0.5239960000000 1.0
C      1  0.5494900000000  0.4429260000000  0.5637570000000 1.0
C      1  0.4731710000000  0.4271610000000  0.4365450000000 1.0
C      1  0.5471900000000  0.4348980000000  0.4404690000000 1.0
C      1  0.4729920000000  0.4867930000000  0.4978090000000 1.0
C      1  0.4462890000000  0.4503100000000  0.5233960000000 1.0
C      1  0.5848790000000  0.5116290000000  0.4905660000000 1.0
C      1  0.4173090000000  0.5223200000000  0.4925020000000 1.0
C      1  0.4928250000000  0.5428940000000  0.4339100000000 1.0
C      1  0.5272400000000  0.4402900000000  0.4859580000000 1.0
C      1  0.5582720000000  0.4590800000000  0.4462650000000 1.0
C      1  0.4224200000000  0.5329320000000  0.4665610000000 1.0
C      1  0.5528610000000  0.6007550000000  0.4906530000000 1.0
C      1  0.5288620000000  0.5256930000000  0.5721620000000 1.0
C      1  0.4181300000000  0.5286990000000  0.5395870000000 1.0
C      1  0.5371820000000  0.4931610000000  0.5223030000000 1.0
C      1  0.5606300000000  0.5594120000000  0.5147340000000 1.0
C      1  0.4872040000000  0.5062960000000  0.4829780000000 1.0
C      1  0.4380920000000  0.4922190000000  0.4409760000000 1.0
C      1  0.4780190000000  0.5813620000000  0.5400730000000 1.0
C      1  0.5845510000000  0.5139900000000  0.5181930000000 1.0
C      1  0.5305930000000  0.4912680000000  0.4700560000000 1.0
C      1  0.4862610000000  0.5609140000000  0.5220290000000 1.0
C      1  0.5543670000000  0.5293250000000  0.5587640000000 1.0
C      1  0.4515520000000  0.5235900000000  0.5746050000000 1.0
C      1  0.5543880000000  0.4733720000000  0.5203250000000 1.0
C      1  0.4908310000000  0.5715990000000  0.4949130000000 1.0
C      1  0.4386950000000  0.4744330000000  0.5496160000000 1.0
C      1  0.4810350000000  0.4919250000000  0.5553660000000 1.0
C      1  0.5151860000000  0.5702520000000  0.4804250000000 1.0
C      1  0.5037060000000  0.4533310000000  0.5723000000000 1.0
C      1  0.4456680000000  0.5707430000000  0.4804900000000 1.0
C      1  0.4753950000000  0.4498890000000  0.5759310000000 1.0
C      1  0.4449660000000  0.5501340000000  0.4597860000000 1.0
C      1  0.5783240000000  0.4867610000000  0.5596220000000 1.0
C      1  0.4278590000000  0.5660140000000  0.5034020000000 1.0
C      1  0.5057930000000  0.4818540000000  0.5667520000000 1.0
C      1  0.5666420000000  0.4103060000000  0.4871910000000 1.0
C      1  0.4834630000000  0.4526800000000  0.4305770000000 1.0
C      1  0.5221530000000  0.4360310000000  0.5597200000000 1.0
C      1  0.4650200000000  0.5372340000000  0.4423730000000 1.0
C      1  0.5749670000000  0.5063080000000  0.4634380000000 1.0
C      1  0.5113690000000  0.4651750000000  0.4764650000000 1.0
C      1  0.5248200000000  0.4983130000000  0.5781170000000 1.0
C      1  0.4852950000000  0.4610960000000  0.4040160000000 1.0
C      1  0.4224350000000  0.4735840000000  0.4862270000000 1.0
C      1  0.4762650000000  0.5352040000000  0.5791970000000 1.0
C      1  0.5659400000000  0.5850700000000  0.5083780000000 1.0
C      1  0.4829960000000  0.4061290000000  0.4501610000000 1.0
C      1  0.5472880000000  0.5336240000000  0.4277440000000 1.0
C      1  0.4269780000000  0.4508190000000  0.5024530000000 1.0
C      1  0.5682830000000  0.4623350000000  0.5657510000000 1.0
C      1  0.5034810000000  0.5394400000000  0.5762280000000 1.0
C      1  0.4614610000000  0.4718180000000  0.5644210000000 1.0
C      1  0.5197570000000  0.5318700000000  0.4371670000000 1.0
C      1  0.4703470000000  0.5105750000000  0.5351010000000 1.0
C      1  0.5281560000000  0.5175300000000  0.5135550000000 1.0
C      1  0.5297370000000  0.5454910000000  0.4801250000000 1.0
C      1  0.5243700000000  0.5211090000000  0.4642300000000 1.0
C      1  0.4613960000000  0.5083020000000  0.4420520000000 1.0
C      1  0.5542880000000  0.4340370000000  0.4927110000000 1.0
C      1  0.4176980000000  0.5414510000000  0.5138720000000 1.0
C      1  0.5078780000000  0.4063940000000  0.4633430000000 1.0
C      1  0.5014290000000  0.5200070000000  0.5042910000000 1.0
C      1  0.4928330000000  0.4691920000000  0.4513430000000 1.0
C      1  0.5665150000000  0.4527370000000  0.5091040000000 1.0
C      1  0.4744050000000  0.4426560000000  0.5147740000000 1.0
C      1  0.4318630000000  0.5103460000000  0.5568560000000 1.0
C      1  0.5432630000000  0.5398390000000  0.5048690000000 1.0
C      1  0.4876950000000  0.4708180000000  0.3799580000000 1.0
C      1  0.4830820000000  0.4964230000000  0.4557010000000 1.0
C      1  0.5697630000000  0.5255480000000  0.4421030000000 1.0
END
