TITL C-627108-131-122 -0.113499474479662 125000 -1072.13247374508 0 0 174 (C1) n - 1
REM
REM in /home/nfs/bkarasulu/CARBON/AIRSS/Generating-Clusters/LCBOP/Only-C1/SD-CG/FIRE-CG
REM
REM
REM
REM
REM
REM ./C.cell (11c1c37f851c82e70ff6c80c92926a4b)
REM AIRSS Version 0.9.1 bugfix July 2018 build 013d7b7c2542+ Fri, 06 Jul 2018 19:26:36 +0100
REM compiler GCC version 9.2.1 20190827 (Red Hat 9.2.1-1)
REM options -cpp -mtune=generic -march=x86-64 -g -O0 -fpre-include=/usr/include/finclude/math-vector-fortran.h
REM seed -26747502 -272124625 1695409946 -71718104 1726273421 -1582853558 2067840466 -1459932399 1632414706 326886146 -453185124 116661259 860966630 -1668455581 -173077138 -452016410 -1410061452 1562481559 -951108487 662056710 -969398398 1035504729 806481023 721875639 -1587386005 -993495793 -1692654933 780768812 -820691392 -1438110129 1452915446 351560123 -1421859668
REM
CELL 1.54180   50.00000   50.00000   50.00000   90.00000   90.00000   90.00000
LATT -1
SFAC C  
C      1  0.4113020000000  0.6048810000000  0.5244680000000 1.0
C      1  0.4158150000000  0.5209730000000  0.4740430000000 1.0
C      1  0.4697730000000  0.5138900000000  0.3658540000000 1.0
C      1  0.4954210000000  0.5561900000000  0.5069660000000 1.0
C      1  0.4955440000000  0.4260590000000  0.5412970000000 1.0
C      1  0.4509450000000  0.3990930000000  0.4594130000000 1.0
C      1  0.6106330000000  0.5102190000000  0.5524900000000 1.0
C      1  0.5078330000000  0.4425140000000  0.5999540000000 1.0
C      1  0.4730700000000  0.5082880000000  0.4227040000000 1.0
C      1  0.4728890000000  0.3874010000000  0.5337510000000 1.0
C      1  0.5797120000000  0.4230960000000  0.5498890000000 1.0
C      1  0.6030640000000  0.4893230000000  0.4602600000000 1.0
C      1  0.5444120000000  0.5459220000000  0.5676850000000 1.0
C      1  0.5188210000000  0.4950880000000  0.5083860000000 1.0
C      1  0.5364720000000  0.4866560000000  0.3884430000000 1.0
C      1  0.5850760000000  0.5682380000000  0.5216190000000 1.0
C      1  0.4524580000000  0.5979890000000  0.5554240000000 1.0
C      1  0.5285260000000  0.5349330000000  0.5919440000000 1.0
C      1  0.5072270000000  0.4884560000000  0.4840400000000 1.0
C      1  0.6022690000000  0.5190260000000  0.4624120000000 1.0
C      1  0.3969180000000  0.5628980000000  0.5190780000000 1.0
C      1  0.5912660000000  0.5305970000000  0.5553910000000 1.0
C      1  0.4396820000000  0.5792930000000  0.5726870000000 1.0
C      1  0.5473890000000  0.5180250000000  0.4232600000000 1.0
C      1  0.3815100000000  0.5364130000000  0.5820740000000 1.0
C      1  0.4859660000000  0.6054390000000  0.4642780000000 1.0
C      1  0.4325900000000  0.4933180000000  0.5193420000000 1.0
C      1  0.5009570000000  0.6163480000000  0.5092540000000 1.0
C      1  0.5007870000000  0.5367230000000  0.4512540000000 1.0
C      1  0.5868830000000  0.5360780000000  0.4449020000000 1.0
C      1  0.4092120000000  0.4960740000000  0.4584960000000 1.0
C      1  0.5535750000000  0.5143130000000  0.4840900000000 1.0
C      1  0.6063140000000  0.4844700000000  0.5402970000000 1.0
C      1  0.3801790000000  0.5131010000000  0.5690480000000 1.0
C      1  0.5646530000000  0.6129250000000  0.5982770000000 1.0
C      1  0.4256460000000  0.4262540000000  0.5109440000000 1.0
C      1  0.4013460000000  0.4800640000000  0.3921000000000 1.0
C      1  0.4871790000000  0.5182820000000  0.6114850000000 1.0
C      1  0.5211680000000  0.4169130000000  0.5351750000000 1.0
C      1  0.5582000000000  0.4477020000000  0.5121340000000 1.0
C      1  0.4792260000000  0.3859940000000  0.5046320000000 1.0
C      1  0.4660840000000  0.4813450000000  0.4231280000000 1.0
C      1  0.5060660000000  0.3824170000000  0.4947880000000 1.0
C      1  0.4263480000000  0.4715140000000  0.4523500000000 1.0
C      1  0.5196760000000  0.6050900000000  0.5252260000000 1.0
C      1  0.5848390000000  0.4690500000000  0.5512640000000 1.0
C      1  0.5662690000000  0.5686410000000  0.5681170000000 1.0
C      1  0.4642380000000  0.4271490000000  0.5751370000000 1.0
C      1  0.4650870000000  0.4463220000000  0.4902980000000 1.0
C      1  0.5724650000000  0.5549040000000  0.4613680000000 1.0
C      1  0.6015140000000  0.5556470000000  0.5016310000000 1.0
C      1  0.5308260000000  0.3940160000000  0.5483800000000 1.0
C      1  0.5430980000000  0.4937510000000  0.5240850000000 1.0
C      1  0.5895540000000  0.4306140000000  0.4653240000000 1.0
C      1  0.4363840000000  0.4193970000000  0.4477660000000 1.0
C      1  0.5355760000000  0.3810910000000  0.5712990000000 1.0
C      1  0.6088640000000  0.4720740000000  0.4850040000000 1.0
C      1  0.6354090000000  0.4629670000000  0.4012960000000 1.0
C      1  0.4775920000000  0.4930950000000  0.6144840000000 1.0
C      1  0.4420030000000  0.5054260000000  0.5679290000000 1.0
C      1  0.4684990000000  0.4710030000000  0.5989150000000 1.0
C      1  0.5915930000000  0.5100750000000  0.5075680000000 1.0
C      1  0.4959750000000  0.5591120000000  0.3734970000000 1.0
C      1  0.5581080000000  0.3956990000000  0.4809920000000 1.0
C      1  0.5570320000000  0.5969500000000  0.4891950000000 1.0
C      1  0.4271430000000  0.4461400000000  0.5314870000000 1.0
C      1  0.4227820000000  0.5036630000000  0.5469050000000 1.0
C      1  0.4143890000000  0.4690900000000  0.5204050000000 1.0
C      1  0.5246960000000  0.5251560000000  0.4392070000000 1.0
C      1  0.3613660000000  0.4999590000000  0.4712490000000 1.0
C      1  0.4467980000000  0.5419440000000  0.5386350000000 1.0
C      1  0.6029470000000  0.4002570000000  0.5068460000000 1.0
C      1  0.6548500000000  0.4552840000000  0.3857200000000 1.0
C      1  0.4529440000000  0.4502700000000  0.5549340000000 1.0
C      1  0.3755030000000  0.4685320000000  0.4371500000000 1.0
C      1  0.5677310000000  0.4732160000000  0.4244710000000 1.0
C      1  0.4841360000000  0.4984880000000  0.4749850000000 1.0
C      1  0.4017090000000  0.4252220000000  0.4944000000000 1.0
C      1  0.5867520000000  0.5587640000000  0.5489470000000 1.0
C      1  0.4714100000000  0.4631050000000  0.4027000000000 1.0
C      1  0.4635280000000  0.5916960000000  0.5303060000000 1.0
C      1  0.3645440000000  0.4794190000000  0.5167510000000 1.0
C      1  0.5560020000000  0.4475640000000  0.4259960000000 1.0
C      1  0.5947260000000  0.4778900000000  0.4345710000000 1.0
C      1  0.5155620000000  0.4879900000000  0.3719920000000 1.0
C      1  0.5656980000000  0.4154090000000  0.4612810000000 1.0
C      1  0.4603060000000  0.5089190000000  0.4804970000000 1.0
C      1  0.3810890000000  0.4917200000000  0.4531460000000 1.0
C      1  0.5184570000000  0.5691930000000  0.3837280000000 1.0
C      1  0.4267060000000  0.5953260000000  0.5007950000000 1.0
C      1  0.4645120000000  0.5555930000000  0.4247370000000 1.0
C      1  0.5611030000000  0.4992680000000  0.5838120000000 1.0
C      1  0.5744470000000  0.4248800000000  0.5764950000000 1.0
C      1  0.4734180000000  0.4418660000000  0.3877020000000 1.0
C      1  0.5027400000000  0.5516860000000  0.4777820000000 1.0
C      1  0.4544520000000  0.4713570000000  0.4465740000000 1.0
C      1  0.4502620000000  0.4229990000000  0.4972910000000 1.0
C      1  0.5662610000000  0.5912130000000  0.5839600000000 1.0
C      1  0.4018080000000  0.5824740000000  0.5403560000000 1.0
C      1  0.6027710000000  0.5294560000000  0.4901630000000 1.0
C      1  0.4860500000000  0.5581210000000  0.5806370000000 1.0
C      1  0.5125830000000  0.4824320000000  0.5641050000000 1.0
C      1  0.4808990000000  0.5019290000000  0.5347760000000 1.0
C      1  0.5416810000000  0.5107110000000  0.6017710000000 1.0
C      1  0.4772390000000  0.5410260000000  0.3674930000000 1.0
C      1  0.6160980000000  0.4237920000000  0.5025450000000 1.0
C      1  0.4212520000000  0.4928180000000  0.3794160000000 1.0
C      1  0.5312620000000  0.3867750000000  0.4856120000000 1.0
C      1  0.5795470000000  0.3891360000000  0.4987660000000 1.0
C      1  0.4804540000000  0.4479470000000  0.5340130000000 1.0
C      1  0.5688640000000  0.5370400000000  0.4215980000000 1.0
C      1  0.4549050000000  0.6007160000000  0.5043710000000 1.0
C      1  0.5406670000000  0.5718690000000  0.3982650000000 1.0
C      1  0.4601330000000  0.3984960000000  0.4867880000000 1.0
C      1  0.4593190000000  0.4801030000000  0.5716590000000 1.0
C      1  0.5528730000000  0.4870900000000  0.4739720000000 1.0
C      1  0.4619610000000  0.4866360000000  0.5200980000000 1.0
C      1  0.5394950000000  0.4094190000000  0.6113770000000 1.0
C      1  0.3842440000000  0.4701650000000  0.4103180000000 1.0
C      1  0.4692390000000  0.4551480000000  0.4642410000000 1.0
C      1  0.4914530000000  0.4959610000000  0.3637980000000 1.0
C      1  0.6063160000000  0.4858800000000  0.5109730000000 1.0
C      1  0.5570210000000  0.4640220000000  0.4884630000000 1.0
C      1  0.4721720000000  0.4617690000000  0.5122270000000 1.0
C      1  0.5255030000000  0.5566690000000  0.5453420000000 1.0
C      1  0.5512860000000  0.4927360000000  0.4115440000000 1.0
C      1  0.4112640000000  0.5758020000000  0.5667490000000 1.0
C      1  0.4858470000000  0.4898700000000  0.5598800000000 1.0
C      1  0.5303190000000  0.5602140000000  0.4772750000000 1.0
C      1  0.5031870000000  0.5133910000000  0.5231140000000 1.0
C      1  0.5389420000000  0.5875320000000  0.4659810000000 1.0
C      1  0.3947300000000  0.4980900000000  0.5508030000000 1.0
C      1  0.4794810000000  0.4439090000000  0.5957980000000 1.0
C      1  0.5585100000000  0.5649610000000  0.4186270000000 1.0
C      1  0.6156650000000  0.4706910000000  0.4171760000000 1.0
C      1  0.3884560000000  0.4781850000000  0.5308340000000 1.0
C      1  0.3539140000000  0.4917450000000  0.4955890000000 1.0
C      1  0.5591250000000  0.4466820000000  0.5879330000000 1.0
C      1  0.4570320000000  0.5566190000000  0.5801030000000 1.0
C      1  0.5635130000000  0.5091140000000  0.5114260000000 1.0
C      1  0.4143750000000  0.5511070000000  0.4713580000000 1.0
C      1  0.6075460000000  0.4431000000000  0.4833840000000 1.0
C      1  0.3944680000000  0.5597920000000  0.5825390000000 1.0
C      1  0.5355020000000  0.4362040000000  0.6019380000000 1.0
C      1  0.5510790000000  0.4248450000000  0.4393480000000 1.0
C      1  0.4417630000000  0.5385490000000  0.5129140000000 1.0
C      1  0.5372910000000  0.5829260000000  0.5304860000000 1.0
C      1  0.4433830000000  0.5047240000000  0.3700280000000 1.0
C      1  0.5132000000000  0.5391630000000  0.5230850000000 1.0
C      1  0.5349720000000  0.4834630000000  0.5490940000000 1.0
C      1  0.4769480000000  0.4076500000000  0.5547940000000 1.0
C      1  0.4118460000000  0.5688970000000  0.4943170000000 1.0
C      1  0.4786940000000  0.5334620000000  0.4334990000000 1.0
C      1  0.5005670000000  0.5388610000000  0.5967020000000 1.0
C      1  0.4789280000000  0.6110770000000  0.4914110000000 1.0
C      1  0.4497270000000  0.5746910000000  0.4386590000000 1.0
C      1  0.4492960000000  0.5331880000000  0.5659080000000 1.0
C      1  0.5140920000000  0.6025520000000  0.4585340000000 1.0
C      1  0.4648190000000  0.5967320000000  0.4476950000000 1.0
C      1  0.3734620000000  0.4447490000000  0.4532990000000 1.0
C      1  0.3957870000000  0.4355180000000  0.4683560000000 1.0
C      1  0.5520570000000  0.5416390000000  0.4773050000000 1.0
C      1  0.4838370000000  0.5723370000000  0.5297060000000 1.0
C      1  0.5614900000000  0.5836120000000  0.5145040000000 1.0
C      1  0.4980830000000  0.5673040000000  0.5559700000000 1.0
C      1  0.4197180000000  0.4422650000000  0.4540060000000 1.0
C      1  0.5656280000000  0.5214810000000  0.5652390000000 1.0
C      1  0.4255150000000  0.5647090000000  0.4490850000000 1.0
C      1  0.5765440000000  0.4468800000000  0.5344610000000 1.0
C      1  0.5596740000000  0.5769650000000  0.4452270000000 1.0
C      1  0.4346940000000  0.5146470000000  0.4966020000000 1.0
C      1  0.5360380000000  0.4310680000000  0.5164960000000 1.0
C      1  0.5387450000000  0.3863440000000  0.5974340000000 1.0
C      1  0.5691740000000  0.4724700000000  0.5769010000000 1.0
END
