TITL C-627111-6168-1080 0.000285170134069785 125000 -509.722210508786 0 0 84 (C1) n - 1
REM
REM in /home/nfs/bkarasulu/CARBON/AIRSS/Generating-Clusters/LCBOP/Only-C1/SD-CG/FIRE-CG
REM
REM
REM
REM
REM
REM ./C.cell (11c1c37f851c82e70ff6c80c92926a4b)
REM AIRSS Version 0.9.1 bugfix July 2018 build 013d7b7c2542+ Fri, 06 Jul 2018 19:26:36 +0100
REM compiler GCC version 9.2.1 20190827 (Red Hat 9.2.1-1)
REM options -cpp -mtune=generic -march=x86-64 -g -O0 -fpre-include=/usr/include/finclude/math-vector-fortran.h
REM seed 1905590344 1203363596 1420977484 584163240 1600837060 695502914 -474100387 1029565040 1861212470 1116705232 1971255129 -1496552516 742787804 -1745808225 -2044643400 852205233 635194588 1987850074 -1727320097 1821935247 644933427 741697455 -247890782 1308739942 2112401101 1858900223 444828087 1598465560 53100118 -2069902539 -59218081 176772794 -1088329063
REM
CELL 1.54180   50.00000   50.00000   50.00000   90.00000   90.00000   90.00000
LATT -1
SFAC C  
C      1  0.4017430000000  0.5184940000000  0.5244800000000 1.0
C      1  0.5044770000000  0.4979010000000  0.3689100000000 1.0
C      1  0.4278650000000  0.4460440000000  0.5051940000000 1.0
C      1  0.4824060000000  0.4378560000000  0.5477310000000 1.0
C      1  0.5916940000000  0.5203690000000  0.4701350000000 1.0
C      1  0.4106630000000  0.4994740000000  0.5061730000000 1.0
C      1  0.4149500000000  0.4670180000000  0.5206980000000 1.0
C      1  0.4463150000000  0.4830620000000  0.4827690000000 1.0
C      1  0.4491770000000  0.5754300000000  0.5204140000000 1.0
C      1  0.4521350000000  0.4597180000000  0.4268000000000 1.0
C      1  0.4760730000000  0.5571660000000  0.5576040000000 1.0
C      1  0.4701440000000  0.4826720000000  0.4981040000000 1.0
C      1  0.5633850000000  0.5182200000000  0.5449730000000 1.0
C      1  0.5263380000000  0.5228720000000  0.5016860000000 1.0
C      1  0.5019160000000  0.5056540000000  0.3941120000000 1.0
C      1  0.4725250000000  0.4659240000000  0.5911960000000 1.0
C      1  0.5116560000000  0.4366610000000  0.5471590000000 1.0
C      1  0.4960400000000  0.4072720000000  0.5150740000000 1.0
C      1  0.5211540000000  0.5244100000000  0.4351300000000 1.0
C      1  0.5802900000000  0.5167330000000  0.5240080000000 1.0
C      1  0.4904790000000  0.5340120000000  0.4711220000000 1.0
C      1  0.4797010000000  0.4885910000000  0.6033070000000 1.0
C      1  0.5347690000000  0.6302090000000  0.4496740000000 1.0
C      1  0.4297910000000  0.5056130000000  0.4852590000000 1.0
C      1  0.4498660000000  0.4105820000000  0.4826270000000 1.0
C      1  0.4478530000000  0.4245620000000  0.5077970000000 1.0
C      1  0.5638920000000  0.4189070000000  0.5447560000000 1.0
C      1  0.4268470000000  0.4735020000000  0.5450730000000 1.0
C      1  0.5589600000000  0.4456040000000  0.5477780000000 1.0
C      1  0.4579990000000  0.4859120000000  0.4268890000000 1.0
C      1  0.5054320000000  0.4051070000000  0.4884910000000 1.0
C      1  0.4322520000000  0.5538070000000  0.4784010000000 1.0
C      1  0.5169650000000  0.5040340000000  0.5533400000000 1.0
C      1  0.4083640000000  0.5324370000000  0.5463350000000 1.0
C      1  0.4513240000000  0.5498840000000  0.5694060000000 1.0
C      1  0.5374740000000  0.5230260000000  0.5555550000000 1.0
C      1  0.6663110000000  0.5366940000000  0.4444060000000 1.0
C      1  0.5878690000000  0.5175210000000  0.4981790000000 1.0
C      1  0.5502500000000  0.5634010000000  0.5160780000000 1.0
C      1  0.4510220000000  0.4164680000000  0.4563260000000 1.0
C      1  0.5270890000000  0.5499330000000  0.5582540000000 1.0
C      1  0.5100350000000  0.4586160000000  0.5021140000000 1.0
C      1  0.4342870000000  0.5713230000000  0.4985220000000 1.0
C      1  0.5210950000000  0.5853980000000  0.4759620000000 1.0
C      1  0.5173220000000  0.4101460000000  0.5348350000000 1.0
C      1  0.4500460000000  0.4869140000000  0.5439450000000 1.0
C      1  0.4264410000000  0.5418730000000  0.5636130000000 1.0
C      1  0.4734950000000  0.5652950000000  0.5306610000000 1.0
C      1  0.4985660000000  0.5345060000000  0.4988210000000 1.0
C      1  0.5284030000000  0.4721250000000  0.5189440000000 1.0
C      1  0.4929450000000  0.5604420000000  0.5110760000000 1.0
C      1  0.5712880000000  0.5179950000000  0.4504620000000 1.0
C      1  0.5485730000000  0.5174170000000  0.4359490000000 1.0
C      1  0.4949060000000  0.4989040000000  0.5392830000000 1.0
C      1  0.6421780000000  0.5313910000000  0.4527180000000 1.0
C      1  0.4711430000000  0.4484690000000  0.5710040000000 1.0
C      1  0.4716360000000  0.4226700000000  0.5244610000000 1.0
C      1  0.5330840000000  0.4561510000000  0.5421860000000 1.0
C      1  0.4325060000000  0.4589240000000  0.4799290000000 1.0
C      1  0.5366460000000  0.4954740000000  0.5026310000000 1.0
C      1  0.5134970000000  0.5423260000000  0.4554920000000 1.0
C      1  0.5009930000000  0.5513200000000  0.5709140000000 1.0
C      1  0.6176530000000  0.5260020000000  0.4611700000000 1.0
C      1  0.4939060000000  0.4655320000000  0.4584200000000 1.0
C      1  0.4908910000000  0.4686340000000  0.4852270000000 1.0
C      1  0.4510900000000  0.4347640000000  0.4366530000000 1.0
C      1  0.4893460000000  0.5133980000000  0.6053040000000 1.0
C      1  0.4980080000000  0.5365250000000  0.5950090000000 1.0
C      1  0.4716250000000  0.4906230000000  0.5262010000000 1.0
C      1  0.5241710000000  0.4151280000000  0.4719820000000 1.0
C      1  0.4731210000000  0.5087170000000  0.4342530000000 1.0
C      1  0.5026920000000  0.5837050000000  0.4973670000000 1.0
C      1  0.5068970000000  0.4901250000000  0.3441450000000 1.0
C      1  0.5512500000000  0.4593690000000  0.4676880000000 1.0
C      1  0.4989750000000  0.5127600000000  0.4209820000000 1.0
C      1  0.5400910000000  0.5680120000000  0.5408410000000 1.0
C      1  0.5280280000000  0.6085480000000  0.4625010000000 1.0
C      1  0.5439910000000  0.4015000000000  0.5379840000000 1.0
C      1  0.4411170000000  0.5281020000000  0.4714410000000 1.0
C      1  0.5315750000000  0.5593980000000  0.4703050000000 1.0
C      1  0.5497500000000  0.4833710000000  0.4799270000000 1.0
C      1  0.5426130000000  0.5466270000000  0.4943200000000 1.0
C      1  0.5416300000000  0.4343950000000  0.4652480000000 1.0
C      1  0.4670390000000  0.5243300000000  0.4581050000000 1.0
END
