TITL C-627110-360-551 347.15352288491 125000 -1136.37652424719 0 0 184 (C1) n - 1
REM
REM in /home/nfs/bkarasulu/CARBON/AIRSS/Generating-Clusters/LCBOP/Only-C1/SD-CG/FIRE-CG
REM
REM
REM
REM
REM
REM ./C.cell (11c1c37f851c82e70ff6c80c92926a4b)
REM AIRSS Version 0.9.1 bugfix July 2018 build 013d7b7c2542+ Fri, 06 Jul 2018 19:26:36 +0100
REM compiler GCC version 9.2.1 20190827 (Red Hat 9.2.1-1)
REM options -cpp -mtune=generic -march=x86-64 -g -O0 -fpre-include=/usr/include/finclude/math-vector-fortran.h
REM seed -699747038 -1557290990 -614856172 -230249253 -594354162 1634673939 683330876 -1607338163 -2045656380 70869948 -1905827487 -1222317666 201449438 -1718852296 -920341236 -1514214899 -864176918 -2100472001 1783336250 -985284628 1707324160 -1961291297 1488209617 188151523 1398280335 -1512410250 460712605 1867816356 -769668295 1048578104 -1758239581 1525655283 -483009654
REM
CELL 1.54180   50.00000   50.00000   50.00000   90.00000   90.00000   90.00000
LATT -1
SFAC C  
C      1  0.5042110000000  0.4462760000000  0.5630800000000 1.0
C      1  0.4446340000000  0.5136290000000  0.5634540000000 1.0
C      1  0.4279660000000  0.5533250000000  0.4800000000000 1.0
C      1  0.5276700000000  0.4709850000000  0.4119420000000 1.0
C      1  0.4398640000000  0.3692330000000  0.5264080000000 1.0
C      1  0.4952560000000  0.5178180000000  0.3592620000000 1.0
C      1  0.5614670000000  0.4513430000000  0.4959950000000 1.0
C      1  0.5995120000000  0.5007570000000  0.5753160000000 1.0
C      1  0.5448740000000  0.4832390000000  0.6029960000000 1.0
C      1  0.5553920000000  0.5785630000000  0.5480780000000 1.0
C      1  0.4279110000000  0.4509200000000  0.4797480000000 1.0
C      1  0.4810590000000  0.5859820000000  0.4292230000000 1.0
C      1  0.6211360000000  0.4885470000000  0.4684180000000 1.0
C      1  0.4416510000000  0.3734120000000  0.4745620000000 1.0
C      1  0.4372590000000  0.4172820000000  0.4452720000000 1.0
C      1  0.4784310000000  0.5703300000000  0.5371120000000 1.0
C      1  0.4498710000000  0.5081770000000  0.4417420000000 1.0
C      1  0.4110460000000  0.4685210000000  0.4933810000000 1.0
C      1  0.4556820000000  0.5811570000000  0.5724940000000 1.0
C      1  0.4280330000000  0.4843100000000  0.6130500000000 1.0
C      1  0.4191750000000  0.5800860000000  0.4810660000000 1.0
C      1  0.5220760000000  0.4906740000000  0.4572270000000 1.0
C      1  0.5439570000000  0.4231360000000  0.5994740000000 1.0
C      1  0.5078040000000  0.4189030000000  0.5553950000000 1.0
C      1  0.5634370000000  0.4075590000000  0.5167590000000 1.0
C      1  0.3779500000000  0.5241530000000  0.5440120000000 1.0
C      1  0.6366470000000  0.5100600000000  0.4584680000000 1.0
C      1  0.4414040000000  0.3899240000000  0.5456950000000 1.0
C      1  0.5250330000000  0.5022350000000  0.5976880000000 1.0
C      1  0.4411960000000  0.3910260000000  0.4544840000000 1.0
C      1  0.4245050000000  0.5333740000000  0.5655080000000 1.0
C      1  0.4821890000000  0.5401380000000  0.3673380000000 1.0
C      1  0.4836750000000  0.4250870000000  0.4218410000000 1.0
C      1  0.4088410000000  0.5350330000000  0.5886500000000 1.0
C      1  0.5110330000000  0.4992850000000  0.3706580000000 1.0
C      1  0.4979510000000  0.3965630000000  0.6007590000000 1.0
C      1  0.4375870000000  0.5980470000000  0.4962440000000 1.0
C      1  0.4855530000000  0.4072670000000  0.5423760000000 1.0
C      1  0.5807380000000  0.5637220000000  0.5859140000000 1.0
C      1  0.4687030000000  0.4855880000000  0.5353950000000 1.0
C      1  0.5895140000000  0.4532510000000  0.4980600000000 1.0
C      1  0.4924410000000  0.4250580000000  0.4698080000000 1.0
C      1  0.4541900000000  0.4773800000000  0.6119790000000 1.0
C      1  0.4416930000000  0.5945490000000  0.5245070000000 1.0
C      1  0.5317970000000  0.4114800000000  0.4455760000000 1.0
C      1  0.5781450000000  0.5617720000000  0.5572960000000 1.0
C      1  0.5095750000000  0.5577350000000  0.4659260000000 1.0
C      1  0.4035080000000  0.5194910000000  0.5015990000000 1.0
C      1  0.4692130000000  0.5276490000000  0.5691020000000 1.0
C      1  0.5584340000000  0.5507240000000  0.4972410000000 1.0
C      1  0.5778060000000  0.4779660000000  0.4348470000000 1.0
C      1  0.4762950000000  0.3903030000000  0.5855390000000 1.0
C      1  0.5569150000000  0.4985230000000  0.3824710000000 1.0
C      1  0.4580490000000  0.4360650000000  0.5140450000000 1.0
C      1  0.5608250000000  0.4404350000000  0.5845760000000 1.0
C      1  0.5251330000000  0.5827890000000  0.4693790000000 1.0
C      1  0.5953330000000  0.4976450000000  0.4793270000000 1.0
C      1  0.5330160000000  0.5848870000000  0.6018450000000 1.0
C      1  0.5590120000000  0.5758790000000  0.6008140000000 1.0
C      1  0.4758790000000  0.4478850000000  0.4689560000000 1.0
C      1  0.5030390000000  0.4174060000000  0.4442280000000 1.0
C      1  0.3781170000000  0.4182290000000  0.4805760000000 1.0
C      1  0.4112000000000  0.4552080000000  0.5698130000000 1.0
C      1  0.5433060000000  0.4716630000000  0.5042610000000 1.0
C      1  0.4463820000000  0.4579270000000  0.4190840000000 1.0
C      1  0.4016030000000  0.4914190000000  0.5029190000000 1.0
C      1  0.3906230000000  0.5140750000000  0.5922080000000 1.0
C      1  0.6260430000000  0.5504620000000  0.6118670000000 1.0
C      1  0.6253720000000  0.5383710000000  0.5062450000000 1.0
C      1  0.4983090000000  0.6149710000000  0.4956950000000 1.0
C      1  0.4143930000000  0.5291000000000  0.4763240000000 1.0
C      1  0.4549620000000  0.4312690000000  0.4275700000000 1.0
C      1  0.4405920000000  0.3651720000000  0.4999430000000 1.0
C      1  0.4968760000000  0.6079530000000  0.4449820000000 1.0
C      1  0.3845320000000  0.4780730000000  0.4374710000000 1.0
C      1  0.4831010000000  0.5839080000000  0.5806570000000 1.0
C      1  0.5597460000000  0.4201670000000  0.4424110000000 1.0
C      1  0.5074340000000  0.5311510000000  0.5404580000000 1.0
C      1  0.5488490000000  0.6076890000000  0.5066200000000 1.0
C      1  0.5587860000000  0.5188730000000  0.4527230000000 1.0
C      1  0.4249470000000  0.4130090000000  0.5395990000000 1.0
C      1  0.5756310000000  0.4968120000000  0.4567330000000 1.0
C      1  0.4400030000000  0.6054310000000  0.4478600000000 1.0
C      1  0.5648620000000  0.5901790000000  0.5223100000000 1.0
C      1  0.5121430000000  0.4640350000000  0.5427270000000 1.0
C      1  0.3996360000000  0.4101720000000  0.5273600000000 1.0
C      1  0.4324510000000  0.5763510000000  0.5458390000000 1.0
C      1  0.3700480000000  0.4807790000000  0.5687950000000 1.0
C      1  0.3990950000000  0.5348020000000  0.5267290000000 1.0
C      1  0.5495190000000  0.4253950000000  0.4999850000000 1.0
C      1  0.4538180000000  0.5970530000000  0.4245990000000 1.0
C      1  0.5692280000000  0.5491220000000  0.4194650000000 1.0
C      1  0.4932030000000  0.4396050000000  0.3982530000000 1.0
C      1  0.5646410000000  0.4684710000000  0.5898830000000 1.0
C      1  0.4617130000000  0.4784850000000  0.4047860000000 1.0
C      1  0.5930600000000  0.3661130000000  0.4995860000000 1.0
C      1  0.5219570000000  0.4083720000000  0.6051800000000 1.0
C      1  0.4465120000000  0.4864190000000  0.5525470000000 1.0
C      1  0.4153860000000  0.5929260000000  0.4556600000000 1.0
C      1  0.5178650000000  0.5301470000000  0.5134480000000 1.0
C      1  0.3835050000000  0.4114000000000  0.5060010000000 1.0
C      1  0.5333060000000  0.4072960000000  0.5534670000000 1.0
C      1  0.5120700000000  0.5094610000000  0.4726920000000 1.0
C      1  0.5899260000000  0.5497130000000  0.5325600000000 1.0
C      1  0.5786130000000  0.3860510000000  0.5081230000000 1.0
C      1  0.5331780000000  0.5237030000000  0.5812270000000 1.0
C      1  0.5250910000000  0.5991120000000  0.4458820000000 1.0
C      1  0.5834450000000  0.4793090000000  0.5706990000000 1.0
C      1  0.5174020000000  0.5743590000000  0.5122390000000 1.0
C      1  0.4658170000000  0.5057940000000  0.4164520000000 1.0
C      1  0.4907670000000  0.4550180000000  0.5861280000000 1.0
C      1  0.5206010000000  0.4443260000000  0.3972490000000 1.0
C      1  0.4781570000000  0.4620050000000  0.3881180000000 1.0
C      1  0.6329000000000  0.5370220000000  0.4599130000000 1.0
C      1  0.5266180000000  0.5402950000000  0.5598650000000 1.0
C      1  0.5207080000000  0.4593930000000  0.5166340000000 1.0
C      1  0.4660680000000  0.4928980000000  0.4597670000000 1.0
C      1  0.6166260000000  0.4618690000000  0.4575180000000 1.0
C      1  0.4820420000000  0.5485060000000  0.3943090000000 1.0
C      1  0.4432880000000  0.5995490000000  0.3994970000000 1.0
C      1  0.5310970000000  0.4909340000000  0.3887360000000 1.0
C      1  0.5584920000000  0.5363580000000  0.4740580000000 1.0
C      1  0.3734430000000  0.5094360000000  0.5680800000000 1.0
C      1  0.5609280000000  0.4352540000000  0.4181220000000 1.0
C      1  0.4793210000000  0.4170980000000  0.5165530000000 1.0
C      1  0.5832520000000  0.4239230000000  0.4592860000000 1.0
C      1  0.4906020000000  0.5663370000000  0.5123860000000 1.0
C      1  0.4831040000000  0.6151130000000  0.4709830000000 1.0
C      1  0.5567770000000  0.4640640000000  0.4224470000000 1.0
C      1  0.3897780000000  0.4318380000000  0.4587690000000 1.0
C      1  0.4653090000000  0.4983340000000  0.4867590000000 1.0
C      1  0.4791410000000  0.5461750000000  0.4963810000000 1.0
C      1  0.5300230000000  0.5691850000000  0.5597420000000 1.0
C      1  0.5039460000000  0.5339270000000  0.4856900000000 1.0
C      1  0.4811770000000  0.4758550000000  0.6025360000000 1.0
C      1  0.4391310000000  0.4380790000000  0.5353700000000 1.0
C      1  0.5222250000000  0.4319840000000  0.5056090000000 1.0
C      1  0.5591530000000  0.4140280000000  0.5439630000000 1.0
C      1  0.4544870000000  0.6104970000000  0.4734280000000 1.0
C      1  0.5941010000000  0.4716560000000  0.5207540000000 1.0
C      1  0.4823640000000  0.4702130000000  0.4519980000000 1.0
C      1  0.5810770000000  0.5678110000000  0.5072870000000 1.0
C      1  0.5133170000000  0.5822810000000  0.5806310000000 1.0
C      1  0.3913850000000  0.4686960000000  0.5837630000000 1.0
C      1  0.6040030000000  0.5557760000000  0.5990120000000 1.0
C      1  0.4855960000000  0.5628600000000  0.4494820000000 1.0
C      1  0.4899160000000  0.6424250000000  0.5352960000000 1.0
C      1  0.5670990000000  0.5748120000000  0.4325250000000 1.0
C      1  0.5356020000000  0.5526460000000  0.5121200000000 1.0
C      1  0.3780560000000  0.4528640000000  0.4441270000000 1.0
C      1  0.6037960000000  0.4662590000000  0.4322560000000 1.0
C      1  0.4021000000000  0.4887460000000  0.6022310000000 1.0
C      1  0.4889670000000  0.5258820000000  0.4121920000000 1.0
C      1  0.4221110000000  0.5137950000000  0.4517180000000 1.0
C      1  0.5496800000000  0.5292620000000  0.4277380000000 1.0
C      1  0.5853330000000  0.4616690000000  0.5471740000000 1.0
C      1  0.4740650000000  0.4934020000000  0.5109600000000 1.0
C      1  0.5957210000000  0.4995690000000  0.5097110000000 1.0
C      1  0.4665440000000  0.3939790000000  0.5590300000000 1.0
C      1  0.5226460000000  0.5359130000000  0.4189000000000 1.0
C      1  0.4967460000000  0.5000300000000  0.6018660000000 1.0
C      1  0.4182360000000  0.4330630000000  0.4598180000000 1.0
C      1  0.4943950000000  0.5727290000000  0.4050750000000 1.0
C      1  0.4326910000000  0.4605500000000  0.5525980000000 1.0
C      1  0.6038450000000  0.5258440000000  0.5210200000000 1.0
C      1  0.4858180000000  0.6190660000000  0.5216050000000 1.0
C      1  0.4546740000000  0.5490470000000  0.4853120000000 1.0
C      1  0.5232650000000  0.5976890000000  0.4953000000000 1.0
C      1  0.4818700000000  0.5432940000000  0.5491240000000 1.0
C      1  0.5397100000000  0.5846770000000  0.4259900000000 1.0
C      1  0.6013140000000  0.4428710000000  0.4736940000000 1.0
C      1  0.5220130000000  0.5656760000000  0.4118710000000 1.0
C      1  0.4544030000000  0.4472970000000  0.4881240000000 1.0
C      1  0.4010350000000  0.4990270000000  0.4395560000000 1.0
C      1  0.4189000000000  0.5506980000000  0.5430470000000 1.0
C      1  0.5981110000000  0.5699080000000  0.4809540000000 1.0
C      1  0.5434360000000  0.4276210000000  0.3969360000000 1.0
C      1  0.4995020000000  0.4187780000000  0.4965220000000 1.0
C      1  0.5843470000000  0.5784390000000  0.4560380000000 1.0
C      1  0.4817590000000  0.5225090000000  0.5936220000000 1.0
C      1  0.5086580000000  0.4750010000000  0.4379710000000 1.0
C      1  0.5715010000000  0.4361610000000  0.5570840000000 1.0
C      1  0.4693300000000  0.5983320000000  0.5327560000000 1.0
C      1  0.6213140000000  0.5517880000000  0.4811960000000 1.0
END
