TITL C-627111-6168-1262 0.0106677800349271 125000 -1155.11094014642 0 0 191 (C1) n - 1
REM
REM in /home/nfs/bkarasulu/CARBON/AIRSS/Generating-Clusters/LCBOP/Only-C1/SD-CG/FIRE-CG
REM
REM
REM
REM
REM
REM ./C.cell (11c1c37f851c82e70ff6c80c92926a4b)
REM AIRSS Version 0.9.1 bugfix July 2018 build 013d7b7c2542+ Fri, 06 Jul 2018 19:26:36 +0100
REM compiler GCC version 9.2.1 20190827 (Red Hat 9.2.1-1)
REM options -cpp -mtune=generic -march=x86-64 -g -O0 -fpre-include=/usr/include/finclude/math-vector-fortran.h
REM seed 1653552533 1831944294 -479559819 1799272543 -1255478211 1756179859 -1435447843 1955558432 -633908622 741752658 1432120207 -679769850 72552266 1590229554 -1672421838 -325234016 472953997 -2078174457 1594765485 155851843 1887474845 1106601799 -387453169 552166997 1268677312 1067964806 1193436765 -205274284 1704966071 -1587071118 -23691663 -1955261048 891093709
REM
CELL 1.54180   50.00000   50.00000   50.00000   90.00000   90.00000   90.00000
LATT -1
SFAC C  
C      1  0.5108680000000  0.4612760000000  0.5395740000000 1.0
C      1  0.5426100000000  0.5131980000000  0.5303300000000 1.0
C      1  0.4357200000000  0.4978610000000  0.5224220000000 1.0
C      1  0.4496000000000  0.5916600000000  0.4167990000000 1.0
C      1  0.4397740000000  0.4707210000000  0.4406790000000 1.0
C      1  0.5360980000000  0.5192070000000  0.6291690000000 1.0
C      1  0.4700500000000  0.4393090000000  0.5566220000000 1.0
C      1  0.6135960000000  0.5163570000000  0.4663080000000 1.0
C      1  0.5864010000000  0.4493630000000  0.5694520000000 1.0
C      1  0.4986960000000  0.4554960000000  0.5998540000000 1.0
C      1  0.5266420000000  0.4956610000000  0.5694900000000 1.0
C      1  0.6056050000000  0.5876220000000  0.4998640000000 1.0
C      1  0.5853490000000  0.4920860000000  0.4334190000000 1.0
C      1  0.4155380000000  0.4907770000000  0.5042130000000 1.0
C      1  0.4329390000000  0.6219070000000  0.4703290000000 1.0
C      1  0.3995320000000  0.4082830000000  0.5826810000000 1.0
C      1  0.4801410000000  0.3750010000000  0.5025250000000 1.0
C      1  0.4673110000000  0.5167170000000  0.4736380000000 1.0
C      1  0.4902940000000  0.5705550000000  0.4016640000000 1.0
C      1  0.4221880000000  0.4215680000000  0.4415440000000 1.0
C      1  0.5330080000000  0.4516770000000  0.5285560000000 1.0
C      1  0.5276910000000  0.6900740000000  0.5138020000000 1.0
C      1  0.6051090000000  0.4852330000000  0.5402840000000 1.0
C      1  0.4796030000000  0.4305510000000  0.3860170000000 1.0
C      1  0.4217510000000  0.4846930000000  0.3816110000000 1.0
C      1  0.5540760000000  0.5003640000000  0.6213170000000 1.0
C      1  0.4070960000000  0.6173120000000  0.4572740000000 1.0
C      1  0.4535320000000  0.5144130000000  0.6248770000000 1.0
C      1  0.5847870000000  0.5572500000000  0.4749990000000 1.0
C      1  0.5040770000000  0.5634330000000  0.4955580000000 1.0
C      1  0.5554300000000  0.4311250000000  0.4067520000000 1.0
C      1  0.5690200000000  0.4706670000000  0.4269620000000 1.0
C      1  0.5542860000000  0.5396610000000  0.4156770000000 1.0
C      1  0.5049460000000  0.5321660000000  0.5006450000000 1.0
C      1  0.5453900000000  0.6458700000000  0.5066630000000 1.0
C      1  0.5690880000000  0.4275340000000  0.5735870000000 1.0
C      1  0.5086810000000  0.3886370000000  0.5450450000000 1.0
C      1  0.5151810000000  0.4581810000000  0.4798520000000 1.0
C      1  0.3788740000000  0.5720350000000  0.4532330000000 1.0
C      1  0.5903830000000  0.4374520000000  0.5208850000000 1.0
C      1  0.5361850000000  0.4377090000000  0.4255570000000 1.0
C      1  0.6575700000000  0.4858570000000  0.4544350000000 1.0
C      1  0.4183060000000  0.5770930000000  0.4792740000000 1.0
C      1  0.5311160000000  0.7139540000000  0.5236640000000 1.0
C      1  0.5752400000000  0.4504510000000  0.4070410000000 1.0
C      1  0.4188190000000  0.4066520000000  0.5330000000000 1.0
C      1  0.4717460000000  0.5009320000000  0.3849190000000 1.0
C      1  0.5712140000000  0.5896970000000  0.4454110000000 1.0
C      1  0.4842760000000  0.6053850000000  0.4962960000000 1.0
C      1  0.5363240000000  0.3980820000000  0.5444230000000 1.0
C      1  0.4014530000000  0.5302650000000  0.4712700000000 1.0
C      1  0.4599920000000  0.5912430000000  0.5010880000000 1.0
C      1  0.7185800000000  0.4383660000000  0.4378430000000 1.0
C      1  0.5218590000000  0.5315330000000  0.5257330000000 1.0
C      1  0.4643360000000  0.5368360000000  0.6104140000000 1.0
C      1  0.4669590000000  0.5030100000000  0.5211340000000 1.0
C      1  0.5056670000000  0.4273120000000  0.6007460000000 1.0
C      1  0.5095630000000  0.5751210000000  0.5218970000000 1.0
C      1  0.6078200000000  0.5589310000000  0.4915880000000 1.0
C      1  0.5429000000000  0.3883010000000  0.4951340000000 1.0
C      1  0.5765630000000  0.6068580000000  0.4911750000000 1.0
C      1  0.4303850000000  0.4256380000000  0.4906570000000 1.0
C      1  0.4699650000000  0.4914330000000  0.6221650000000 1.0
C      1  0.5360860000000  0.5176460000000  0.4140300000000 1.0
C      1  0.5664060000000  0.6288120000000  0.5060290000000 1.0
C      1  0.4128960000000  0.3972700000000  0.5604350000000 1.0
C      1  0.4285740000000  0.4831050000000  0.5464330000000 1.0
C      1  0.5876440000000  0.5403990000000  0.5541790000000 1.0
C      1  0.5100350000000  0.5060440000000  0.5902240000000 1.0
C      1  0.4993330000000  0.5330290000000  0.4419760000000 1.0
C      1  0.5151220000000  0.5699520000000  0.4168060000000 1.0
C      1  0.3225000000000  0.4367920000000  0.5490400000000 1.0
C      1  0.4375350000000  0.4963670000000  0.5694770000000 1.0
C      1  0.5251140000000  0.5221260000000  0.4793140000000 1.0
C      1  0.3908440000000  0.4775190000000  0.4665220000000 1.0
C      1  0.4897760000000  0.5448550000000  0.6219480000000 1.0
C      1  0.5050250000000  0.5333860000000  0.5798920000000 1.0
C      1  0.4417950000000  0.5686830000000  0.4294170000000 1.0
C      1  0.5842890000000  0.4740500000000  0.5845670000000 1.0
C      1  0.4249320000000  0.5387470000000  0.5440180000000 1.0
C      1  0.5064190000000  0.4864540000000  0.5503130000000 1.0
C      1  0.5787490000000  0.6138880000000  0.3551080000000 1.0
C      1  0.5695680000000  0.4829250000000  0.6073290000000 1.0
C      1  0.4864710000000  0.4253350000000  0.4378800000000 1.0
C      1  0.6246650000000  0.6007850000000  0.5138270000000 1.0
C      1  0.5416440000000  0.5645580000000  0.4065860000000 1.0
C      1  0.3870410000000  0.4562370000000  0.4464350000000 1.0
C      1  0.6368930000000  0.5014570000000  0.4599570000000 1.0
C      1  0.4996900000000  0.3757680000000  0.5210930000000 1.0
C      1  0.6138190000000  0.5145630000000  0.5208080000000 1.0
C      1  0.5081570000000  0.6107200000000  0.4842530000000 1.0
C      1  0.5239620000000  0.6643460000000  0.5031630000000 1.0
C      1  0.5930240000000  0.5171640000000  0.4441060000000 1.0
C      1  0.4276860000000  0.4476890000000  0.4277860000000 1.0
C      1  0.4747380000000  0.4794790000000  0.5032660000000 1.0
C      1  0.4110680000000  0.4255760000000  0.5118090000000 1.0
C      1  0.4305100000000  0.5152770000000  0.6393210000000 1.0
C      1  0.4330530000000  0.4562500000000  0.5394940000000 1.0
C      1  0.4547800000000  0.3870530000000  0.5018330000000 1.0
C      1  0.4866500000000  0.3926710000000  0.5643650000000 1.0
C      1  0.6780180000000  0.4699460000000  0.4488760000000 1.0
C      1  0.4357210000000  0.3805040000000  0.5689420000000 1.0
C      1  0.5995600000000  0.4544830000000  0.5429300000000 1.0
C      1  0.5273770000000  0.4191330000000  0.6163360000000 1.0
C      1  0.5588000000000  0.6008650000000  0.4686010000000 1.0
C      1  0.4830430000000  0.4289840000000  0.4118090000000 1.0
C      1  0.5782490000000  0.5400540000000  0.4325180000000 1.0
C      1  0.4375650000000  0.4102370000000  0.6139220000000 1.0
C      1  0.5785880000000  0.4112550000000  0.5216990000000 1.0
C      1  0.4601460000000  0.4165230000000  0.5986000000000 1.0
C      1  0.4388640000000  0.3998460000000  0.4524570000000 1.0
C      1  0.5539660000000  0.5812530000000  0.3880200000000 1.0
C      1  0.4838140000000  0.3737580000000  0.4453030000000 1.0
C      1  0.5428700000000  0.4625810000000  0.4392410000000 1.0
C      1  0.4461860000000  0.3941740000000  0.5280880000000 1.0
C      1  0.5387350000000  0.4988620000000  0.4714650000000 1.0
C      1  0.4345940000000  0.5258390000000  0.5684660000000 1.0
C      1  0.5455430000000  0.4122910000000  0.6337310000000 1.0
C      1  0.4575580000000  0.5451120000000  0.4281610000000 1.0
C      1  0.4863780000000  0.4839380000000  0.5980100000000 1.0
C      1  0.4873040000000  0.5197230000000  0.3985710000000 1.0
C      1  0.5624980000000  0.5618290000000  0.5168920000000 1.0
C      1  0.3665170000000  0.4442120000000  0.5213020000000 1.0
C      1  0.4304460000000  0.5503360000000  0.5178910000000 1.0
C      1  0.5207070000000  0.5539120000000  0.5687880000000 1.0
C      1  0.5750580000000  0.5169690000000  0.5645270000000 1.0
C      1  0.5925890000000  0.4947380000000  0.5660620000000 1.0
C      1  0.5080880000000  0.5173400000000  0.4187050000000 1.0
C      1  0.4807920000000  0.5305830000000  0.5647740000000 1.0
C      1  0.4018220000000  0.4739740000000  0.3962220000000 1.0
C      1  0.5540660000000  0.4657940000000  0.5177550000000 1.0
C      1  0.5813030000000  0.4736250000000  0.4828660000000 1.0
C      1  0.5495370000000  0.4106640000000  0.5661440000000 1.0
C      1  0.3802110000000  0.5453860000000  0.4583290000000 1.0
C      1  0.5725910000000  0.5603600000000  0.5416340000000 1.0
C      1  0.5528320000000  0.3978660000000  0.5200180000000 1.0
C      1  0.3974460000000  0.4712100000000  0.4939630000000 1.0
C      1  0.5103020000000  0.5597910000000  0.4432960000000 1.0
C      1  0.3950190000000  0.4280640000000  0.4527950000000 1.0
C      1  0.5281920000000  0.3802980000000  0.4740030000000 1.0
C      1  0.4527310000000  0.5694830000000  0.5181120000000 1.0
C      1  0.4709400000000  0.4497650000000  0.5050820000000 1.0
C      1  0.4676110000000  0.4881430000000  0.4757850000000 1.0
C      1  0.4991330000000  0.6594640000000  0.4900050000000 1.0
C      1  0.6125540000000  0.5344070000000  0.5417390000000 1.0
C      1  0.4168430000000  0.5494160000000  0.4905100000000 1.0
C      1  0.5632590000000  0.4959680000000  0.4858510000000 1.0
C      1  0.4047620000000  0.5031130000000  0.4587160000000 1.0
C      1  0.5485230000000  0.5093900000000  0.5579380000000 1.0
C      1  0.6143510000000  0.5289420000000  0.4937090000000 1.0
C      1  0.4868070000000  0.4072240000000  0.5905700000000 1.0
C      1  0.3984620000000  0.5900030000000  0.4621880000000 1.0
C      1  0.5619060000000  0.5534710000000  0.4901570000000 1.0
C      1  0.3441550000000  0.4406110000000  0.5350380000000 1.0
C      1  0.4474440000000  0.4916340000000  0.3785350000000 1.0
C      1  0.5400650000000  0.5464150000000  0.4749770000000 1.0
C      1  0.4514290000000  0.6430940000000  0.4723360000000 1.0
C      1  0.4477130000000  0.4467760000000  0.4848510000000 1.0
C      1  0.4389130000000  0.5969450000000  0.4836010000000 1.0
C      1  0.5817930000000  0.5636460000000  0.4478710000000 1.0
C      1  0.4882910000000  0.4238670000000  0.4645100000000 1.0
C      1  0.3934130000000  0.6358040000000  0.4427620000000 1.0
C      1  0.4260040000000  0.4962830000000  0.4403580000000 1.0
C      1  0.4944270000000  0.4401880000000  0.4866560000000 1.0
C      1  0.4762020000000  0.5245640000000  0.5008150000000 1.0
C      1  0.5142630000000  0.5354960000000  0.6298190000000 1.0
C      1  0.5663910000000  0.5976500000000  0.3713330000000 1.0
C      1  0.5538440000000  0.4942460000000  0.5135800000000 1.0
C      1  0.5764700000000  0.4542320000000  0.5031240000000 1.0
C      1  0.5206150000000  0.5683260000000  0.4698530000000 1.0
C      1  0.4586730000000  0.3829930000000  0.4410210000000 1.0
C      1  0.5197280000000  0.5565080000000  0.5407810000000 1.0
C      1  0.4587160000000  0.4452730000000  0.5320180000000 1.0
C      1  0.4113020000000  0.4109370000000  0.6070670000000 1.0
C      1  0.4801590000000  0.5028040000000  0.5500520000000 1.0
C      1  0.5081550000000  0.3740000000000  0.4570500000000 1.0
C      1  0.4749020000000  0.5453860000000  0.4037880000000 1.0
C      1  0.5296510000000  0.4739770000000  0.4614650000000 1.0
C      1  0.6984670000000  0.4540250000000  0.4433140000000 1.0
C      1  0.4744660000000  0.6549120000000  0.4800210000000 1.0
C      1  0.4401550000000  0.4005970000000  0.4812190000000 1.0
C      1  0.4565520000000  0.4375960000000  0.5799960000000 1.0
C      1  0.4008600000000  0.4592780000000  0.4200890000000 1.0
C      1  0.4527920000000  0.4667510000000  0.4647550000000 1.0
C      1  0.4655200000000  0.4879730000000  0.5740630000000 1.0
C      1  0.4577920000000  0.5373810000000  0.5814690000000 1.0
C      1  0.4593540000000  0.3860860000000  0.5534330000000 1.0
C      1  0.5302710000000  0.5967140000000  0.4724950000000 1.0
C      1  0.3914940000000  0.4468960000000  0.5090660000000 1.0
C      1  0.4714250000000  0.5311590000000  0.4498330000000 1.0
C      1  0.4730660000000  0.5932850000000  0.4028420000000 1.0
END
