TITL C-627112-676-282 -10.9206174340524 125000 -611.910476754958 0 0 101 (C1) n - 1
REM
REM in /home/nfs/bkarasulu/CARBON/AIRSS/Generating-Clusters/LCBOP/Only-C1/SD-CG/FIRE-CG
REM
REM
REM
REM
REM
REM ./C.cell (11c1c37f851c82e70ff6c80c92926a4b)
REM AIRSS Version 0.9.1 bugfix July 2018 build 013d7b7c2542+ Fri, 06 Jul 2018 19:26:36 +0100
REM compiler GCC version 9.2.1 20190827 (Red Hat 9.2.1-1)
REM options -cpp -mtune=generic -march=x86-64 -g -O0 -fpre-include=/usr/include/finclude/math-vector-fortran.h
REM seed 1622768979 -245889614 1712149592 1335175931 238320225 -1906138379 1661468660 449618516 215917969 -1426792254 773161275 1099188433 47126547 388143045 -1918426820 -1072885051 2008479744 -438173873 1807349400 821569342 -298476737 1207513306 1885533030 316138826 -1823142166 -1362085820 -845199745 -1906525686 -545168068 1565865831 555021920 2015119269 822553163
REM
CELL 1.54180   50.00000   50.00000   50.00000   90.00000   90.00000   90.00000
LATT -1
SFAC C  
C      1  0.5073540000000  0.4825030000000  0.6171440000000 1.0
C      1  0.5014940000000  0.4480770000000  0.5162880000000 1.0
C      1  0.4330030000000  0.4921330000000  0.4673390000000 1.0
C      1  0.4817700000000  0.5642550000000  0.5600130000000 1.0
C      1  0.5065220000000  0.5302350000000  0.4181190000000 1.0
C      1  0.5544460000000  0.4499490000000  0.4552300000000 1.0
C      1  0.4367960000000  0.5388460000000  0.4363230000000 1.0
C      1  0.4804540000000  0.5448970000000  0.4143690000000 1.0
C      1  0.5957080000000  0.4609670000000  0.4818480000000 1.0
C      1  0.4472590000000  0.5118290000000  0.4815260000000 1.0
C      1  0.4304230000000  0.5292930000000  0.4987650000000 1.0
C      1  0.4876800000000  0.5618940000000  0.5113370000000 1.0
C      1  0.5369650000000  0.4250400000000  0.4568700000000 1.0
C      1  0.4345330000000  0.5434910000000  0.5471630000000 1.0
C      1  0.5777660000000  0.4868580000000  0.5584830000000 1.0
C      1  0.5245760000000  0.4352550000000  0.5088090000000 1.0
C      1  0.5435140000000  0.4992270000000  0.5106530000000 1.0
C      1  0.5190790000000  0.4762940000000  0.4731730000000 1.0
C      1  0.4778830000000  0.5860720000000  0.4533890000000 1.0
C      1  0.4580890000000  0.5253790000000  0.4224930000000 1.0
C      1  0.5375390000000  0.4776420000000  0.4951220000000 1.0
C      1  0.5068710000000  0.5838410000000  0.5223610000000 1.0
C      1  0.5223190000000  0.5475970000000  0.4896550000000 1.0
C      1  0.3694530000000  0.4872470000000  0.5166150000000 1.0
C      1  0.4964770000000  0.4436690000000  0.5747150000000 1.0
C      1  0.4983340000000  0.4964300000000  0.5301230000000 1.0
C      1  0.4264260000000  0.5537160000000  0.4839220000000 1.0
C      1  0.4588290000000  0.5879600000000  0.4730920000000 1.0
C      1  0.5339390000000  0.4697570000000  0.4501380000000 1.0
C      1  0.5240640000000  0.4688100000000  0.4231170000000 1.0
C      1  0.5228040000000  0.4376100000000  0.5757760000000 1.0
C      1  0.5239150000000  0.5386930000000  0.5164600000000 1.0
C      1  0.5461620000000  0.5196960000000  0.5668550000000 1.0
C      1  0.6042750000000  0.4788910000000  0.5601530000000 1.0
C      1  0.5507680000000  0.4059990000000  0.5314050000000 1.0
C      1  0.5687060000000  0.5126190000000  0.5473750000000 1.0
C      1  0.5628930000000  0.5670160000000  0.5062580000000 1.0
C      1  0.5282180000000  0.5419610000000  0.5637950000000 1.0
C      1  0.5714220000000  0.5353320000000  0.4964540000000 1.0
C      1  0.5666370000000  0.5149790000000  0.5176600000000 1.0
C      1  0.4543830000000  0.5642360000000  0.5462870000000 1.0
C      1  0.4862100000000  0.4187290000000  0.4629290000000 1.0
C      1  0.4486400000000  0.5009350000000  0.5323250000000 1.0
C      1  0.5356420000000  0.4087890000000  0.5063830000000 1.0
C      1  0.3924440000000  0.5355860000000  0.4533840000000 1.0
C      1  0.5778960000000  0.4678530000000  0.4610490000000 1.0
C      1  0.3929570000000  0.4750250000000  0.5164680000000 1.0
C      1  0.5550370000000  0.4734060000000  0.5712890000000 1.0
C      1  0.4396730000000  0.4737770000000  0.5335200000000 1.0
C      1  0.4746450000000  0.5215780000000  0.4811320000000 1.0
C      1  0.4492230000000  0.4280190000000  0.5022440000000 1.0
C      1  0.5660560000000  0.4944770000000  0.4217060000000 1.0
C      1  0.4999260000000  0.4526910000000  0.4280600000000 1.0
C      1  0.5293450000000  0.5461340000000  0.4280580000000 1.0
C      1  0.4190050000000  0.4654850000000  0.5151410000000 1.0
C      1  0.5077200000000  0.4289610000000  0.4463490000000 1.0
C      1  0.4785900000000  0.4708150000000  0.4404840000000 1.0
C      1  0.4976950000000  0.5105150000000  0.4366740000000 1.0
C      1  0.4903070000000  0.4732090000000  0.4686820000000 1.0
C      1  0.4998610000000  0.5429000000000  0.5724280000000 1.0
C      1  0.5691680000000  0.4475500000000  0.5212130000000 1.0
C      1  0.4548540000000  0.4515900000000  0.5449510000000 1.0
C      1  0.4536570000000  0.4260790000000  0.5307480000000 1.0
C      1  0.4081230000000  0.4899860000000  0.4570690000000 1.0
C      1  0.5457500000000  0.4537890000000  0.5062590000000 1.0
C      1  0.4480210000000  0.5796700000000  0.5215110000000 1.0
C      1  0.4312490000000  0.5234590000000  0.5271140000000 1.0
C      1  0.4788380000000  0.5341120000000  0.5076980000000 1.0
C      1  0.3890880000000  0.5086520000000  0.4524380000000 1.0
C      1  0.4956810000000  0.4687150000000  0.5345370000000 1.0
C      1  0.4749950000000  0.5116590000000  0.5269710000000 1.0
C      1  0.5368930000000  0.4952660000000  0.5802940000000 1.0
C      1  0.5127530000000  0.5847010000000  0.4582310000000 1.0
C      1  0.4273210000000  0.4452750000000  0.4969340000000 1.0
C      1  0.5125720000000  0.4980540000000  0.5952610000000 1.0
C      1  0.4866820000000  0.5711660000000  0.4250580000000 1.0
C      1  0.4558080000000  0.4020640000000  0.5436080000000 1.0
C      1  0.5206400000000  0.5108150000000  0.5213430000000 1.0
C      1  0.5408640000000  0.4054170000000  0.4782130000000 1.0
C      1  0.4972830000000  0.5187710000000  0.4635620000000 1.0
C      1  0.4180650000000  0.5478210000000  0.4563400000000 1.0
C      1  0.4804680000000  0.4576440000000  0.5562390000000 1.0
C      1  0.4979330000000  0.5865400000000  0.5496630000000 1.0
C      1  0.5326210000000  0.5531510000000  0.5387760000000 1.0
C      1  0.5749970000000  0.4957710000000  0.4498290000000 1.0
C      1  0.5443020000000  0.4831890000000  0.4088690000000 1.0
C      1  0.4422570000000  0.5762970000000  0.4930310000000 1.0
C      1  0.5930290000000  0.4523910000000  0.5073250000000 1.0
C      1  0.5432380000000  0.5332580000000  0.4508150000000 1.0
C      1  0.6291090000000  0.4714130000000  0.5626900000000 1.0
C      1  0.5231870000000  0.5754630000000  0.4818720000000 1.0
C      1  0.5675060000000  0.5222170000000  0.4635460000000 1.0
C      1  0.5328000000000  0.5861470000000  0.5065230000000 1.0
C      1  0.5608700000000  0.4310320000000  0.5437910000000 1.0
C      1  0.4670980000000  0.4193770000000  0.4820010000000 1.0
C      1  0.5219390000000  0.5295800000000  0.4696510000000 1.0
C      1  0.3470530000000  0.5005460000000  0.5156550000000 1.0
C      1  0.5171920000000  0.5723470000000  0.4319840000000 1.0
C      1  0.4948960000000  0.5197120000000  0.5882630000000 1.0
C      1  0.4724610000000  0.4983910000000  0.4294080000000 1.0
C      1  0.5481170000000  0.4458420000000  0.5657370000000 1.0
END
