TITL C-627111-6168-1781 -2.1322208329012e-07 125000 -107.069656463463 0 0 19 (C1) n - 1
REM
REM in /home/nfs/bkarasulu/CARBON/AIRSS/Generating-Clusters/LCBOP/Only-C1/SD-CG/FIRE-CG
REM
REM
REM
REM
REM
REM ./C.cell (11c1c37f851c82e70ff6c80c92926a4b)
REM AIRSS Version 0.9.1 bugfix July 2018 build 013d7b7c2542+ Fri, 06 Jul 2018 19:26:36 +0100
REM compiler GCC version 9.2.1 20190827 (Red Hat 9.2.1-1)
REM options -cpp -mtune=generic -march=x86-64 -g -O0 -fpre-include=/usr/include/finclude/math-vector-fortran.h
REM seed -1141376932 -285995237 -366287894 1012037790 -1627904236 -2146806197 -22326487 711291593 -21150128 1592308702 46690876 437275816 -1312534012 1169377958 48868482 617745345 1978791799 368693441 217699331 1351377373 -534508610 -563393244 -452230482 320790889 1219451766 -1076792819 1493906468 -1155406481 1187342128 -1289665797 -526028989 -906351040 -499782458
REM
CELL 1.54180   50.00000   50.00000   50.00000   90.00000   90.00000   90.00000
LATT -1
SFAC C  
C      1  0.4834750000000  0.5180280000000  0.5022990000000 1.0
C      1  0.4636450000000  0.5339540000000  0.5141460000000 1.0
C      1  0.5311500000000  0.4601340000000  0.4803710000000 1.0
C      1  0.5450620000000  0.4415270000000  0.4660000000000 1.0
C      1  0.5257580000000  0.5124100000000  0.4790970000000 1.0
C      1  0.4793610000000  0.5944980000000  0.5018540000000 1.0
C      1  0.5000660000000  0.5824380000000  0.4897010000000 1.0
C      1  0.5121150000000  0.4523870000000  0.5001240000000 1.0
C      1  0.5304360000000  0.4461110000000  0.5442540000000 1.0
C      1  0.5346800000000  0.4875730000000  0.4759800000000 1.0
C      1  0.4644970000000  0.4461010000000  0.4938250000000 1.0
C      1  0.4855700000000  0.4627160000000  0.4991640000000 1.0
C      1  0.5198710000000  0.4352460000000  0.5214390000000 1.0
C      1  0.5086670000000  0.5574600000000  0.4856750000000 1.0
C      1  0.4813740000000  0.4900970000000  0.5033760000000 1.0
C      1  0.5166700000000  0.4081660000000  0.5188900000000 1.0
C      1  0.4529340000000  0.5577810000000  0.5197650000000 1.0
C      1  0.5060660000000  0.5297430000000  0.4889170000000 1.0
C      1  0.4586030000000  0.5836280000000  0.5151240000000 1.0
END
