TITL C-627113-6568-1341 0.0182241027768907 125000 -677.682565726514 0 0 114 (C1) n - 1
REM
REM in /home/nfs/bkarasulu/CARBON/AIRSS/Generating-Clusters/LCBOP/Only-C1/SD-CG/FIRE-CG
REM
REM
REM
REM
REM
REM ./C.cell (11c1c37f851c82e70ff6c80c92926a4b)
REM AIRSS Version 0.9.1 bugfix July 2018 build 013d7b7c2542+ Fri, 06 Jul 2018 19:26:36 +0100
REM compiler GCC version 9.2.1 20190827 (Red Hat 9.2.1-1)
REM options -cpp -mtune=generic -march=x86-64 -g -O0 -fpre-include=/usr/include/finclude/math-vector-fortran.h
REM seed -85101866 -97789501 1428856342 -161045728 -2068506482 -1824623585 -819714660 -1698763463 1103883256 -450724506 1015691555 1628470547 204529796 -1021822301 -1712118093 1797736036 -121891744 -300740249 248484354 -1154550893 -1899702278 907692126 916821866 777749736 -1276280185 -842307452 811575875 1141986662 -1026070076 1451869237 -1456383974 1939232495 -249078926
REM
CELL 1.54180   50.00000   50.00000   50.00000   90.00000   90.00000   90.00000
LATT -1
SFAC C  
C      1  0.4361370000000  0.4123930000000  0.5126000000000 1.0
C      1  0.5424390000000  0.4971160000000  0.5082190000000 1.0
C      1  0.5248800000000  0.5314850000000  0.4471790000000 1.0
C      1  0.5679860000000  0.4995410000000  0.4151970000000 1.0
C      1  0.5706490000000  0.5831590000000  0.5159860000000 1.0
C      1  0.4139360000000  0.4887980000000  0.4354720000000 1.0
C      1  0.5810380000000  0.5224890000000  0.4195790000000 1.0
C      1  0.4188850000000  0.4453390000000  0.5414880000000 1.0
C      1  0.4119440000000  0.5203430000000  0.5257920000000 1.0
C      1  0.3594850000000  0.5178660000000  0.4603430000000 1.0
C      1  0.5481760000000  0.5192120000000  0.4915300000000 1.0
C      1  0.3981530000000  0.4710450000000  0.5036740000000 1.0
C      1  0.3974540000000  0.4850850000000  0.4579100000000 1.0
C      1  0.4594350000000  0.4253930000000  0.5037930000000 1.0
C      1  0.4468350000000  0.5340440000000  0.3893850000000 1.0
C      1  0.5818150000000  0.5624060000000  0.4527620000000 1.0
C      1  0.5378580000000  0.6094760000000  0.5976130000000 1.0
C      1  0.5873570000000  0.5441830000000  0.4339050000000 1.0
C      1  0.4320780000000  0.4981090000000  0.5657330000000 1.0
C      1  0.4380490000000  0.5484490000000  0.4615860000000 1.0
C      1  0.5798280000000  0.5979720000000  0.5353620000000 1.0
C      1  0.5117600000000  0.4873940000000  0.4476560000000 1.0
C      1  0.5946350000000  0.4685090000000  0.4565720000000 1.0
C      1  0.5159520000000  0.4435010000000  0.5101820000000 1.0
C      1  0.5231970000000  0.5893770000000  0.5864860000000 1.0
C      1  0.4068650000000  0.4642920000000  0.4766110000000 1.0
C      1  0.4677790000000  0.4218240000000  0.4771100000000 1.0
C      1  0.3761690000000  0.4994180000000  0.4710660000000 1.0
C      1  0.5718930000000  0.4160790000000  0.5027990000000 1.0
C      1  0.6007100000000  0.4517380000000  0.4779070000000 1.0
C      1  0.5459790000000  0.4231500000000  0.5434770000000 1.0
C      1  0.4124280000000  0.5381850000000  0.5058780000000 1.0
C      1  0.5410590000000  0.5159340000000  0.5814570000000 1.0
C      1  0.5264310000000  0.4746660000000  0.4249440000000 1.0
C      1  0.4916040000000  0.6217290000000  0.4955090000000 1.0
C      1  0.5428140000000  0.5445630000000  0.5039050000000 1.0
C      1  0.5643290000000  0.4791540000000  0.6099160000000 1.0
C      1  0.5187630000000  0.4539000000000  0.4846610000000 1.0
C      1  0.5703930000000  0.4599730000000  0.4424930000000 1.0
C      1  0.4825140000000  0.5047160000000  0.5766630000000 1.0
C      1  0.4840390000000  0.5780730000000  0.5540780000000 1.0
C      1  0.5585990000000  0.5671470000000  0.4966570000000 1.0
C      1  0.4917330000000  0.5237680000000  0.4788120000000 1.0
C      1  0.4976280000000  0.4824250000000  0.5676700000000 1.0
C      1  0.4738320000000  0.5617330000000  0.5093480000000 1.0
C      1  0.4766420000000  0.5836250000000  0.5271300000000 1.0
C      1  0.5102870000000  0.6468610000000  0.4032180000000 1.0
C      1  0.3763750000000  0.4898230000000  0.4984310000000 1.0
C      1  0.4134600000000  0.5034530000000  0.4107620000000 1.0
C      1  0.4998040000000  0.5147800000000  0.4505030000000 1.0
C      1  0.4135720000000  0.4213220000000  0.5267690000000 1.0
C      1  0.5970210000000  0.4271850000000  0.5455650000000 1.0
C      1  0.4846520000000  0.4208520000000  0.5739340000000 1.0
C      1  0.5248240000000  0.5589140000000  0.4412310000000 1.0
C      1  0.6746630000000  0.4588020000000  0.6094700000000 1.0
C      1  0.5241540000000  0.6046180000000  0.4596960000000 1.0
C      1  0.5459320000000  0.5203630000000  0.4634360000000 1.0
C      1  0.5437040000000  0.5055560000000  0.5554550000000 1.0
C      1  0.4370630000000  0.4411260000000  0.5628780000000 1.0
C      1  0.5048320000000  0.4643920000000  0.4632960000000 1.0
C      1  0.4107740000000  0.4183730000000  0.4610990000000 1.0
C      1  0.5446350000000  0.4061460000000  0.5005110000000 1.0
C      1  0.4572250000000  0.5395190000000  0.4453070000000 1.0
C      1  0.4678040000000  0.4368910000000  0.4530580000000 1.0
C      1  0.5211210000000  0.5357460000000  0.5856120000000 1.0
C      1  0.5093760000000  0.4509750000000  0.4204930000000 1.0
C      1  0.6562340000000  0.4505430000000  0.5929830000000 1.0
C      1  0.5280560000000  0.5622000000000  0.5922300000000 1.0
C      1  0.6180230000000  0.4341760000000  0.5601080000000 1.0
C      1  0.4801580000000  0.5524800000000  0.5654520000000 1.0
C      1  0.4683120000000  0.5820550000000  0.3864000000000 1.0
C      1  0.5555620000000  0.4329890000000  0.5901020000000 1.0
C      1  0.4962010000000  0.6258500000000  0.3969120000000 1.0
C      1  0.4561920000000  0.5585060000000  0.3854050000000 1.0
C      1  0.5065050000000  0.4788580000000  0.5405590000000 1.0
C      1  0.4710660000000  0.4458030000000  0.5199240000000 1.0
C      1  0.4586280000000  0.4276430000000  0.5717030000000 1.0
C      1  0.5021450000000  0.5943470000000  0.5683290000000 1.0
C      1  0.4733120000000  0.5177980000000  0.4361770000000 1.0
C      1  0.4546760000000  0.5015870000000  0.5798470000000 1.0
C      1  0.4412570000000  0.5063680000000  0.3979170000000 1.0
C      1  0.5093340000000  0.4342120000000  0.5770800000000 1.0
C      1  0.5549610000000  0.4765890000000  0.4253150000000 1.0
C      1  0.4751370000000  0.5148860000000  0.5207940000000 1.0
C      1  0.5169430000000  0.5451250000000  0.5150530000000 1.0
C      1  0.4130620000000  0.4701670000000  0.5281090000000 1.0
C      1  0.5813020000000  0.4303570000000  0.4805420000000 1.0
C      1  0.4940390000000  0.5307660000000  0.5771410000000 1.0
C      1  0.4262830000000  0.4961150000000  0.5364610000000 1.0
C      1  0.4819690000000  0.6043230000000  0.3908600000000 1.0
C      1  0.5734340000000  0.4223350000000  0.5317730000000 1.0
C      1  0.5080150000000  0.6196080000000  0.4746310000000 1.0
C      1  0.5652160000000  0.4529260000000  0.6050420000000 1.0
C      1  0.5611040000000  0.5730630000000  0.4686980000000 1.0
C      1  0.4585540000000  0.4973150000000  0.4224900000000 1.0
C      1  0.4219280000000  0.5476100000000  0.4828060000000 1.0
C      1  0.5288750000000  0.4206100000000  0.5197680000000 1.0
C      1  0.5365130000000  0.4272900000000  0.5700100000000 1.0
C      1  0.4795270000000  0.6089900000000  0.5155940000000 1.0
C      1  0.4209680000000  0.4435760000000  0.4637300000000 1.0
C      1  0.4894070000000  0.5363340000000  0.5059350000000 1.0
C      1  0.4442460000000  0.4523480000000  0.4490680000000 1.0
C      1  0.5370970000000  0.5804390000000  0.4548010000000 1.0
C      1  0.4963680000000  0.4568340000000  0.5253950000000 1.0
C      1  0.4417110000000  0.4780360000000  0.4371260000000 1.0
C      1  0.3895320000000  0.4085880000000  0.5269220000000 1.0
C      1  0.5311350000000  0.4925410000000  0.5337770000000 1.0
C      1  0.5548420000000  0.5028290000000  0.6020180000000 1.0
C      1  0.6374170000000  0.4421930000000  0.5762870000000 1.0
C      1  0.4926810000000  0.4459090000000  0.4438870000000 1.0
C      1  0.4447270000000  0.4869810000000  0.3751030000000 1.0
C      1  0.5644560000000  0.4348360000000  0.4563990000000 1.0
C      1  0.5055060000000  0.4614260000000  0.5845520000000 1.0
C      1  0.4539400000000  0.4991710000000  0.5239680000000 1.0
END
