TITL C-627107-135-1847 -2351.28356453307 125000 -459.566767199369 0 0 78 (C1) n - 1
REM
REM in /home/nfs/bkarasulu/CARBON/AIRSS/Generating-Clusters/LCBOP/Only-C1/SD-CG/FIRE-CG
REM
REM
REM
REM
REM
REM ./C.cell (11c1c37f851c82e70ff6c80c92926a4b)
REM AIRSS Version 0.9.1 bugfix July 2018 build 013d7b7c2542+ Fri, 06 Jul 2018 19:26:36 +0100
REM compiler GCC version 9.2.1 20190827 (Red Hat 9.2.1-1)
REM options -cpp -mtune=generic -march=x86-64 -g -O0 -fpre-include=/usr/include/finclude/math-vector-fortran.h
REM seed -141196713 2009240727 -1480986030 -1190387037 -1351696698 -812294858 685707306 1279245620 2113003074 1581175397 -14484405 1253577443 300367006 197743728 -207587254 -1500272321 2144341391 246441013 597647365 1733490157 -1087762730 -1311643696 -1787983662 -1444266957 -1773858580 1155782357 1620238339 -358113713 643316808 -1227226077 -1839119250 -2077901929 -1070279434
REM
CELL 1.54180   50.00000   50.00000   50.00000   90.00000   90.00000   90.00000
LATT -1
SFAC C  
C      1  0.5456010000000  0.5847090000000  0.5642970000000 1.0
C      1  0.4674890000000  0.4888630000000  0.5304900000000 1.0
C      1  0.4724320000000  0.5505210000000  0.4651620000000 1.0
C      1  0.4132600000000  0.5200620000000  0.5248420000000 1.0
C      1  0.4989610000000  0.6285380000000  0.4705800000000 1.0
C      1  0.5131740000000  0.4592970000000  0.4334230000000 1.0
C      1  0.5136750000000  0.4411280000000  0.4566120000000 1.0
C      1  0.5215940000000  0.5475180000000  0.4350060000000 1.0
C      1  0.5262880000000  0.4474750000000  0.5113380000000 1.0
C      1  0.4648520000000  0.5133730000000  0.5156630000000 1.0
C      1  0.4878610000000  0.5652400000000  0.4848980000000 1.0
C      1  0.4884670000000  0.5639910000000  0.6038910000000 1.0
C      1  0.4760170000000  0.4606940000000  0.4923580000000 1.0
C      1  0.5160440000000  0.4930130000000  0.5725320000000 1.0
C      1  0.4499170000000  0.4272840000000  0.4813100000000 1.0
C      1  0.4724650000000  0.4419760000000  0.5546220000000 1.0
C      1  0.5276350000000  0.5696510000000  0.5766840000000 1.0
C      1  0.5056420000000  0.4659760000000  0.5812380000000 1.0
C      1  0.4713890000000  0.4089600000000  0.4867380000000 1.0
C      1  0.5028420000000  0.5577190000000  0.5814560000000 1.0
C      1  0.4558280000000  0.5342790000000  0.5325730000000 1.0
C      1  0.5137390000000  0.4740430000000  0.5112990000000 1.0
C      1  0.4901280000000  0.5046820000000  0.4800520000000 1.0
C      1  0.5084000000000  0.5812180000000  0.4725190000000 1.0
C      1  0.5600730000000  0.4858400000000  0.5313830000000 1.0
C      1  0.4856400000000  0.4709680000000  0.5179020000000 1.0
C      1  0.4769130000000  0.4636750000000  0.5762020000000 1.0
C      1  0.5154130000000  0.5198740000000  0.4342760000000 1.0
C      1  0.5204160000000  0.4500560000000  0.5623710000000 1.0
C      1  0.4287520000000  0.4639400000000  0.4992410000000 1.0
C      1  0.5324180000000  0.5405820000000  0.5153960000000 1.0
C      1  0.5209730000000  0.5694690000000  0.4502170000000 1.0
C      1  0.4355050000000  0.5171640000000  0.4772230000000 1.0
C      1  0.4024600000000  0.4703300000000  0.4987840000000 1.0
C      1  0.5812180000000  0.4628240000000  0.4648860000000 1.0
C      1  0.4484620000000  0.4845870000000  0.4419970000000 1.0
C      1  0.4788590000000  0.5495080000000  0.5384810000000 1.0
C      1  0.4514570000000  0.4361750000000  0.5344000000000 1.0
C      1  0.5140830000000  0.6078570000000  0.4801490000000 1.0
C      1  0.5008500000000  0.4336410000000  0.5478910000000 1.0
C      1  0.5381750000000  0.4744250000000  0.4365830000000 1.0
C      1  0.5538140000000  0.5995510000000  0.5438830000000 1.0
C      1  0.5586890000000  0.5129320000000  0.4593130000000 1.0
C      1  0.4607110000000  0.5052450000000  0.4885550000000 1.0
C      1  0.4871540000000  0.5133920000000  0.4321770000000 1.0
C      1  0.4158760000000  0.5222590000000  0.4973940000000 1.0
C      1  0.5374030000000  0.5024190000000  0.4421700000000 1.0
C      1  0.5804610000000  0.5259930000000  0.4476140000000 1.0
C      1  0.4498140000000  0.4486190000000  0.4515630000000 1.0
C      1  0.4337830000000  0.5195270000000  0.5454460000000 1.0
C      1  0.5710250000000  0.4909760000000  0.5046740000000 1.0
C      1  0.5407390000000  0.4796920000000  0.5509430000000 1.0
C      1  0.5497670000000  0.6097440000000  0.5197110000000 1.0
C      1  0.4936870000000  0.4472820000000  0.4751370000000 1.0
C      1  0.5331630000000  0.5185800000000  0.4995530000000 1.0
C      1  0.5078210000000  0.4268170000000  0.5210920000000 1.0
C      1  0.5738110000000  0.4239090000000  0.5138590000000 1.0
C      1  0.5573370000000  0.5102560000000  0.4880010000000 1.0
C      1  0.5868370000000  0.4733580000000  0.4891780000000 1.0
C      1  0.6006830000000  0.5381640000000  0.4365720000000 1.0
C      1  0.4682310000000  0.4920460000000  0.5745660000000 1.0
C      1  0.5580110000000  0.4567650000000  0.4503810000000 1.0
C      1  0.4869840000000  0.4620680000000  0.4235890000000 1.0
C      1  0.4388270000000  0.4379400000000  0.5073210000000 1.0
C      1  0.4664320000000  0.5304500000000  0.4450140000000 1.0
C      1  0.4417130000000  0.5131310000000  0.4493900000000 1.0
C      1  0.4923530000000  0.5390040000000  0.5626340000000 1.0
C      1  0.5133270000000  0.4991030000000  0.4961290000000 1.0
C      1  0.5353680000000  0.6126180000000  0.4976300000000 1.0
C      1  0.4924280000000  0.4097540000000  0.5042280000000 1.0
C      1  0.4681050000000  0.4410380000000  0.4312920000000 1.0
C      1  0.4871710000000  0.5631250000000  0.5140270000000 1.0
C      1  0.5413160000000  0.4347810000000  0.4594620000000 1.0
C      1  0.4523000000000  0.4761840000000  0.4884610000000 1.0
C      1  0.4925700000000  0.5106150000000  0.5710810000000 1.0
C      1  0.4748200000000  0.4874760000000  0.4275750000000 1.0
C      1  0.5528070000000  0.4389140000000  0.5099030000000 1.0
C      1  0.4492990000000  0.4951490000000  0.5535190000000 1.0
END
