TITL C-627113-6568-2034 19109.0192663681 125000 -1035.01963836858 0 0 171 (C1) n - 1
REM
REM in /home/nfs/bkarasulu/CARBON/AIRSS/Generating-Clusters/LCBOP/Only-C1/SD-CG/FIRE-CG
REM
REM
REM
REM
REM
REM ./C.cell (11c1c37f851c82e70ff6c80c92926a4b)
REM AIRSS Version 0.9.1 bugfix July 2018 build 013d7b7c2542+ Fri, 06 Jul 2018 19:26:36 +0100
REM compiler GCC version 9.2.1 20190827 (Red Hat 9.2.1-1)
REM options -cpp -mtune=generic -march=x86-64 -g -O0 -fpre-include=/usr/include/finclude/math-vector-fortran.h
REM seed -714408557 -845675583 -1288820109 -951339407 1612955933 1346311169 1724981634 2062208421 -188940643 1132219749 -1332954673 -1150624645 -605632850 -2138260012 -769972320 -1189004221 590720858 -1190708033 21767832 -1639033699 -839149643 1608839119 -206132920 605629276 1060492756 1163645552 -587116196 -1419528 1046638572 367935299 717918078 -1259742126 1120059107
REM
CELL 1.54180   50.00000   50.00000   50.00000   90.00000   90.00000   90.00000
LATT -1
SFAC C  
C      1  0.5194550000000  0.5473000000000  0.4922790000000 1.0
C      1  0.4131960000000  0.5025220000000  0.4270490000000 1.0
C      1  0.4711410000000  0.5233350000000  0.5218150000000 1.0
C      1  0.3925490000000  0.4927520000000  0.4455940000000 1.0
C      1  0.5885620000000  0.4063080000000  0.5254010000000 1.0
C      1  0.4686680000000  0.5542530000000  0.4101270000000 1.0
C      1  0.5166500000000  0.3961440000000  0.4530690000000 1.0
C      1  0.4530410000000  0.4986410000000  0.6092290000000 1.0
C      1  0.5067260000000  0.5172570000000  0.5673360000000 1.0
C      1  0.5219250000000  0.4937420000000  0.5675890000000 1.0
C      1  0.6189100000000  0.5102230000000  0.5142150000000 1.0
C      1  0.5842910000000  0.4959480000000  0.5805520000000 1.0
C      1  0.4606730000000  0.5034730000000  0.3924280000000 1.0
C      1  0.5177190000000  0.5422440000000  0.5611730000000 1.0
C      1  0.4637120000000  0.5314700000000  0.5638650000000 1.0
C      1  0.5607510000000  0.4141150000000  0.4835830000000 1.0
C      1  0.5308170000000  0.5690200000000  0.4789530000000 1.0
C      1  0.4465120000000  0.4674300000000  0.4619820000000 1.0
C      1  0.5598130000000  0.5261960000000  0.5010780000000 1.0
C      1  0.5596410000000  0.5426310000000  0.6144900000000 1.0
C      1  0.6188170000000  0.4858890000000  0.5290410000000 1.0
C      1  0.5381860000000  0.5160910000000  0.4333100000000 1.0
C      1  0.6088030000000  0.4705150000000  0.4725250000000 1.0
C      1  0.5517510000000  0.4931320000000  0.3920110000000 1.0
C      1  0.3998780000000  0.5223080000000  0.5201330000000 1.0
C      1  0.4233670000000  0.4509810000000  0.4616640000000 1.0
C      1  0.4797330000000  0.5298440000000  0.4529490000000 1.0
C      1  0.5338610000000  0.4271150000000  0.5733570000000 1.0
C      1  0.3799170000000  0.5438750000000  0.4498930000000 1.0
C      1  0.4125980000000  0.5732900000000  0.5689980000000 1.0
C      1  0.5096600000000  0.4638390000000  0.4148040000000 1.0
C      1  0.4247680000000  0.5591820000000  0.4899720000000 1.0
C      1  0.4809400000000  0.4256740000000  0.4035270000000 1.0
C      1  0.5223270000000  0.5092850000000  0.6130650000000 1.0
C      1  0.4734580000000  0.4675100000000  0.5028380000000 1.0
C      1  0.5731360000000  0.4998120000000  0.5543560000000 1.0
C      1  0.4737410000000  0.4594240000000  0.4551430000000 1.0
C      1  0.3909540000000  0.5687530000000  0.4497340000000 1.0
C      1  0.4990550000000  0.4445290000000  0.4595330000000 1.0
C      1  0.4711120000000  0.5451340000000  0.5401520000000 1.0
C      1  0.3986370000000  0.4647480000000  0.4671270000000 1.0
C      1  0.4319190000000  0.4867650000000  0.5327730000000 1.0
C      1  0.3869530000000  0.4580400000000  0.4938740000000 1.0
C      1  0.3886660000000  0.5420540000000  0.5361620000000 1.0
C      1  0.4578780000000  0.5751700000000  0.4270660000000 1.0
C      1  0.5666070000000  0.4931540000000  0.6028070000000 1.0
C      1  0.5522960000000  0.4447340000000  0.5890010000000 1.0
C      1  0.3765060000000  0.5166600000000  0.4503180000000 1.0
C      1  0.4621710000000  0.4750690000000  0.5955480000000 1.0
C      1  0.4054070000000  0.5914870000000  0.4539270000000 1.0
C      1  0.5392870000000  0.6103890000000  0.5446390000000 1.0
C      1  0.4982830000000  0.4455180000000  0.3961980000000 1.0
C      1  0.4577700000000  0.4292150000000  0.4201520000000 1.0
C      1  0.4466240000000  0.5424050000000  0.4882860000000 1.0
C      1  0.5192070000000  0.5078170000000  0.5218480000000 1.0
C      1  0.4921660000000  0.5073220000000  0.5152710000000 1.0
C      1  0.5423590000000  0.4373540000000  0.4372280000000 1.0
C      1  0.5800790000000  0.5481520000000  0.4642260000000 1.0
C      1  0.4824400000000  0.5947580000000  0.5238400000000 1.0
C      1  0.4263430000000  0.5128320000000  0.5249180000000 1.0
C      1  0.5146790000000  0.3940350000000  0.5042180000000 1.0
C      1  0.4559780000000  0.4038310000000  0.4974900000000 1.0
C      1  0.4523380000000  0.5291360000000  0.4045720000000 1.0
C      1  0.5654600000000  0.4548720000000  0.4399140000000 1.0
C      1  0.4001420000000  0.4482430000000  0.5188740000000 1.0
C      1  0.5910760000000  0.4428980000000  0.5569670000000 1.0
C      1  0.5749230000000  0.4223820000000  0.5435930000000 1.0
C      1  0.4364940000000  0.5196770000000  0.4267760000000 1.0
C      1  0.4541760000000  0.4159110000000  0.4468810000000 1.0
C      1  0.5177290000000  0.4498440000000  0.4381700000000 1.0
C      1  0.5547340000000  0.5057870000000  0.4546640000000 1.0
C      1  0.5163990000000  0.5539260000000  0.3569270000000 1.0
C      1  0.5143060000000  0.5743000000000  0.4286560000000 1.0
C      1  0.4978540000000  0.5608280000000  0.4072460000000 1.0
C      1  0.5662570000000  0.5247060000000  0.4730640000000 1.0
C      1  0.3593600000000  0.4609120000000  0.4956450000000 1.0
C      1  0.4228430000000  0.6079850000000  0.4674550000000 1.0
C      1  0.5268530000000  0.4873220000000  0.5407170000000 1.0
C      1  0.5509770000000  0.5165200000000  0.4074420000000 1.0
C      1  0.5000410000000  0.5899430000000  0.4497010000000 1.0
C      1  0.4124550000000  0.4485750000000  0.5464730000000 1.0
C      1  0.4179400000000  0.4760730000000  0.5551490000000 1.0
C      1  0.5625680000000  0.4019220000000  0.4578700000000 1.0
C      1  0.5458960000000  0.6039140000000  0.5696570000000 1.0
C      1  0.4789940000000  0.4562120000000  0.5523810000000 1.0
C      1  0.5741100000000  0.4900160000000  0.5290640000000 1.0
C      1  0.5494880000000  0.4549970000000  0.5094030000000 1.0
C      1  0.5815720000000  0.4055770000000  0.4999800000000 1.0
C      1  0.4989740000000  0.4918450000000  0.4217220000000 1.0
C      1  0.5289720000000  0.4020150000000  0.5271520000000 1.0
C      1  0.4630930000000  0.5817280000000  0.5774760000000 1.0
C      1  0.4464560000000  0.4780810000000  0.3968920000000 1.0
C      1  0.4656390000000  0.4119180000000  0.5231820000000 1.0
C      1  0.4297830000000  0.4100380000000  0.4875350000000 1.0
C      1  0.4739800000000  0.4792150000000  0.5696920000000 1.0
C      1  0.3939770000000  0.5619220000000  0.5533330000000 1.0
C      1  0.4812660000000  0.4348960000000  0.5316770000000 1.0
C      1  0.5135420000000  0.5922480000000  0.4756780000000 1.0
C      1  0.5822160000000  0.4756600000000  0.4806620000000 1.0
C      1  0.4731290000000  0.4015970000000  0.4734750000000 1.0
C      1  0.5972860000000  0.5569410000000  0.4865570000000 1.0
C      1  0.5574370000000  0.4726300000000  0.3762110000000 1.0
C      1  0.4298300000000  0.4233740000000  0.4620960000000 1.0
C      1  0.4913010000000  0.4455730000000  0.5069020000000 1.0
C      1  0.4721400000000  0.5912170000000  0.4440460000000 1.0
C      1  0.4489940000000  0.4711240000000  0.5164430000000 1.0
C      1  0.5803970000000  0.5506740000000  0.5443950000000 1.0
C      1  0.5060900000000  0.4212860000000  0.5798880000000 1.0
C      1  0.5661050000000  0.5639150000000  0.4446800000000 1.0
C      1  0.5927000000000  0.4455910000000  0.4340710000000 1.0
C      1  0.5010090000000  0.3946250000000  0.4771470000000 1.0
C      1  0.4324660000000  0.5124450000000  0.5932940000000 1.0
C      1  0.4420340000000  0.5371570000000  0.5809100000000 1.0
C      1  0.5802330000000  0.4411350000000  0.5838490000000 1.0
C      1  0.5234940000000  0.4854090000000  0.5947890000000 1.0
C      1  0.5738570000000  0.5374690000000  0.5227790000000 1.0
C      1  0.5857880000000  0.5807680000000  0.4990740000000 1.0
C      1  0.4984600000000  0.5252370000000  0.6179080000000 1.0
C      1  0.4210100000000  0.5819870000000  0.5035790000000 1.0
C      1  0.6100900000000  0.4668970000000  0.5516170000000 1.0
C      1  0.5092700000000  0.5573150000000  0.3817660000000 1.0
C      1  0.5104120000000  0.4395870000000  0.4858720000000 1.0
C      1  0.5472420000000  0.4704190000000  0.5999710000000 1.0
C      1  0.4829860000000  0.5726360000000  0.5964240000000 1.0
C      1  0.4787540000000  0.4178640000000  0.5798610000000 1.0
C      1  0.5325800000000  0.5262290000000  0.5055080000000 1.0
C      1  0.6133500000000  0.5343190000000  0.5002280000000 1.0
C      1  0.5512410000000  0.5159670000000  0.6142470000000 1.0
C      1  0.4173160000000  0.5038690000000  0.4794660000000 1.0
C      1  0.4955050000000  0.5527790000000  0.6100750000000 1.0
C      1  0.4796120000000  0.5083550000000  0.5670280000000 1.0
C      1  0.5331780000000  0.4621900000000  0.5310070000000 1.0
C      1  0.4521210000000  0.4205310000000  0.5730100000000 1.0
C      1  0.4735640000000  0.5121630000000  0.6234890000000 1.0
C      1  0.3960890000000  0.5137460000000  0.4935020000000 1.0
C      1  0.4352650000000  0.6044500000000  0.4935040000000 1.0
C      1  0.5088980000000  0.5189580000000  0.4342130000000 1.0
C      1  0.5382330000000  0.6047590000000  0.5169720000000 1.0
C      1  0.4467430000000  0.5238270000000  0.5093310000000 1.0
C      1  0.5635900000000  0.5955150000000  0.5056500000000 1.0
C      1  0.5593420000000  0.5676970000000  0.6054240000000 1.0
C      1  0.4443470000000  0.4536320000000  0.4096080000000 1.0
C      1  0.4924510000000  0.5532200000000  0.4975430000000 1.0
C      1  0.4734340000000  0.5459490000000  0.4773880000000 1.0
C      1  0.4975150000000  0.4941280000000  0.4699840000000 1.0
C      1  0.4716110000000  0.5979410000000  0.5540350000000 1.0
C      1  0.5709750000000  0.4731050000000  0.5063060000000 1.0
C      1  0.5399930000000  0.4350520000000  0.4910610000000 1.0
C      1  0.4163010000000  0.4936940000000  0.5777240000000 1.0
C      1  0.5536410000000  0.5888160000000  0.5902060000000 1.0
C      1  0.4851930000000  0.4839210000000  0.4465800000000 1.0
C      1  0.4293070000000  0.4290900000000  0.5600980000000 1.0
C      1  0.4413300000000  0.4955870000000  0.4665650000000 1.0
C      1  0.5644050000000  0.4787020000000  0.4575630000000 1.0
C      1  0.4535210000000  0.5150370000000  0.4491820000000 1.0
C      1  0.4378440000000  0.5660120000000  0.5790240000000 1.0
C      1  0.5456900000000  0.4162250000000  0.5480140000000 1.0
C      1  0.4869750000000  0.4900610000000  0.4948420000000 1.0
C      1  0.5971640000000  0.4182370000000  0.4287090000000 1.0
C      1  0.5121620000000  0.6033670000000  0.5034970000000 1.0
C      1  0.5428370000000  0.5710790000000  0.4322240000000 1.0
C      1  0.4888230000000  0.5650970000000  0.5256100000000 1.0
C      1  0.4608720000000  0.6069150000000  0.5056850000000 1.0
C      1  0.4884590000000  0.5001900000000  0.3952360000000 1.0
C      1  0.6090110000000  0.4822290000000  0.5769270000000 1.0
C      1  0.5643860000000  0.5383520000000  0.3977980000000 1.0
C      1  0.6132870000000  0.4592610000000  0.4482220000000 1.0
C      1  0.5634110000000  0.4510880000000  0.3628050000000 1.0
C      1  0.5399250000000  0.4092260000000  0.4433210000000 1.0
C      1  0.5861440000000  0.3981510000000  0.4430750000000 1.0
C      1  0.5138940000000  0.5616640000000  0.5429450000000 1.0
END
