TITL C-627107-135-491 -25333.5516652072 125000 -887.339681220218 0 0 146 (C1) n - 1
REM
REM in /home/nfs/bkarasulu/CARBON/AIRSS/Generating-Clusters/LCBOP/Only-C1/SD-CG/FIRE-CG
REM
REM
REM
REM
REM
REM ./C.cell (11c1c37f851c82e70ff6c80c92926a4b)
REM AIRSS Version 0.9.1 bugfix July 2018 build 013d7b7c2542+ Fri, 06 Jul 2018 19:26:36 +0100
REM compiler GCC version 9.2.1 20190827 (Red Hat 9.2.1-1)
REM options -cpp -mtune=generic -march=x86-64 -g -O0 -fpre-include=/usr/include/finclude/math-vector-fortran.h
REM seed 696099776 506018985 -1994853869 -1145891081 -1236367472 1449689566 1175772424 -1370548182 -2133020163 1078345140 1217370722 372310697 2045373655 -1329864068 1880932719 1673054966 1774371082 1710070249 82220370 1442152029 18820048 900296693 -3411010 -565188958 1956346984 804179463 -1212235675 1689732860 1500957114 -433473778 -895044031 1662357181 -1264787773
REM
CELL 1.54180   50.00000   50.00000   50.00000   90.00000   90.00000   90.00000
LATT -1
SFAC C  
C      1  0.4673710000000  0.5963150000000  0.4790250000000 1.0
C      1  0.5198450000000  0.4930820000000  0.6007110000000 1.0
C      1  0.5214860000000  0.4080510000000  0.4261030000000 1.0
C      1  0.4632760000000  0.4658460000000  0.4172430000000 1.0
C      1  0.5611500000000  0.6074900000000  0.4862560000000 1.0
C      1  0.5251930000000  0.4433290000000  0.4701230000000 1.0
C      1  0.4854020000000  0.4533770000000  0.5540020000000 1.0
C      1  0.4692830000000  0.5108320000000  0.4398190000000 1.0
C      1  0.5004180000000  0.4747150000000  0.4441730000000 1.0
C      1  0.6315090000000  0.5201700000000  0.5369530000000 1.0
C      1  0.4777460000000  0.4022580000000  0.4922940000000 1.0
C      1  0.3956720000000  0.5401870000000  0.4549400000000 1.0
C      1  0.5599500000000  0.5389550000000  0.4927100000000 1.0
C      1  0.6435430000000  0.5205910000000  0.4643730000000 1.0
C      1  0.5596940000000  0.4859930000000  0.4395020000000 1.0
C      1  0.6200210000000  0.5132120000000  0.5122230000000 1.0
C      1  0.4717520000000  0.4849650000000  0.6073100000000 1.0
C      1  0.4917180000000  0.5656920000000  0.5940790000000 1.0
C      1  0.4979750000000  0.4744590000000  0.6074050000000 1.0
C      1  0.5582960000000  0.5719690000000  0.4218200000000 1.0
C      1  0.4588600000000  0.6004210000000  0.5773390000000 1.0
C      1  0.3848170000000  0.5519900000000  0.5998270000000 1.0
C      1  0.5056760000000  0.4566660000000  0.4866120000000 1.0
C      1  0.4991860000000  0.4247800000000  0.4336620000000 1.0
C      1  0.5280740000000  0.3886070000000  0.4733960000000 1.0
C      1  0.5509600000000  0.4834680000000  0.4663450000000 1.0
C      1  0.4655520000000  0.4183580000000  0.4710050000000 1.0
C      1  0.5563850000000  0.5474290000000  0.4643960000000 1.0
C      1  0.4772240000000  0.5880200000000  0.5922360000000 1.0
C      1  0.5279410000000  0.3881590000000  0.4450920000000 1.0
C      1  0.4697890000000  0.5007140000000  0.5129800000000 1.0
C      1  0.4858860000000  0.4280310000000  0.5915290000000 1.0
C      1  0.4891230000000  0.6105860000000  0.4941790000000 1.0
C      1  0.4787560000000  0.4858180000000  0.4302100000000 1.0
C      1  0.6057270000000  0.5196910000000  0.5805150000000 1.0
C      1  0.4751000000000  0.4287940000000  0.5648370000000 1.0
C      1  0.3904620000000  0.5287480000000  0.4801580000000 1.0
C      1  0.6259240000000  0.5216250000000  0.5630610000000 1.0
C      1  0.5328040000000  0.5414220000000  0.5034390000000 1.0
C      1  0.5774640000000  0.5178410000000  0.5802990000000 1.0
C      1  0.5222170000000  0.6027220000000  0.4600340000000 1.0
C      1  0.4209140000000  0.4770620000000  0.4456370000000 1.0
C      1  0.4420000000000  0.4652710000000  0.5279070000000 1.0
C      1  0.5557030000000  0.4061820000000  0.5132210000000 1.0
C      1  0.5023080000000  0.4990690000000  0.5533990000000 1.0
C      1  0.4288510000000  0.5667300000000  0.4053190000000 1.0
C      1  0.5488890000000  0.5106470000000  0.5306280000000 1.0
C      1  0.4179010000000  0.3777070000000  0.5162200000000 1.0
C      1  0.5302220000000  0.4670790000000  0.5354290000000 1.0
C      1  0.4337370000000  0.4994490000000  0.4831870000000 1.0
C      1  0.5156140000000  0.6150810000000  0.4855640000000 1.0
C      1  0.4175340000000  0.5320170000000  0.4381330000000 1.0
C      1  0.5638910000000  0.4720330000000  0.4154250000000 1.0
C      1  0.5053430000000  0.4472790000000  0.6005000000000 1.0
C      1  0.5831330000000  0.4677180000000  0.3729440000000 1.0
C      1  0.3650810000000  0.5144540000000  0.5203420000000 1.0
C      1  0.4606450000000  0.5609320000000  0.4419900000000 1.0
C      1  0.4603730000000  0.5958040000000  0.5269800000000 1.0
C      1  0.3795370000000  0.5032480000000  0.5418200000000 1.0
C      1  0.4944100000000  0.5125900000000  0.5094050000000 1.0
C      1  0.4190830000000  0.5903610000000  0.3589090000000 1.0
C      1  0.5120980000000  0.5202000000000  0.5962970000000 1.0
C      1  0.5326050000000  0.4479880000000  0.5884950000000 1.0
C      1  0.5363830000000  0.5991040000000  0.5290360000000 1.0
C      1  0.4573250000000  0.4873030000000  0.4906690000000 1.0
C      1  0.5263090000000  0.4950180000000  0.5391760000000 1.0
C      1  0.5753910000000  0.4781660000000  0.5518310000000 1.0
C      1  0.4231600000000  0.4236430000000  0.4978840000000 1.0
C      1  0.5067930000000  0.4470290000000  0.5339680000000 1.0
C      1  0.4913860000000  0.5383280000000  0.5881910000000 1.0
C      1  0.4752060000000  0.5368090000000  0.4540370000000 1.0
C      1  0.5542670000000  0.5877530000000  0.5477490000000 1.0
C      1  0.4906340000000  0.4504280000000  0.5074670000000 1.0
C      1  0.4507350000000  0.5540840000000  0.5034610000000 1.0
C      1  0.4660290000000  0.5275050000000  0.5788800000000 1.0
C      1  0.5121880000000  0.4480900000000  0.4436400000000 1.0
C      1  0.5552420000000  0.4599790000000  0.5451260000000 1.0
C      1  0.5198030000000  0.4210470000000  0.5463160000000 1.0
C      1  0.4237140000000  0.5788000000000  0.3823080000000 1.0
C      1  0.5640610000000  0.5422840000000  0.5744480000000 1.0
C      1  0.5043460000000  0.4817320000000  0.4718370000000 1.0
C      1  0.5792210000000  0.4847520000000  0.3941940000000 1.0
C      1  0.3680560000000  0.5272940000000  0.4968770000000 1.0
C      1  0.5707040000000  0.4423180000000  0.3777900000000 1.0
C      1  0.3952900000000  0.4801470000000  0.5385540000000 1.0
C      1  0.5666590000000  0.4912960000000  0.5764530000000 1.0
C      1  0.5615020000000  0.5723310000000  0.4502110000000 1.0
C      1  0.5925160000000  0.4473080000000  0.5167000000000 1.0
C      1  0.4495690000000  0.5432940000000  0.5306110000000 1.0
C      1  0.4591390000000  0.4876490000000  0.5367300000000 1.0
C      1  0.5314210000000  0.4024840000000  0.5285510000000 1.0
C      1  0.4119380000000  0.5130680000000  0.4889750000000 1.0
C      1  0.4566890000000  0.4583230000000  0.5008950000000 1.0
C      1  0.6267670000000  0.4376910000000  0.4759100000000 1.0
C      1  0.3962230000000  0.5388560000000  0.5788050000000 1.0
C      1  0.4357790000000  0.5532000000000  0.4289000000000 1.0
C      1  0.4616850000000  0.4014620000000  0.5170970000000 1.0
C      1  0.4347640000000  0.4527510000000  0.4535240000000 1.0
C      1  0.5395590000000  0.6139740000000  0.5043770000000 1.0
C      1  0.5941340000000  0.5014460000000  0.5135370000000 1.0
C      1  0.5145530000000  0.5615890000000  0.5105300000000 1.0
C      1  0.5274810000000  0.4975790000000  0.4777030000000 1.0
C      1  0.5422980000000  0.4224340000000  0.4128490000000 1.0
C      1  0.4137190000000  0.4615860000000  0.5285920000000 1.0
C      1  0.6110020000000  0.4413830000000  0.4963270000000 1.0
C      1  0.4032760000000  0.3568190000000  0.5215940000000 1.0
C      1  0.5577910000000  0.4444890000000  0.4043030000000 1.0
C      1  0.5012220000000  0.5930670000000  0.4422760000000 1.0
C      1  0.4221250000000  0.5448920000000  0.5700710000000 1.0
C      1  0.5702990000000  0.5177930000000  0.5111680000000 1.0
C      1  0.4738790000000  0.5860310000000  0.4521020000000 1.0
C      1  0.3826020000000  0.5186960000000  0.5649520000000 1.0
C      1  0.5057120000000  0.5385700000000  0.4487170000000 1.0
C      1  0.5322510000000  0.5369600000000  0.4519760000000 1.0
C      1  0.4584590000000  0.5044980000000  0.5941420000000 1.0
C      1  0.4703020000000  0.5437230000000  0.4840090000000 1.0
C      1  0.4510800000000  0.5834230000000  0.5017970000000 1.0
C      1  0.4475500000000  0.5389130000000  0.5592070000000 1.0
C      1  0.4051650000000  0.4398940000000  0.5125120000000 1.0
C      1  0.5521280000000  0.3953430000000  0.4874110000000 1.0
C      1  0.4538230000000  0.4438730000000  0.4327180000000 1.0
C      1  0.5354530000000  0.5777450000000  0.4083020000000 1.0
C      1  0.5193530000000  0.5167350000000  0.4971360000000 1.0
C      1  0.6329700000000  0.5173700000000  0.4879730000000 1.0
C      1  0.5433620000000  0.4777050000000  0.5900550000000 1.0
C      1  0.4720890000000  0.4235050000000  0.4428080000000 1.0
C      1  0.4500920000000  0.6014300000000  0.5520950000000 1.0
C      1  0.4936460000000  0.5575930000000  0.4926590000000 1.0
C      1  0.5917830000000  0.4759810000000  0.5276620000000 1.0
C      1  0.5027420000000  0.3901050000000  0.4867050000000 1.0
C      1  0.5506390000000  0.4554100000000  0.4736180000000 1.0
C      1  0.4146830000000  0.6015320000000  0.3357680000000 1.0
C      1  0.5605150000000  0.5664870000000  0.5631490000000 1.0
C      1  0.5109420000000  0.5858220000000  0.4165540000000 1.0
C      1  0.5620330000000  0.4333730000000  0.5520210000000 1.0
C      1  0.4334360000000  0.4000690000000  0.5107290000000 1.0
C      1  0.5708550000000  0.4207100000000  0.3613910000000 1.0
C      1  0.4197500000000  0.5029180000000  0.4361220000000 1.0
C      1  0.5386830000000  0.4272830000000  0.5683530000000 1.0
C      1  0.5117060000000  0.5847040000000  0.5269380000000 1.0
C      1  0.5741950000000  0.4249560000000  0.5266260000000 1.0
C      1  0.4798680000000  0.4810990000000  0.5544590000000 1.0
C      1  0.4678700000000  0.4095510000000  0.5443870000000 1.0
C      1  0.5510640000000  0.5958090000000  0.4621430000000 1.0
C      1  0.4883380000000  0.6008080000000  0.5217720000000 1.0
C      1  0.4435340000000  0.4387200000000  0.4809400000000 1.0
END
