TITL C-627107-135-2032 -855.757429299636 125000 -309.93889378398 0 0 52 (C1) n - 1
REM
REM in /home/nfs/bkarasulu/CARBON/AIRSS/Generating-Clusters/LCBOP/Only-C1/SD-CG/FIRE-CG
REM
REM
REM
REM
REM
REM ./C.cell (11c1c37f851c82e70ff6c80c92926a4b)
REM AIRSS Version 0.9.1 bugfix July 2018 build 013d7b7c2542+ Fri, 06 Jul 2018 19:26:36 +0100
REM compiler GCC version 9.2.1 20190827 (Red Hat 9.2.1-1)
REM options -cpp -mtune=generic -march=x86-64 -g -O0 -fpre-include=/usr/include/finclude/math-vector-fortran.h
REM seed 1665121260 -199262313 1552878891 -189582556 -1174796159 952746009 1687631111 -66908787 -288410671 -95544361 1744007641 -1052591951 -1035918916 -939113513 -802121331 -1116883569 731601111 1027355161 -201998574 -68431960 -1604678134 1183135518 424828212 1159688216 -89720183 1548514023 495091321 1823497745 1540702340 -1268853533 1662540779 780314878 -747643123
REM
CELL 1.54180   50.00000   50.00000   50.00000   90.00000   90.00000   90.00000
LATT -1
SFAC C  
C      1  0.4103110000000  0.6555380000000  0.5828560000000 1.0
C      1  0.4290650000000  0.5108310000000  0.5109800000000 1.0
C      1  0.5314700000000  0.5157970000000  0.5491710000000 1.0
C      1  0.4770660000000  0.4711840000000  0.5337970000000 1.0
C      1  0.5949510000000  0.4923780000000  0.3866720000000 1.0
C      1  0.5107380000000  0.4177280000000  0.5127910000000 1.0
C      1  0.5741110000000  0.4851280000000  0.4041520000000 1.0
C      1  0.4914210000000  0.5247740000000  0.4864860000000 1.0
C      1  0.4404490000000  0.4061440000000  0.5214050000000 1.0
C      1  0.5021210000000  0.5551880000000  0.5461230000000 1.0
C      1  0.5177410000000  0.5100170000000  0.4461460000000 1.0
C      1  0.5391320000000  0.4892850000000  0.5429900000000 1.0
C      1  0.5851340000000  0.5385440000000  0.3895950000000 1.0
C      1  0.4767220000000  0.5146570000000  0.5087160000000 1.0
C      1  0.5202600000000  0.4373190000000  0.4950540000000 1.0
C      1  0.5645260000000  0.5333420000000  0.4066520000000 1.0
C      1  0.5106690000000  0.4567960000000  0.5676410000000 1.0
C      1  0.4541070000000  0.6267820000000  0.5960510000000 1.0
C      1  0.4314490000000  0.6417170000000  0.5892920000000 1.0
C      1  0.5451880000000  0.4825640000000  0.5156390000000 1.0
C      1  0.5532200000000  0.5302390000000  0.4989710000000 1.0
C      1  0.4690460000000  0.6334640000000  0.6179670000000 1.0
C      1  0.4912470000000  0.4042620000000  0.5249890000000 1.0
C      1  0.5248680000000  0.5409810000000  0.5381990000000 1.0
C      1  0.5260310000000  0.4488660000000  0.4478810000000 1.0
C      1  0.5365640000000  0.4582900000000  0.5043990000000 1.0
C      1  0.4789710000000  0.4861530000000  0.4625240000000 1.0
C      1  0.4652650000000  0.3997090000000  0.5290200000000 1.0
C      1  0.5398620000000  0.5473690000000  0.5150350000000 1.0
C      1  0.4579160000000  0.4279800000000  0.4661030000000 1.0
C      1  0.4680000000000  0.5843060000000  0.5649670000000 1.0
C      1  0.4281260000000  0.4216210000000  0.5032740000000 1.0
C      1  0.5106020000000  0.4370360000000  0.4680430000000 1.0
C      1  0.4613180000000  0.6049410000000  0.5801510000000 1.0
C      1  0.4750890000000  0.5626000000000  0.5489650000000 1.0
C      1  0.5574940000000  0.5073270000000  0.4150550000000 1.0
C      1  0.5374340000000  0.4962090000000  0.4323210000000 1.0
C      1  0.5555040000000  0.5034080000000  0.4995880000000 1.0
C      1  0.4376840000000  0.4387190000000  0.4831070000000 1.0
C      1  0.4767530000000  0.4860670000000  0.5103260000000 1.0
C      1  0.4397630000000  0.4667480000000  0.4874060000000 1.0
C      1  0.4232460000000  0.4869280000000  0.4990190000000 1.0
C      1  0.4869550000000  0.4590740000000  0.5553600000000 1.0
C      1  0.4957350000000  0.5091490000000  0.4630610000000 1.0
C      1  0.4522060000000  0.5260530000000  0.5181680000000 1.0
C      1  0.4845240000000  0.4276300000000  0.4625260000000 1.0
C      1  0.4668270000000  0.4755610000000  0.4856550000000 1.0
C      1  0.5338310000000  0.4691290000000  0.5618530000000 1.0
C      1  0.5407000000000  0.4671200000000  0.4331060000000 1.0
C      1  0.4552920000000  0.5477870000000  0.5354160000000 1.0
C      1  0.5630190000000  0.4614000000000  0.4156940000000 1.0
C      1  0.6002790000000  0.5181640000000  0.3796450000000 1.0
END
