TITL C-627107-135-699 -1.53917417178518 125000 -928.9417235391 0 0 150 (C1) n - 1
REM
REM in /home/nfs/bkarasulu/CARBON/AIRSS/Generating-Clusters/LCBOP/Only-C1/SD-CG/FIRE-CG
REM
REM
REM
REM
REM
REM ./C.cell (11c1c37f851c82e70ff6c80c92926a4b)
REM AIRSS Version 0.9.1 bugfix July 2018 build 013d7b7c2542+ Fri, 06 Jul 2018 19:26:36 +0100
REM compiler GCC version 9.2.1 20190827 (Red Hat 9.2.1-1)
REM options -cpp -mtune=generic -march=x86-64 -g -O0 -fpre-include=/usr/include/finclude/math-vector-fortran.h
REM seed 730755460 -1061310832 65870939 -283698464 789785411 1423163019 -2068205666 -1483231714 670742747 519165760 232094075 -162913763 1883910094 -932899787 1637800323 1900039927 -206928822 403518096 957715280 -1513910337 -330167354 -1161932220 -1049693211 -2027800627 -334267107 -240917721 1084477727 2127266233 1008554679 1582270148 1601929395 -526214598 912772862
REM
CELL 1.54180   50.00000   50.00000   50.00000   90.00000   90.00000   90.00000
LATT -1
SFAC C  
C      1  0.5374280000000  0.5457740000000  0.5462290000000 1.0
C      1  0.4034760000000  0.5363130000000  0.4944710000000 1.0
C      1  0.5298060000000  0.3970850000000  0.4221430000000 1.0
C      1  0.4025680000000  0.4838730000000  0.4988220000000 1.0
C      1  0.5015790000000  0.5701360000000  0.5015910000000 1.0
C      1  0.4640930000000  0.5793720000000  0.5667520000000 1.0
C      1  0.5740040000000  0.5119920000000  0.5180180000000 1.0
C      1  0.5392660000000  0.4183080000000  0.5409430000000 1.0
C      1  0.4516760000000  0.5926940000000  0.4764080000000 1.0
C      1  0.5937730000000  0.5261290000000  0.5758300000000 1.0
C      1  0.5734650000000  0.4492820000000  0.4254290000000 1.0
C      1  0.5287330000000  0.4980200000000  0.4687350000000 1.0
C      1  0.5180060000000  0.5905540000000  0.5385320000000 1.0
C      1  0.4925100000000  0.4527830000000  0.6167970000000 1.0
C      1  0.4808860000000  0.6034940000000  0.4778930000000 1.0
C      1  0.5883980000000  0.4949850000000  0.4230810000000 1.0
C      1  0.4387580000000  0.5033630000000  0.5361790000000 1.0
C      1  0.4785150000000  0.5085260000000  0.5701170000000 1.0
C      1  0.5667200000000  0.5858590000000  0.4843160000000 1.0
C      1  0.4914490000000  0.4321330000000  0.5995690000000 1.0
C      1  0.5441480000000  0.5180840000000  0.4809150000000 1.0
C      1  0.6370080000000  0.4910300000000  0.3996330000000 1.0
C      1  0.4388310000000  0.6014420000000  0.5014470000000 1.0
C      1  0.4522190000000  0.4196430000000  0.5538180000000 1.0
C      1  0.4473650000000  0.4950360000000  0.5096750000000 1.0
C      1  0.4923730000000  0.4091380000000  0.5273610000000 1.0
C      1  0.4332790000000  0.5087410000000  0.4141770000000 1.0
C      1  0.5029920000000  0.4801160000000  0.4303730000000 1.0
C      1  0.5596370000000  0.4590100000000  0.5605830000000 1.0
C      1  0.4596920000000  0.5578120000000  0.3712520000000 1.0
C      1  0.5978940000000  0.4711270000000  0.5215050000000 1.0
C      1  0.4744150000000  0.5764870000000  0.3877180000000 1.0
C      1  0.4925880000000  0.4677850000000  0.4786810000000 1.0
C      1  0.5169400000000  0.5310440000000  0.4156280000000 1.0
C      1  0.5113130000000  0.5336200000000  0.6533690000000 1.0
C      1  0.6134330000000  0.4929930000000  0.4105630000000 1.0
C      1  0.5479730000000  0.5099900000000  0.5084790000000 1.0
C      1  0.5078990000000  0.6136370000000  0.5242600000000 1.0
C      1  0.5772690000000  0.4815700000000  0.5632730000000 1.0
C      1  0.5715400000000  0.5605500000000  0.4442170000000 1.0
C      1  0.4377930000000  0.4808540000000  0.4149840000000 1.0
C      1  0.5804310000000  0.4732210000000  0.4678020000000 1.0
C      1  0.4505910000000  0.4276390000000  0.5064910000000 1.0
C      1  0.4391780000000  0.4494530000000  0.4925700000000 1.0
C      1  0.5025760000000  0.4347510000000  0.4468030000000 1.0
C      1  0.5168230000000  0.4331090000000  0.3871760000000 1.0
C      1  0.5122580000000  0.4614360000000  0.3873450000000 1.0
C      1  0.5492580000000  0.5783590000000  0.5061190000000 1.0
C      1  0.4302800000000  0.4756170000000  0.4972470000000 1.0
C      1  0.5207890000000  0.4478860000000  0.5072120000000 1.0
C      1  0.4937970000000  0.4616990000000  0.4503690000000 1.0
C      1  0.5211880000000  0.4032610000000  0.5232520000000 1.0
C      1  0.5324100000000  0.4550270000000  0.5693370000000 1.0
C      1  0.5944400000000  0.4964320000000  0.4789930000000 1.0
C      1  0.5250610000000  0.4272670000000  0.5658360000000 1.0
C      1  0.5239840000000  0.5096060000000  0.6519530000000 1.0
C      1  0.5978910000000  0.5226830000000  0.4674830000000 1.0
C      1  0.4820530000000  0.4213540000000  0.4325180000000 1.0
C      1  0.4765260000000  0.5310230000000  0.5888320000000 1.0
C      1  0.4167760000000  0.5611500000000  0.4911460000000 1.0
C      1  0.5918610000000  0.5710220000000  0.4834800000000 1.0
C      1  0.4843180000000  0.6127330000000  0.5074250000000 1.0
C      1  0.5402200000000  0.4431480000000  0.4849470000000 1.0
C      1  0.5441120000000  0.5749590000000  0.5352900000000 1.0
C      1  0.4992870000000  0.5690750000000  0.5304720000000 1.0
C      1  0.4713850000000  0.5572820000000  0.5800180000000 1.0
C      1  0.5348100000000  0.4198360000000  0.4055230000000 1.0
C      1  0.5624170000000  0.4392780000000  0.5370490000000 1.0
C      1  0.4354240000000  0.5453760000000  0.3775790000000 1.0
C      1  0.4989930000000  0.5275740000000  0.5130810000000 1.0
C      1  0.4609910000000  0.5115650000000  0.4918580000000 1.0
C      1  0.5219600000000  0.5755110000000  0.4148620000000 1.0
C      1  0.5259470000000  0.4922020000000  0.5129860000000 1.0
C      1  0.3803430000000  0.4688120000000  0.5853600000000 1.0
C      1  0.5157720000000  0.4997060000000  0.4454110000000 1.0
C      1  0.5798550000000  0.4726400000000  0.4391540000000 1.0
C      1  0.5944860000000  0.4956640000000  0.5073000000000 1.0
C      1  0.6137330000000  0.5413820000000  0.5827560000000 1.0
C      1  0.4360990000000  0.5254750000000  0.4366600000000 1.0
C      1  0.4364270000000  0.4184600000000  0.5295960000000 1.0
C      1  0.4536560000000  0.4659230000000  0.5653910000000 1.0
C      1  0.4792240000000  0.5404400000000  0.3594210000000 1.0
C      1  0.4083090000000  0.4220150000000  0.5286570000000 1.0
C      1  0.4954170000000  0.4792870000000  0.6261170000000 1.0
C      1  0.4736220000000  0.4978910000000  0.6258690000000 1.0
C      1  0.5094200000000  0.5422910000000  0.5354050000000 1.0
C      1  0.5541120000000  0.5832270000000  0.4557810000000 1.0
C      1  0.5300000000000  0.3828390000000  0.4733710000000 1.0
C      1  0.4458170000000  0.4552470000000  0.4164840000000 1.0
C      1  0.4843270000000  0.5264040000000  0.4880900000000 1.0
C      1  0.5624790000000  0.5442260000000  0.4231160000000 1.0
C      1  0.4206200000000  0.4379120000000  0.5871160000000 1.0
C      1  0.5300330000000  0.3849720000000  0.4463910000000 1.0
C      1  0.4007050000000  0.5116050000000  0.5082390000000 1.0
C      1  0.5033310000000  0.4175920000000  0.3681910000000 1.0
C      1  0.4804460000000  0.4125160000000  0.5537250000000 1.0
C      1  0.4992220000000  0.5901160000000  0.4581850000000 1.0
C      1  0.4243890000000  0.5806610000000  0.5389830000000 1.0
C      1  0.5210470000000  0.4689530000000  0.5275460000000 1.0
C      1  0.5056610000000  0.4852460000000  0.4015380000000 1.0
C      1  0.4590270000000  0.6074610000000  0.5219620000000 1.0
C      1  0.5004770000000  0.5699060000000  0.3947150000000 1.0
C      1  0.5275490000000  0.5654530000000  0.4916970000000 1.0
C      1  0.5253780000000  0.5886060000000  0.4426010000000 1.0
C      1  0.5080880000000  0.5147230000000  0.3937740000000 1.0
C      1  0.4190030000000  0.5817090000000  0.5109690000000 1.0
C      1  0.5114940000000  0.4871850000000  0.4880710000000 1.0
C      1  0.4599950000000  0.4328930000000  0.4215450000000 1.0
C      1  0.4317600000000  0.5026140000000  0.5850240000000 1.0
C      1  0.5285560000000  0.3891270000000  0.4996200000000 1.0
C      1  0.4938380000000  0.4452370000000  0.4964540000000 1.0
C      1  0.5365190000000  0.5441280000000  0.4765460000000 1.0
C      1  0.4786860000000  0.4244110000000  0.5068990000000 1.0
C      1  0.4277150000000  0.4972040000000  0.6109660000000 1.0
C      1  0.4515820000000  0.4956890000000  0.5626780000000 1.0
C      1  0.5591120000000  0.4328400000000  0.4105440000000 1.0
C      1  0.5781650000000  0.4506290000000  0.5143380000000 1.0
C      1  0.5008150000000  0.5353270000000  0.3754220000000 1.0
C      1  0.5275250000000  0.4319990000000  0.4613530000000 1.0
C      1  0.5054850000000  0.5249750000000  0.4406050000000 1.0
C      1  0.3963650000000  0.4482860000000  0.5913380000000 1.0
C      1  0.4279790000000  0.5229260000000  0.3903470000000 1.0
C      1  0.3854730000000  0.4627990000000  0.5070010000000 1.0
C      1  0.5048400000000  0.4967190000000  0.5666700000000 1.0
C      1  0.4358920000000  0.5679000000000  0.4695060000000 1.0
C      1  0.4375900000000  0.5493060000000  0.4486270000000 1.0
C      1  0.5465420000000  0.5238630000000  0.5639210000000 1.0
C      1  0.4503890000000  0.5920860000000  0.5458750000000 1.0
C      1  0.4435750000000  0.4403800000000  0.5712610000000 1.0
C      1  0.4906360000000  0.5373580000000  0.4613770000000 1.0
C      1  0.4920520000000  0.5414630000000  0.6359260000000 1.0
C      1  0.4108040000000  0.5118620000000  0.5355960000000 1.0
C      1  0.3919360000000  0.5089230000000  0.5560520000000 1.0
C      1  0.4897680000000  0.4027890000000  0.3515770000000 1.0
C      1  0.3896180000000  0.4391830000000  0.5195100000000 1.0
C      1  0.4465110000000  0.4917400000000  0.6294000000000 1.0
C      1  0.5915090000000  0.5501920000000  0.4634800000000 1.0
C      1  0.4863840000000  0.5643080000000  0.4556480000000 1.0
C      1  0.4986930000000  0.4205670000000  0.5746490000000 1.0
C      1  0.5265240000000  0.5106310000000  0.5797440000000 1.0
C      1  0.6015710000000  0.4753830000000  0.5493010000000 1.0
C      1  0.5144800000000  0.4724460000000  0.5549820000000 1.0
C      1  0.5327860000000  0.5016070000000  0.6056870000000 1.0
C      1  0.4792620000000  0.5249630000000  0.6167680000000 1.0
C      1  0.5368730000000  0.5505590000000  0.4140380000000 1.0
C      1  0.5670690000000  0.4538020000000  0.4871500000000 1.0
C      1  0.5721950000000  0.5103340000000  0.5671630000000 1.0
C      1  0.5735850000000  0.5186220000000  0.4191170000000 1.0
C      1  0.3790850000000  0.4920910000000  0.5723230000000 1.0
C      1  0.5209420000000  0.4923780000000  0.6295120000000 1.0
END
