TITL C-627108-131-755 1.06780141051243 125000 -936.713396112263 0 0 151 (C1) n - 1
REM
REM in /home/nfs/bkarasulu/CARBON/AIRSS/Generating-Clusters/LCBOP/Only-C1/SD-CG/FIRE-CG
REM
REM
REM
REM
REM
REM ./C.cell (11c1c37f851c82e70ff6c80c92926a4b)
REM AIRSS Version 0.9.1 bugfix July 2018 build 013d7b7c2542+ Fri, 06 Jul 2018 19:26:36 +0100
REM compiler GCC version 9.2.1 20190827 (Red Hat 9.2.1-1)
REM options -cpp -mtune=generic -march=x86-64 -g -O0 -fpre-include=/usr/include/finclude/math-vector-fortran.h
REM seed 680052479 -902399225 -1363057802 124241629 1286109843 -537530409 -1730084775 521273256 -57917063 -585915828 -491032069 1560421651 692576206 243141996 387181517 198000346 1024998279 1981652441 -65569424 696659787 -2093648624 -1601713416 -1037721539 206759749 2029972533 363697970 976064650 -770636554 -2082153063 1304723901 611882999 -374511600 -1081992460
REM
CELL 1.54180   50.00000   50.00000   50.00000   90.00000   90.00000   90.00000
LATT -1
SFAC C  
C      1  0.5997360000000  0.5631400000000  0.4416900000000 1.0
C      1  0.5002050000000  0.5792310000000  0.4331750000000 1.0
C      1  0.4373200000000  0.5104740000000  0.5679340000000 1.0
C      1  0.4990560000000  0.5645560000000  0.4993570000000 1.0
C      1  0.5179360000000  0.3964530000000  0.4315280000000 1.0
C      1  0.6028310000000  0.4500210000000  0.4480830000000 1.0
C      1  0.5003040000000  0.4666550000000  0.4913080000000 1.0
C      1  0.5164970000000  0.3948650000000  0.5747760000000 1.0
C      1  0.4544140000000  0.4211630000000  0.4355950000000 1.0
C      1  0.4275160000000  0.4020980000000  0.5612760000000 1.0
C      1  0.4560720000000  0.4082670000000  0.5025030000000 1.0
C      1  0.4155440000000  0.5509300000000  0.5533890000000 1.0
C      1  0.5014900000000  0.4530710000000  0.5439920000000 1.0
C      1  0.4920830000000  0.3915960000000  0.4367060000000 1.0
C      1  0.3838110000000  0.4917280000000  0.4924780000000 1.0
C      1  0.4861930000000  0.6000900000000  0.4483230000000 1.0
C      1  0.5048950000000  0.4544750000000  0.5714060000000 1.0
C      1  0.4796160000000  0.5853110000000  0.5961610000000 1.0
C      1  0.5576450000000  0.5393750000000  0.4176160000000 1.0
C      1  0.6045610000000  0.5634280000000  0.4694780000000 1.0
C      1  0.5560950000000  0.5284960000000  0.5522240000000 1.0
C      1  0.5279130000000  0.4651170000000  0.5822810000000 1.0
C      1  0.4764170000000  0.5349850000000  0.5950450000000 1.0
C      1  0.4510450000000  0.4708400000000  0.4297860000000 1.0
C      1  0.4653360000000  0.5449110000000  0.5284850000000 1.0
C      1  0.5540000000000  0.6020340000000  0.4782610000000 1.0
C      1  0.5099900000000  0.5411550000000  0.5595380000000 1.0
C      1  0.3788810000000  0.5107900000000  0.5482070000000 1.0
C      1  0.5452360000000  0.4568070000000  0.5047330000000 1.0
C      1  0.5438340000000  0.5727580000000  0.5703730000000 1.0
C      1  0.4407870000000  0.4455490000000  0.4385990000000 1.0
C      1  0.4793480000000  0.4509440000000  0.5839930000000 1.0
C      1  0.4800290000000  0.4890020000000  0.3950780000000 1.0
C      1  0.3880810000000  0.5194040000000  0.5007810000000 1.0
C      1  0.4401130000000  0.4822660000000  0.5708190000000 1.0
C      1  0.5391390000000  0.4341700000000  0.4538780000000 1.0
C      1  0.5059660000000  0.5891210000000  0.5124790000000 1.0
C      1  0.4728570000000  0.4223300000000  0.5778470000000 1.0
C      1  0.5828070000000  0.5203420000000  0.4185970000000 1.0
C      1  0.5563590000000  0.4085430000000  0.5467400000000 1.0
C      1  0.5599910000000  0.4000580000000  0.5199470000000 1.0
C      1  0.3821260000000  0.5301030000000  0.5269150000000 1.0
C      1  0.5038740000000  0.4629120000000  0.4277500000000 1.0
C      1  0.4097360000000  0.5281130000000  0.4584920000000 1.0
C      1  0.5639590000000  0.3918660000000  0.4461300000000 1.0
C      1  0.5419000000000  0.5930710000000  0.5511190000000 1.0
C      1  0.4853890000000  0.5581690000000  0.4200200000000 1.0
C      1  0.5416330000000  0.4087060000000  0.4410410000000 1.0
C      1  0.4456820000000  0.5906430000000  0.4907550000000 1.0
C      1  0.4322360000000  0.3964430000000  0.5113720000000 1.0
C      1  0.4434520000000  0.5286690000000  0.5233880000000 1.0
C      1  0.4371800000000  0.5642000000000  0.5664740000000 1.0
C      1  0.5777900000000  0.5786140000000  0.4318430000000 1.0
C      1  0.4929430000000  0.4049820000000  0.5338450000000 1.0
C      1  0.4776300000000  0.4712710000000  0.4176220000000 1.0
C      1  0.5882490000000  0.5513330000000  0.5151210000000 1.0
C      1  0.5420850000000  0.3946230000000  0.5664510000000 1.0
C      1  0.4633820000000  0.5569700000000  0.5541680000000 1.0
C      1  0.5740490000000  0.5917040000000  0.4925260000000 1.0
C      1  0.5988580000000  0.4733010000000  0.4324860000000 1.0
C      1  0.4156080000000  0.4734430000000  0.5550380000000 1.0
C      1  0.3917360000000  0.4901530000000  0.5608160000000 1.0
C      1  0.5908010000000  0.5690830000000  0.4935160000000 1.0
C      1  0.6024240000000  0.4895840000000  0.5096800000000 1.0
C      1  0.5635930000000  0.4866450000000  0.3848230000000 1.0
C      1  0.4773170000000  0.4670830000000  0.5071060000000 1.0
C      1  0.5109320000000  0.4029790000000  0.5096480000000 1.0
C      1  0.4654360000000  0.4769740000000  0.5860420000000 1.0
C      1  0.4357420000000  0.5213520000000  0.4979860000000 1.0
C      1  0.5261230000000  0.5279740000000  0.6144440000000 1.0
C      1  0.4921840000000  0.6710600000000  0.4640810000000 1.0
C      1  0.4698810000000  0.4027680000000  0.4502630000000 1.0
C      1  0.4005300000000  0.5767960000000  0.5162850000000 1.0
C      1  0.4907860000000  0.5442380000000  0.5172530000000 1.0
C      1  0.4844720000000  0.5055740000000  0.5964980000000 1.0
C      1  0.4120360000000  0.4657660000000  0.5269520000000 1.0
C      1  0.5499830000000  0.4414300000000  0.4801820000000 1.0
C      1  0.4494310000000  0.5210630000000  0.4251640000000 1.0
C      1  0.5522860000000  0.5662440000000  0.4258080000000 1.0
C      1  0.5424250000000  0.3712490000000  0.4863540000000 1.0
C      1  0.4302640000000  0.4605790000000  0.5058450000000 1.0
C      1  0.4525700000000  0.4767300000000  0.4997960000000 1.0
C      1  0.4829950000000  0.6057580000000  0.5187810000000 1.0
C      1  0.4216070000000  0.3950040000000  0.5360860000000 1.0
C      1  0.5370580000000  0.5972180000000  0.4582640000000 1.0
C      1  0.5148910000000  0.5072390000000  0.5983410000000 1.0
C      1  0.5991670000000  0.4537850000000  0.4764080000000 1.0
C      1  0.5523010000000  0.5095030000000  0.4733280000000 1.0
C      1  0.4931440000000  0.4055140000000  0.5630990000000 1.0
C      1  0.5371350000000  0.5525210000000  0.6150710000000 1.0
C      1  0.4717320000000  0.5339910000000  0.4124060000000 1.0
C      1  0.3869890000000  0.4727290000000  0.5135600000000 1.0
C      1  0.4110890000000  0.5296710000000  0.4867230000000 1.0
C      1  0.4462290000000  0.4128180000000  0.5771810000000 1.0
C      1  0.4202390000000  0.5890290000000  0.5025700000000 1.0
C      1  0.5291770000000  0.5945460000000  0.5274410000000 1.0
C      1  0.5582860000000  0.3713090000000  0.4645420000000 1.0
C      1  0.4204190000000  0.4449680000000  0.4846720000000 1.0
C      1  0.5130750000000  0.4466440000000  0.4493060000000 1.0
C      1  0.4793730000000  0.6184270000000  0.4698220000000 1.0
C      1  0.5264470000000  0.5045590000000  0.4303080000000 1.0
C      1  0.5937720000000  0.4811530000000  0.4844580000000 1.0
C      1  0.4843510000000  0.5443130000000  0.5689350000000 1.0
C      1  0.5823330000000  0.4111440000000  0.5057800000000 1.0
C      1  0.5662690000000  0.4825010000000  0.5433570000000 1.0
C      1  0.5417190000000  0.4752370000000  0.3955080000000 1.0
C      1  0.5333630000000  0.4927100000000  0.5811440000000 1.0
C      1  0.5366160000000  0.3900590000000  0.5065720000000 1.0
C      1  0.4826210000000  0.5159840000000  0.3932150000000 1.0
C      1  0.4359950000000  0.4963210000000  0.4331440000000 1.0
C      1  0.4384400000000  0.5651430000000  0.5950050000000 1.0
C      1  0.6047800000000  0.5400000000000  0.4258030000000 1.0
C      1  0.3949920000000  0.5555560000000  0.5342320000000 1.0
C      1  0.4520720000000  0.5014080000000  0.4865410000000 1.0
C      1  0.5781360000000  0.4985920000000  0.4672620000000 1.0
C      1  0.4710860000000  0.4214960000000  0.5235840000000 1.0
C      1  0.5921220000000  0.4892250000000  0.5343510000000 1.0
C      1  0.3924860000000  0.4862830000000  0.4649480000000 1.0
C      1  0.5584410000000  0.4361890000000  0.5486790000000 1.0
C      1  0.5366870000000  0.5022540000000  0.4955230000000 1.0
C      1  0.4651350000000  0.5607000000000  0.6053860000000 1.0
C      1  0.5891520000000  0.4011320000000  0.4383320000000 1.0
C      1  0.4564660000000  0.5691910000000  0.4756680000000 1.0
C      1  0.6030820000000  0.4239780000000  0.4378360000000 1.0
C      1  0.4207790000000  0.4442830000000  0.4580780000000 1.0
C      1  0.5366460000000  0.5170520000000  0.4514040000000 1.0
C      1  0.4807300000000  0.6011710000000  0.5735450000000 1.0
C      1  0.4990720000000  0.6960880000000  0.4616770000000 1.0
C      1  0.5811290000000  0.5057900000000  0.3922810000000 1.0
C      1  0.4983150000000  0.4167890000000  0.4861450000000 1.0
C      1  0.4721220000000  0.4056910000000  0.4786960000000 1.0
C      1  0.4783260000000  0.6085080000000  0.5472120000000 1.0
C      1  0.4829010000000  0.5584290000000  0.4760010000000 1.0
C      1  0.5292080000000  0.5796650000000  0.4371030000000 1.0
C      1  0.5368920000000  0.5472160000000  0.5598910000000 1.0
C      1  0.4730800000000  0.5096950000000  0.4700150000000 1.0
C      1  0.5958100000000  0.4311360000000  0.4934850000000 1.0
C      1  0.5861120000000  0.4979020000000  0.4395350000000 1.0
C      1  0.5762580000000  0.5376900000000  0.5347180000000 1.0
C      1  0.4853030000000  0.6455980000000  0.4665650000000 1.0
C      1  0.5253460000000  0.4770580000000  0.4997510000000 1.0
C      1  0.4860050000000  0.5326170000000  0.4653840000000 1.0
C      1  0.5244260000000  0.4799760000000  0.4170690000000 1.0
C      1  0.5519740000000  0.5011600000000  0.5600360000000 1.0
C      1  0.4666290000000  0.6099480000000  0.4950270000000 1.0
C      1  0.5448610000000  0.5725270000000  0.5985470000000 1.0
C      1  0.4790720000000  0.4485640000000  0.5276220000000 1.0
C      1  0.4281480000000  0.5257350000000  0.5468000000000 1.0
C      1  0.5561370000000  0.4583370000000  0.5318000000000 1.0
C      1  0.4113420000000  0.5010510000000  0.4479700000000 1.0
C      1  0.5012430000000  0.4435090000000  0.4749090000000 1.0
END
