TITL C-627108-131-287 3.22213945989267 125000 -846.721675938541 0 0 140 (C1) n - 1
REM
REM in /home/nfs/bkarasulu/CARBON/AIRSS/Generating-Clusters/LCBOP/Only-C1/SD-CG/FIRE-CG
REM
REM
REM
REM
REM
REM ./C.cell (11c1c37f851c82e70ff6c80c92926a4b)
REM AIRSS Version 0.9.1 bugfix July 2018 build 013d7b7c2542+ Fri, 06 Jul 2018 19:26:36 +0100
REM compiler GCC version 9.2.1 20190827 (Red Hat 9.2.1-1)
REM options -cpp -mtune=generic -march=x86-64 -g -O0 -fpre-include=/usr/include/finclude/math-vector-fortran.h
REM seed 1783439174 1748485810 -1087462562 -537168930 312494165 384153024 1643165153 1783155142 -957280988 460000155 1860567626 -1064170915 -813000278 841294948 -786565592 883318582 -1184333352 1180792870 -925719407 150563924 -833286095 -115890358 -434630608 -1570046189 777075497 -1862026036 -2094029010 -1134609070 -1957853576 -1633593002 1238059116 -424523979 1047718924
REM
CELL 1.54180   50.00000   50.00000   50.00000   90.00000   90.00000   90.00000
LATT -1
SFAC C  
C      1  0.5513980000000  0.5956170000000  0.4916470000000 1.0
C      1  0.4722270000000  0.4731770000000  0.6187280000000 1.0
C      1  0.4734620000000  0.5012470000000  0.6156710000000 1.0
C      1  0.4832740000000  0.6091340000000  0.4882180000000 1.0
C      1  0.5276310000000  0.4853580000000  0.6131480000000 1.0
C      1  0.5392490000000  0.4914030000000  0.3806570000000 1.0
C      1  0.5749270000000  0.5305360000000  0.4988440000000 1.0
C      1  0.4845540000000  0.5220500000000  0.3678680000000 1.0
C      1  0.4645690000000  0.5519120000000  0.5106320000000 1.0
C      1  0.5557740000000  0.4965400000000  0.4033290000000 1.0
C      1  0.5601450000000  0.5396160000000  0.4307020000000 1.0
C      1  0.4611510000000  0.6215060000000  0.4959930000000 1.0
C      1  0.5036440000000  0.4275830000000  0.5681990000000 1.0
C      1  0.5212140000000  0.5129410000000  0.6104050000000 1.0
C      1  0.4256160000000  0.6479590000000  0.5160880000000 1.0
C      1  0.4446850000000  0.4558260000000  0.5625780000000 1.0
C      1  0.4817940000000  0.5421130000000  0.3514930000000 1.0
C      1  0.3968140000000  0.4984410000000  0.4675630000000 1.0
C      1  0.4094440000000  0.5889660000000  0.4723950000000 1.0
C      1  0.5148630000000  0.3751570000000  0.5114870000000 1.0
C      1  0.5899310000000  0.4772090000000  0.4327100000000 1.0
C      1  0.5075970000000  0.3867000000000  0.5360740000000 1.0
C      1  0.4943880000000  0.5108700000000  0.4158510000000 1.0
C      1  0.4350480000000  0.4556570000000  0.4186060000000 1.0
C      1  0.4471140000000  0.5607580000000  0.5816040000000 1.0
C      1  0.5332870000000  0.5284710000000  0.5891790000000 1.0
C      1  0.4555600000000  0.4999840000000  0.5499040000000 1.0
C      1  0.5122900000000  0.4825290000000  0.3810320000000 1.0
C      1  0.4581890000000  0.4312870000000  0.5673250000000 1.0
C      1  0.6005260000000  0.5231320000000  0.4897280000000 1.0
C      1  0.5454960000000  0.5058280000000  0.4754270000000 1.0
C      1  0.4207520000000  0.4727860000000  0.5632430000000 1.0
C      1  0.4686960000000  0.4262450000000  0.5146880000000 1.0
C      1  0.6033130000000  0.4445110000000  0.5219420000000 1.0
C      1  0.5448360000000  0.5175000000000  0.4208360000000 1.0
C      1  0.4842780000000  0.5477860000000  0.6167460000000 1.0
C      1  0.4651500000000  0.5605740000000  0.6019920000000 1.0
C      1  0.5765650000000  0.5823790000000  0.4936780000000 1.0
C      1  0.4097640000000  0.6884320000000  0.5463910000000 1.0
C      1  0.4246430000000  0.4103140000000  0.4376280000000 1.0
C      1  0.4975860000000  0.4841460000000  0.5222390000000 1.0
C      1  0.5402070000000  0.4548710000000  0.5510610000000 1.0
C      1  0.5791350000000  0.4584850000000  0.5219300000000 1.0
C      1  0.3749300000000  0.5373420000000  0.5257200000000 1.0
C      1  0.4740120000000  0.3997870000000  0.4499920000000 1.0
C      1  0.4900050000000  0.5321260000000  0.5625340000000 1.0
C      1  0.5342900000000  0.5535620000000  0.4791080000000 1.0
C      1  0.5652710000000  0.4740570000000  0.4192180000000 1.0
C      1  0.5822700000000  0.5735110000000  0.5207690000000 1.0
C      1  0.6510750000000  0.4392480000000  0.5207550000000 1.0
C      1  0.4998560000000  0.4503610000000  0.4809300000000 1.0
C      1  0.5638020000000  0.3545360000000  0.5092630000000 1.0
C      1  0.5711400000000  0.5531180000000  0.5678990000000 1.0
C      1  0.5748130000000  0.5054050000000  0.5785150000000 1.0
C      1  0.5607390000000  0.5296440000000  0.5811980000000 1.0
C      1  0.4579400000000  0.5115440000000  0.5944930000000 1.0
C      1  0.5007550000000  0.3829120000000  0.4884370000000 1.0
C      1  0.4863690000000  0.4032520000000  0.4754630000000 1.0
C      1  0.4603360000000  0.4294810000000  0.3875780000000 1.0
C      1  0.4725850000000  0.4091810000000  0.4012460000000 1.0
C      1  0.4305280000000  0.5509930000000  0.4437330000000 1.0
C      1  0.3939060000000  0.7289190000000  0.5767060000000 1.0
C      1  0.4840160000000  0.4281000000000  0.4901670000000 1.0
C      1  0.4339690000000  0.6266520000000  0.5001970000000 1.0
C      1  0.5146200000000  0.5383410000000  0.5704790000000 1.0
C      1  0.4635730000000  0.4803530000000  0.3865540000000 1.0
C      1  0.4684570000000  0.4174660000000  0.5421170000000 1.0
C      1  0.4018360000000  0.7086730000000  0.5615470000000 1.0
C      1  0.4881840000000  0.5000260000000  0.3872640000000 1.0
C      1  0.6158830000000  0.4768180000000  0.4213960000000 1.0
C      1  0.5661200000000  0.4643720000000  0.5465510000000 1.0
C      1  0.4494740000000  0.5567410000000  0.5323440000000 1.0
C      1  0.5128910000000  0.4512340000000  0.5549010000000 1.0
C      1  0.4514860000000  0.5375010000000  0.4347510000000 1.0
C      1  0.3861070000000  0.7488320000000  0.5916150000000 1.0
C      1  0.4398570000000  0.4739050000000  0.4653640000000 1.0
C      1  0.5752960000000  0.5568160000000  0.4457740000000 1.0
C      1  0.5885040000000  0.4882450000000  0.4592210000000 1.0
C      1  0.5730330000000  0.5531750000000  0.5394310000000 1.0
C      1  0.6225500000000  0.4008250000000  0.5160300000000 1.0
C      1  0.6367310000000  0.4903600000000  0.4324680000000 1.0
C      1  0.4768890000000  0.4913730000000  0.5020830000000 1.0
C      1  0.4907700000000  0.5130000000000  0.4874460000000 1.0
C      1  0.5650280000000  0.5296010000000  0.5254900000000 1.0
C      1  0.6101020000000  0.3776270000000  0.5128450000000 1.0
C      1  0.5186570000000  0.4992820000000  0.4854610000000 1.0
C      1  0.4176910000000  0.6681910000000  0.5312360000000 1.0
C      1  0.4164470000000  0.5290820000000  0.5554600000000 1.0
C      1  0.5035950000000  0.5928950000000  0.4830810000000 1.0
C      1  0.5193230000000  0.5046860000000  0.4294350000000 1.0
C      1  0.5125770000000  0.4735410000000  0.4696810000000 1.0
C      1  0.4802640000000  0.5383950000000  0.4934000000000 1.0
C      1  0.5658250000000  0.4853200000000  0.4760040000000 1.0
C      1  0.5428070000000  0.5116850000000  0.5286900000000 1.0
C      1  0.4509110000000  0.4660540000000  0.4402730000000 1.0
C      1  0.4500790000000  0.4557310000000  0.3936610000000 1.0
C      1  0.6337490000000  0.5045310000000  0.4555060000000 1.0
C      1  0.4458840000000  0.3976730000000  0.4480940000000 1.0
C      1  0.4114510000000  0.4745380000000  0.4686560000000 1.0
C      1  0.4879560000000  0.4062680000000  0.4256710000000 1.0
C      1  0.4147410000000  0.4940960000000  0.5208920000000 1.0
C      1  0.5234830000000  0.4785650000000  0.4432010000000 1.0
C      1  0.4782710000000  0.4627660000000  0.4341720000000 1.0
C      1  0.4655210000000  0.4733690000000  0.5523560000000 1.0
C      1  0.5361390000000  0.4324680000000  0.4329850000000 1.0
C      1  0.4364090000000  0.5504640000000  0.5570040000000 1.0
C      1  0.3727040000000  0.5308410000000  0.4999320000000 1.0
C      1  0.4188930000000  0.4333450000000  0.4248870000000 1.0
C      1  0.5791570000000  0.5752320000000  0.5828790000000 1.0
C      1  0.4557300000000  0.4795390000000  0.4880940000000 1.0
C      1  0.5229750000000  0.4958930000000  0.5156620000000 1.0
C      1  0.5863570000000  0.5960660000000  0.5967780000000 1.0
C      1  0.4745830000000  0.5264380000000  0.4280040000000 1.0
C      1  0.6091830000000  0.5057520000000  0.4693840000000 1.0
C      1  0.5285240000000  0.5807680000000  0.4841270000000 1.0
C      1  0.3816500000000  0.5172500000000  0.4788080000000 1.0
C      1  0.5894930000000  0.3610900000000  0.5104220000000 1.0
C      1  0.5091490000000  0.4254530000000  0.4272610000000 1.0
C      1  0.4948390000000  0.4067990000000  0.5502240000000 1.0
C      1  0.6260350000000  0.4283530000000  0.5196160000000 1.0
C      1  0.5376960000000  0.3592520000000  0.5096250000000 1.0
C      1  0.4815650000000  0.4343960000000  0.5865740000000 1.0
C      1  0.5163050000000  0.4608560000000  0.6107010000000 1.0
C      1  0.5437840000000  0.4601590000000  0.4326460000000 1.0
C      1  0.4888430000000  0.4531790000000  0.6072910000000 1.0
C      1  0.3981240000000  0.4511040000000  0.4762630000000 1.0
C      1  0.4154900000000  0.6096210000000  0.4879190000000 1.0
C      1  0.5770160000000  0.4824440000000  0.5650890000000 1.0
C      1  0.3853460000000  0.4309510000000  0.4867470000000 1.0
C      1  0.4252970000000  0.5003870000000  0.5486000000000 1.0
C      1  0.4946710000000  0.5209580000000  0.6197030000000 1.0
C      1  0.3901700000000  0.5360820000000  0.5476620000000 1.0
C      1  0.4672860000000  0.5171240000000  0.5684060000000 1.0
C      1  0.4969780000000  0.4498580000000  0.4172060000000 1.0
C      1  0.4922930000000  0.4687070000000  0.5446320000000 1.0
C      1  0.5682150000000  0.4674990000000  0.4976500000000 1.0
C      1  0.4153110000000  0.5684650000000  0.4566170000000 1.0
C      1  0.5069270000000  0.4570950000000  0.3918790000000 1.0
C      1  0.5528130000000  0.5322990000000  0.4807500000000 1.0
C      1  0.5840290000000  0.5705950000000  0.4679910000000 1.0
END
