TITL C-627108-131-693 0.00149230048372987 125000 -655.886407870952 0 0 107 (C1) n - 1
REM
REM in /home/nfs/bkarasulu/CARBON/AIRSS/Generating-Clusters/LCBOP/Only-C1/SD-CG/FIRE-CG
REM
REM
REM
REM
REM
REM ./C.cell (11c1c37f851c82e70ff6c80c92926a4b)
REM AIRSS Version 0.9.1 bugfix July 2018 build 013d7b7c2542+ Fri, 06 Jul 2018 19:26:36 +0100
REM compiler GCC version 9.2.1 20190827 (Red Hat 9.2.1-1)
REM options -cpp -mtune=generic -march=x86-64 -g -O0 -fpre-include=/usr/include/finclude/math-vector-fortran.h
REM seed -1087401148 1709078354 -904506608 78087253 450092836 -1699813412 -857347699 -1750659193 -1006789396 2138573756 508777298 1520806717 1622448621 958561018 1799099122 -569610099 -443424730 -1040783807 -982048357 743913023 1927801211 1548188395 -1270213861 1431504987 1464447615 -403639823 1373854525 -1855619782 -1337230169 -203916559 -1222285433 -776797320 -507992727
REM
CELL 1.54180   50.00000   50.00000   50.00000   90.00000   90.00000   90.00000
LATT -1
SFAC C  
C      1  0.4941420000000  0.5466670000000  0.5840390000000 1.0
C      1  0.5058420000000  0.5832850000000  0.5162300000000 1.0
C      1  0.5253140000000  0.4215820000000  0.5650780000000 1.0
C      1  0.3935100000000  0.5104160000000  0.5216780000000 1.0
C      1  0.4357750000000  0.4687140000000  0.4912010000000 1.0
C      1  0.5970440000000  0.4848260000000  0.5124580000000 1.0
C      1  0.5276270000000  0.4955180000000  0.5450610000000 1.0
C      1  0.4610820000000  0.4689120000000  0.5050750000000 1.0
C      1  0.6017990000000  0.4921730000000  0.5621340000000 1.0
C      1  0.5229800000000  0.5467170000000  0.5923370000000 1.0
C      1  0.4220660000000  0.5011930000000  0.4302020000000 1.0
C      1  0.4236800000000  0.4481640000000  0.4226290000000 1.0
C      1  0.4992150000000  0.5840600000000  0.4877970000000 1.0
C      1  0.5518240000000  0.4573770000000  0.4394520000000 1.0
C      1  0.5753220000000  0.4949390000000  0.4960810000000 1.0
C      1  0.5129850000000  0.5152000000000  0.4760910000000 1.0
C      1  0.4248370000000  0.4439070000000  0.4838360000000 1.0
C      1  0.4600250000000  0.5019850000000  0.4710440000000 1.0
C      1  0.4791830000000  0.5671330000000  0.5663910000000 1.0
C      1  0.4515830000000  0.5698090000000  0.5733140000000 1.0
C      1  0.5555130000000  0.4735190000000  0.4906220000000 1.0
C      1  0.5665940000000  0.5713060000000  0.4867750000000 1.0
C      1  0.6160140000000  0.4125360000000  0.5698740000000 1.0
C      1  0.4818390000000  0.5063420000000  0.3867430000000 1.0
C      1  0.5115410000000  0.5370890000000  0.5387460000000 1.0
C      1  0.4460030000000  0.5726920000000  0.4825750000000 1.0
C      1  0.5136070000000  0.5696360000000  0.4651420000000 1.0
C      1  0.5562890000000  0.4838200000000  0.4359370000000 1.0
C      1  0.5335110000000  0.5764920000000  0.5247070000000 1.0
C      1  0.5077400000000  0.4535780000000  0.5102880000000 1.0
C      1  0.5347040000000  0.5323490000000  0.4311070000000 1.0
C      1  0.5705890000000  0.5247190000000  0.4942830000000 1.0
C      1  0.4282800000000  0.4258900000000  0.4641210000000 1.0
C      1  0.5090170000000  0.5358930000000  0.4155640000000 1.0
C      1  0.5601660000000  0.5227020000000  0.5722170000000 1.0
C      1  0.5589160000000  0.5687710000000  0.5140590000000 1.0
C      1  0.4793410000000  0.4902390000000  0.4538700000000 1.0
C      1  0.5070200000000  0.5153750000000  0.3952080000000 1.0
C      1  0.5849540000000  0.4790020000000  0.5783360000000 1.0
C      1  0.5641880000000  0.4599910000000  0.5788130000000 1.0
C      1  0.4714780000000  0.5184210000000  0.5167530000000 1.0
C      1  0.4895720000000  0.4146230000000  0.4270530000000 1.0
C      1  0.5066780000000  0.4954910000000  0.4575670000000 1.0
C      1  0.4840470000000  0.5706930000000  0.5356570000000 1.0
C      1  0.4856450000000  0.5419290000000  0.5278160000000 1.0
C      1  0.6345380000000  0.3988880000000  0.5821100000000 1.0
C      1  0.4452460000000  0.5128340000000  0.4173400000000 1.0
C      1  0.5356420000000  0.4668510000000  0.5794100000000 1.0
C      1  0.5258280000000  0.4693420000000  0.3915750000000 1.0
C      1  0.4914210000000  0.5335920000000  0.4767240000000 1.0
C      1  0.4806350000000  0.4474770000000  0.4650570000000 1.0
C      1  0.5103330000000  0.5147350000000  0.5543880000000 1.0
C      1  0.4115740000000  0.5548720000000  0.5128920000000 1.0
C      1  0.4177190000000  0.5085030000000  0.4578910000000 1.0
C      1  0.4623310000000  0.4153150000000  0.4299450000000 1.0
C      1  0.4287230000000  0.5061280000000  0.5682910000000 1.0
C      1  0.5619630000000  0.5459520000000  0.4727840000000 1.0
C      1  0.4242890000000  0.5544680000000  0.4870190000000 1.0
C      1  0.3768810000000  0.4912960000000  0.5139480000000 1.0
C      1  0.5445360000000  0.5054360000000  0.4219920000000 1.0
C      1  0.4857990000000  0.5453030000000  0.4296880000000 1.0
C      1  0.4158510000000  0.4741530000000  0.4226090000000 1.0
C      1  0.5507510000000  0.4140350000000  0.5702580000000 1.0
C      1  0.4620210000000  0.4944490000000  0.4032840000000 1.0
C      1  0.4685090000000  0.4682950000000  0.4136280000000 1.0
C      1  0.5338110000000  0.4582860000000  0.4982720000000 1.0
C      1  0.5283430000000  0.5105230000000  0.4979930000000 1.0
C      1  0.4701430000000  0.5851040000000  0.4835180000000 1.0
C      1  0.4371340000000  0.4274180000000  0.4371740000000 1.0
C      1  0.5358150000000  0.4983350000000  0.5201890000000 1.0
C      1  0.5404210000000  0.5491790000000  0.4541550000000 1.0
C      1  0.4152120000000  0.5351970000000  0.4678390000000 1.0
C      1  0.4687630000000  0.4893960000000  0.5248830000000 1.0
C      1  0.4919780000000  0.5526830000000  0.4560330000000 1.0
C      1  0.3996490000000  0.5782590000000  0.5210880000000 1.0
C      1  0.5235570000000  0.4909400000000  0.5922750000000 1.0
C      1  0.5960800000000  0.4273380000000  0.5571280000000 1.0
C      1  0.5717120000000  0.4330230000000  0.5707320000000 1.0
C      1  0.5684790000000  0.5409290000000  0.5208480000000 1.0
C      1  0.5191860000000  0.4490920000000  0.5618230000000 1.0
C      1  0.4302230000000  0.5544190000000  0.5682760000000 1.0
C      1  0.4742420000000  0.4650990000000  0.4421560000000 1.0
C      1  0.4934740000000  0.4933680000000  0.5893960000000 1.0
C      1  0.6013430000000  0.4567790000000  0.5130340000000 1.0
C      1  0.4920890000000  0.5191150000000  0.5763190000000 1.0
C      1  0.4805780000000  0.4745140000000  0.5468630000000 1.0
C      1  0.3614710000000  0.4722670000000  0.5050050000000 1.0
C      1  0.5089320000000  0.4472180000000  0.3973810000000 1.0
C      1  0.5359950000000  0.4359410000000  0.4350260000000 1.0
C      1  0.4591020000000  0.5371270000000  0.4233750000000 1.0
C      1  0.4691960000000  0.5217880000000  0.4884150000000 1.0
C      1  0.6000610000000  0.4369170000000  0.5309540000000 1.0
C      1  0.5375150000000  0.5194290000000  0.5910350000000 1.0
C      1  0.5346870000000  0.5650980000000  0.5735000000000 1.0
C      1  0.4812930000000  0.4520430000000  0.3944260000000 1.0
C      1  0.4834970000000  0.4536960000000  0.4934620000000 1.0
C      1  0.4459840000000  0.4876250000000  0.5774210000000 1.0
C      1  0.5285790000000  0.4965850000000  0.3988480000000 1.0
C      1  0.4218510000000  0.5306090000000  0.5558000000000 1.0
C      1  0.4729310000000  0.4791510000000  0.5742830000000 1.0
C      1  0.6059540000000  0.4975100000000  0.5360700000000 1.0
C      1  0.4096480000000  0.5317690000000  0.5298680000000 1.0
C      1  0.5282990000000  0.5592820000000  0.5466150000000 1.0
C      1  0.5134700000000  0.4290420000000  0.4193620000000 1.0
C      1  0.5027100000000  0.4571820000000  0.5396420000000 1.0
C      1  0.5692320000000  0.5313900000000  0.5479180000000 1.0
C      1  0.4336900000000  0.4917310000000  0.4748050000000 1.0
END
