TITL C-627111-6168-835 -0.000193645992059322 125000 -935.087092135283 0 0 152 (C1) n - 1
REM
REM in /home/nfs/bkarasulu/CARBON/AIRSS/Generating-Clusters/LCBOP/Only-C1/SD-CG/FIRE-CG
REM
REM
REM
REM
REM
REM ./C.cell (11c1c37f851c82e70ff6c80c92926a4b)
REM AIRSS Version 0.9.1 bugfix July 2018 build 013d7b7c2542+ Fri, 06 Jul 2018 19:26:36 +0100
REM compiler GCC version 9.2.1 20190827 (Red Hat 9.2.1-1)
REM options -cpp -mtune=generic -march=x86-64 -g -O0 -fpre-include=/usr/include/finclude/math-vector-fortran.h
REM seed 1875035163 -1911018202 1657959038 -2030810308 -528412127 1289146104 -717963100 492909002 -830505976 436007185 -1371883172 -666040189 695865615 -44655139 -430813621 739170688 1698379699 62937638 -1926065063 1980025204 1880753980 -177326098 -210159116 1479798631 -211427211 1162321595 -1587483904 167240945 -753733144 155038215 1269353276 -763774873 189742535
REM
CELL 1.54180   50.00000   50.00000   50.00000   90.00000   90.00000   90.00000
LATT -1
SFAC C  
C      1  0.5493430000000  0.5703520000000  0.4587820000000 1.0
C      1  0.4456500000000  0.4454580000000  0.4802550000000 1.0
C      1  0.4709670000000  0.5434550000000  0.6030000000000 1.0
C      1  0.5438890000000  0.5253200000000  0.4101510000000 1.0
C      1  0.4965190000000  0.6470520000000  0.5732930000000 1.0
C      1  0.4951150000000  0.5320270000000  0.4470830000000 1.0
C      1  0.5835310000000  0.4610800000000  0.5857670000000 1.0
C      1  0.6027650000000  0.4211350000000  0.4747730000000 1.0
C      1  0.4932270000000  0.4008160000000  0.5040680000000 1.0
C      1  0.4220550000000  0.5882160000000  0.4973320000000 1.0
C      1  0.5204160000000  0.4702190000000  0.5425660000000 1.0
C      1  0.4899230000000  0.4804320000000  0.4942350000000 1.0
C      1  0.5570560000000  0.4454740000000  0.5551750000000 1.0
C      1  0.4359030000000  0.4585540000000  0.4553610000000 1.0
C      1  0.5837050000000  0.5405490000000  0.4981210000000 1.0
C      1  0.4309590000000  0.5329260000000  0.5706820000000 1.0
C      1  0.4741420000000  0.4666450000000  0.5158540000000 1.0
C      1  0.5606260000000  0.5630590000000  0.5699110000000 1.0
C      1  0.4322150000000  0.4124190000000  0.5469920000000 1.0
C      1  0.5556120000000  0.4172520000000  0.4607940000000 1.0
C      1  0.5047200000000  0.3983120000000  0.4536230000000 1.0
C      1  0.5321660000000  0.4257070000000  0.5121670000000 1.0
C      1  0.5266540000000  0.5888380000000  0.5446590000000 1.0
C      1  0.4555220000000  0.4476620000000  0.5789030000000 1.0
C      1  0.4246890000000  0.4611370000000  0.5384770000000 1.0
C      1  0.5010600000000  0.6025500000000  0.5424990000000 1.0
C      1  0.5175440000000  0.4728350000000  0.4949670000000 1.0
C      1  0.5592680000000  0.4551780000000  0.5987380000000 1.0
C      1  0.4813480000000  0.4597750000000  0.4473160000000 1.0
C      1  0.5593410000000  0.5927520000000  0.5011300000000 1.0
C      1  0.3967820000000  0.5160250000000  0.4029200000000 1.0
C      1  0.5935020000000  0.5102090000000  0.4938970000000 1.0
C      1  0.4629550000000  0.5138470000000  0.3949410000000 1.0
C      1  0.6125470000000  0.4483360000000  0.5176890000000 1.0
C      1  0.4877090000000  0.6077690000000  0.4744010000000 1.0
C      1  0.4121910000000  0.5090210000000  0.4483680000000 1.0
C      1  0.4967490000000  0.4619540000000  0.5346070000000 1.0
C      1  0.4496020000000  0.5221450000000  0.5530060000000 1.0
C      1  0.5007140000000  0.4304220000000  0.4159810000000 1.0
C      1  0.5223170000000  0.5296980000000  0.4554910000000 1.0
C      1  0.5164330000000  0.5281440000000  0.5951720000000 1.0
C      1  0.4768230000000  0.5965490000000  0.5266220000000 1.0
C      1  0.5028030000000  0.4814150000000  0.4110230000000 1.0
C      1  0.4334350000000  0.4048680000000  0.4958560000000 1.0
C      1  0.4870180000000  0.4186750000000  0.5511550000000 1.0
C      1  0.4433580000000  0.5252360000000  0.4131710000000 1.0
C      1  0.5167980000000  0.5485600000000  0.5731180000000 1.0
C      1  0.4622780000000  0.5645970000000  0.5884080000000 1.0
C      1  0.4520960000000  0.5090930000000  0.4888430000000 1.0
C      1  0.4271370000000  0.4854860000000  0.4575670000000 1.0
C      1  0.4908130000000  0.5223910000000  0.3923870000000 1.0
C      1  0.4069320000000  0.4801230000000  0.4979900000000 1.0
C      1  0.5875200000000  0.5013440000000  0.4656800000000 1.0
C      1  0.5389400000000  0.5467540000000  0.4699260000000 1.0
C      1  0.5315640000000  0.4508150000000  0.5976730000000 1.0
C      1  0.5171360000000  0.5331830000000  0.5490540000000 1.0
C      1  0.5608330000000  0.5128680000000  0.5503110000000 1.0
C      1  0.5704690000000  0.5138860000000  0.4189080000000 1.0
C      1  0.5976230000000  0.4959400000000  0.5202310000000 1.0
C      1  0.5112310000000  0.4029470000000  0.5478680000000 1.0
C      1  0.4965970000000  0.4818640000000  0.5814750000000 1.0
C      1  0.5340430000000  0.4024190000000  0.5640590000000 1.0
C      1  0.4283480000000  0.5750090000000  0.5218780000000 1.0
C      1  0.4121630000000  0.4538640000000  0.5106160000000 1.0
C      1  0.5547910000000  0.4194630000000  0.5617500000000 1.0
C      1  0.5198860000000  0.5964840000000  0.4341190000000 1.0
C      1  0.5300310000000  0.4470770000000  0.4944150000000 1.0
C      1  0.4509630000000  0.4759920000000  0.5330250000000 1.0
C      1  0.4836450000000  0.5061890000000  0.4523520000000 1.0
C      1  0.4520850000000  0.5838150000000  0.5380880000000 1.0
C      1  0.4576520000000  0.3973480000000  0.4710710000000 1.0
C      1  0.4717060000000  0.5461810000000  0.5124470000000 1.0
C      1  0.5439240000000  0.4707200000000  0.5574700000000 1.0
C      1  0.4230160000000  0.4323650000000  0.4936690000000 1.0
C      1  0.4327050000000  0.3976040000000  0.5237710000000 1.0
C      1  0.4939930000000  0.5196210000000  0.5452200000000 1.0
C      1  0.4869460000000  0.3943830000000  0.4774590000000 1.0
C      1  0.5320740000000  0.5722670000000  0.5687880000000 1.0
C      1  0.5401320000000  0.5192110000000  0.5089780000000 1.0
C      1  0.5016330000000  0.6059560000000  0.4515480000000 1.0
C      1  0.5145100000000  0.5064830000000  0.4010300000000 1.0
C      1  0.5398490000000  0.5760000000000  0.4330400000000 1.0
C      1  0.4985390000000  0.4546840000000  0.4003940000000 1.0
C      1  0.4709750000000  0.5348870000000  0.5379840000000 1.0
C      1  0.4308290000000  0.4917000000000  0.4858670000000 1.0
C      1  0.5903240000000  0.5606010000000  0.4759070000000 1.0
C      1  0.4990170000000  0.6259800000000  0.5581680000000 1.0
C      1  0.5401380000000  0.5249790000000  0.5358830000000 1.0
C      1  0.5870170000000  0.5114730000000  0.5417900000000 1.0
C      1  0.5857490000000  0.5216540000000  0.4437360000000 1.0
C      1  0.5170720000000  0.4031840000000  0.5194590000000 1.0
C      1  0.5390970000000  0.5554330000000  0.4117080000000 1.0
C      1  0.5503120000000  0.4962440000000  0.5713750000000 1.0
C      1  0.3971300000000  0.5323930000000  0.5391710000000 1.0
C      1  0.4887760000000  0.5208980000000  0.6047620000000 1.0
C      1  0.5049760000000  0.4541940000000  0.5852330000000 1.0
C      1  0.4347490000000  0.4392200000000  0.5581880000000 1.0
C      1  0.4581300000000  0.4947140000000  0.5527690000000 1.0
C      1  0.4818830000000  0.5494000000000  0.4280530000000 1.0
C      1  0.5801420000000  0.4889760000000  0.4075350000000 1.0
C      1  0.4868750000000  0.4956000000000  0.5584530000000 1.0
C      1  0.4541830000000  0.5777200000000  0.5661600000000 1.0
C      1  0.4831210000000  0.4366590000000  0.5736810000000 1.0
C      1  0.6124180000000  0.4305970000000  0.4978300000000 1.0
C      1  0.4020730000000  0.5455720000000  0.4874340000000 1.0
C      1  0.5528380000000  0.5369150000000  0.4923720000000 1.0
C      1  0.5442640000000  0.5170920000000  0.5922660000000 1.0
C      1  0.5262700000000  0.4318200000000  0.4295440000000 1.0
C      1  0.5466480000000  0.4799610000000  0.4493990000000 1.0
C      1  0.6038110000000  0.4699940000000  0.5333260000000 1.0
C      1  0.5872640000000  0.5538580000000  0.5252230000000 1.0
C      1  0.4167960000000  0.5762370000000  0.4503340000000 1.0
C      1  0.4036970000000  0.4809790000000  0.5484210000000 1.0
C      1  0.4361880000000  0.5692900000000  0.4335880000000 1.0
C      1  0.5707550000000  0.5692290000000  0.5427700000000 1.0
C      1  0.4857880000000  0.4098990000000  0.4322210000000 1.0
C      1  0.4884520000000  0.4837130000000  0.4359350000000 1.0
C      1  0.3923380000000  0.5043590000000  0.5405930000000 1.0
C      1  0.5425520000000  0.4412410000000  0.4707750000000 1.0
C      1  0.3865850000000  0.4985110000000  0.4887720000000 1.0
C      1  0.5325390000000  0.4066340000000  0.4457830000000 1.0
C      1  0.5692600000000  0.5814950000000  0.4763720000000 1.0
C      1  0.5346020000000  0.4939140000000  0.5002140000000 1.0
C      1  0.4288350000000  0.4421920000000  0.4336870000000 1.0
C      1  0.4534490000000  0.5488370000000  0.4264910000000 1.0
C      1  0.4766510000000  0.4996180000000  0.4788790000000 1.0
C      1  0.4102970000000  0.5716320000000  0.4768960000000 1.0
C      1  0.4781670000000  0.6045700000000  0.4992650000000 1.0
C      1  0.4171400000000  0.5167360000000  0.4212320000000 1.0
C      1  0.5885250000000  0.4642940000000  0.4163200000000 1.0
C      1  0.4522850000000  0.5358860000000  0.4954220000000 1.0
C      1  0.5744200000000  0.4771720000000  0.4577640000000 1.0
C      1  0.4934970000000  0.5495500000000  0.4013200000000 1.0
C      1  0.4073460000000  0.5471940000000  0.5172070000000 1.0
C      1  0.5514720000000  0.5869500000000  0.5281800000000 1.0
C      1  0.4561950000000  0.4715770000000  0.5989100000000 1.0
C      1  0.5172220000000  0.5623020000000  0.3944970000000 1.0
C      1  0.4943380000000  0.5572070000000  0.5020230000000 1.0
C      1  0.4369070000000  0.4170260000000  0.4290470000000 1.0
C      1  0.4785870000000  0.4921850000000  0.6022580000000 1.0
C      1  0.5333880000000  0.5041090000000  0.4510610000000 1.0
C      1  0.4756610000000  0.4196880000000  0.5177310000000 1.0
C      1  0.5830470000000  0.4274450000000  0.4555550000000 1.0
C      1  0.5632760000000  0.5406910000000  0.5886510000000 1.0
C      1  0.5345260000000  0.4546900000000  0.4459890000000 1.0
C      1  0.5979920000000  0.4659230000000  0.5623090000000 1.0
C      1  0.5859660000000  0.4541360000000  0.4432380000000 1.0
C      1  0.4663900000000  0.4418320000000  0.5019620000000 1.0
C      1  0.4063560000000  0.5417380000000  0.5642520000000 1.0
C      1  0.5958200000000  0.5473160000000  0.4510790000000 1.0
C      1  0.3966450000000  0.5208700000000  0.4720370000000 1.0
C      1  0.4585030000000  0.4049280000000  0.4420850000000 1.0
END
