TITL C-627110-360-1892 6.33230424613588e-07 125000 -145.265760961834 0 0 25 (C1) n - 1
REM
REM in /home/nfs/bkarasulu/CARBON/AIRSS/Generating-Clusters/LCBOP/Only-C1/SD-CG/FIRE-CG
REM
REM
REM
REM
REM
REM ./C.cell (11c1c37f851c82e70ff6c80c92926a4b)
REM AIRSS Version 0.9.1 bugfix July 2018 build 013d7b7c2542+ Fri, 06 Jul 2018 19:26:36 +0100
REM compiler GCC version 9.2.1 20190827 (Red Hat 9.2.1-1)
REM options -cpp -mtune=generic -march=x86-64 -g -O0 -fpre-include=/usr/include/finclude/math-vector-fortran.h
REM seed 1911311190 -2042434400 -1492631629 -269147748 109581916 763424128 590106181 1591831937 523199161 -280541804 -782088339 -912052459 1449432841 1537380399 -1248485219 1916552201 -410564773 -852828450 -34245207 -1649696700 -1710711261 -1158517957 -2142853003 73015412 2056744467 786780349 -1347283473 1627494380 358757758 -171313541 -915918927 707088001 1469435281
REM
CELL 1.54180   50.00000   50.00000   50.00000   90.00000   90.00000   90.00000
LATT -1
SFAC C  
C      1  0.5016120000000  0.4400830000000  0.4746970000000 1.0
C      1  0.4988420000000  0.5573790000000  0.5173790000000 1.0
C      1  0.4876010000000  0.4735910000000  0.5121600000000 1.0
C      1  0.5008070000000  0.5016120000000  0.5645010000000 1.0
C      1  0.5086280000000  0.4370210000000  0.4477410000000 1.0
C      1  0.5060450000000  0.4799570000000  0.6121060000000 1.0
C      1  0.5155020000000  0.4120740000000  0.4373960000000 1.0
C      1  0.4988090000000  0.5132130000000  0.5391370000000 1.0
C      1  0.5085000000000  0.4598780000000  0.4315430000000 1.0
C      1  0.4976820000000  0.5098940000000  0.4370670000000 1.0
C      1  0.5120520000000  0.5382070000000  0.5340080000000 1.0
C      1  0.5372190000000  0.5436200000000  0.5447140000000 1.0
C      1  0.5034620000000  0.5482370000000  0.4675560000000 1.0
C      1  0.4828770000000  0.5002720000000  0.5190940000000 1.0
C      1  0.4542320000000  0.5394510000000  0.5153610000000 1.0
C      1  0.5079050000000  0.5608840000000  0.4908660000000 1.0
C      1  0.4891360000000  0.5257640000000  0.4583280000000 1.0
C      1  0.4942830000000  0.4531040000000  0.4966490000000 1.0
C      1  0.4708350000000  0.5600130000000  0.5217390000000 1.0
C      1  0.4687490000000  0.5162460000000  0.4754910000000 1.0
C      1  0.5033810000000  0.4906800000000  0.5884940000000 1.0
C      1  0.5219300000000  0.3887410000000  0.4277280000000 1.0
C      1  0.5607200000000  0.5483000000000  0.5549570000000 1.0
C      1  0.4645930000000  0.5158640000000  0.5033930000000 1.0
C      1  0.5045980000000  0.4859150000000  0.4278930000000 1.0
END
