TITL C-627108-131-1795 5.99012288288265e-06 125000 -690.412475712147 0 0 112 (C1) n - 1
REM
REM in /home/nfs/bkarasulu/CARBON/AIRSS/Generating-Clusters/LCBOP/Only-C1/SD-CG/FIRE-CG
REM
REM
REM
REM
REM
REM ./C.cell (11c1c37f851c82e70ff6c80c92926a4b)
REM AIRSS Version 0.9.1 bugfix July 2018 build 013d7b7c2542+ Fri, 06 Jul 2018 19:26:36 +0100
REM compiler GCC version 9.2.1 20190827 (Red Hat 9.2.1-1)
REM options -cpp -mtune=generic -march=x86-64 -g -O0 -fpre-include=/usr/include/finclude/math-vector-fortran.h
REM seed 1862520974 -430961249 1010249525 -1836036923 -2003232725 1945834445 1856966265 -1720376260 741564460 -1599938756 70861037 841144980 -1869965213 414287285 -983302796 -1908635062 1068085750 1168783315 1472499557 1509905116 171253222 -1753469914 172825011 1430694851 -1988818238 -1834400428 -518215982 -380704671 -1709560631 906926447 -260656189 -1261744402 1653528273
REM
CELL 1.54180   50.00000   50.00000   50.00000   90.00000   90.00000   90.00000
LATT -1
SFAC C  
C      1  0.5531990000000  0.5437990000000  0.4952840000000 1.0
C      1  0.5871420000000  0.3952420000000  0.4814650000000 1.0
C      1  0.4472850000000  0.5311730000000  0.5880490000000 1.0
C      1  0.5718640000000  0.4448240000000  0.5431140000000 1.0
C      1  0.5476670000000  0.5155570000000  0.4915870000000 1.0
C      1  0.5235360000000  0.5135230000000  0.5372480000000 1.0
C      1  0.4796420000000  0.5573460000000  0.5624870000000 1.0
C      1  0.4337390000000  0.5480660000000  0.5461780000000 1.0
C      1  0.5656120000000  0.4216500000000  0.5547640000000 1.0
C      1  0.5664810000000  0.4918990000000  0.5555360000000 1.0
C      1  0.4236730000000  0.4831320000000  0.4281580000000 1.0
C      1  0.6235950000000  0.4864160000000  0.5036210000000 1.0
C      1  0.5545290000000  0.6001220000000  0.4318780000000 1.0
C      1  0.4985040000000  0.4345990000000  0.4416480000000 1.0
C      1  0.5497100000000  0.5367900000000  0.5783840000000 1.0
C      1  0.4575340000000  0.5666460000000  0.4910520000000 1.0
C      1  0.5684300000000  0.5305540000000  0.4150590000000 1.0
C      1  0.4542750000000  0.5060040000000  0.5980280000000 1.0
C      1  0.4615930000000  0.4578490000000  0.5930210000000 1.0
C      1  0.4040000000000  0.5002970000000  0.4392050000000 1.0
C      1  0.4530010000000  0.5483290000000  0.5664820000000 1.0
C      1  0.4770870000000  0.5058200000000  0.6149030000000 1.0
C      1  0.5301730000000  0.5600680000000  0.4894910000000 1.0
C      1  0.4741350000000  0.5108360000000  0.4865000000000 1.0
C      1  0.5995650000000  0.4421860000000  0.4887740000000 1.0
C      1  0.4197960000000  0.4530720000000  0.5549700000000 1.0
C      1  0.4757820000000  0.4055400000000  0.5448780000000 1.0
C      1  0.5303550000000  0.5608940000000  0.4151470000000 1.0
C      1  0.5426490000000  0.5038080000000  0.4649970000000 1.0
C      1  0.4056530000000  0.4630030000000  0.4965460000000 1.0
C      1  0.4877360000000  0.4872250000000  0.5528550000000 1.0
C      1  0.5720920000000  0.3759800000000  0.4697700000000 1.0
C      1  0.5603260000000  0.4302990000000  0.4609830000000 1.0
C      1  0.5188560000000  0.4566520000000  0.5052580000000 1.0
C      1  0.5757930000000  0.4666280000000  0.4335940000000 1.0
C      1  0.4432600000000  0.4490440000000  0.4679530000000 1.0
C      1  0.4871440000000  0.4479660000000  0.6010120000000 1.0
C      1  0.4561840000000  0.5126990000000  0.4454970000000 1.0
C      1  0.5394240000000  0.4734360000000  0.5183150000000 1.0
C      1  0.4213410000000  0.5017760000000  0.5459870000000 1.0
C      1  0.5308360000000  0.5857340000000  0.4291070000000 1.0
C      1  0.4180960000000  0.5308460000000  0.5036110000000 1.0
C      1  0.5021390000000  0.4934490000000  0.6106480000000 1.0
C      1  0.4841680000000  0.5580490000000  0.3981260000000 1.0
C      1  0.4969010000000  0.5229850000000  0.4763740000000 1.0
C      1  0.4715730000000  0.4859260000000  0.5321390000000 1.0
C      1  0.4627850000000  0.4646200000000  0.4544250000000 1.0
C      1  0.4180990000000  0.4651130000000  0.4071020000000 1.0
C      1  0.5160410000000  0.5858680000000  0.5444350000000 1.0
C      1  0.4518560000000  0.5215990000000  0.4724500000000 1.0
C      1  0.5880430000000  0.4851170000000  0.4189930000000 1.0
C      1  0.5063640000000  0.6023320000000  0.4867260000000 1.0
C      1  0.5432440000000  0.5374130000000  0.4250780000000 1.0
C      1  0.4697380000000  0.4936240000000  0.5071220000000 1.0
C      1  0.5000210000000  0.5481160000000  0.5803330000000 1.0
C      1  0.5067390000000  0.5950540000000  0.4404980000000 1.0
C      1  0.4221870000000  0.5267410000000  0.5318180000000 1.0
C      1  0.5858120000000  0.5106640000000  0.4117830000000 1.0
C      1  0.4734340000000  0.4407770000000  0.5089620000000 1.0
C      1  0.5267290000000  0.5869750000000  0.4980820000000 1.0
C      1  0.4457080000000  0.4420090000000  0.5140990000000 1.0
C      1  0.4504710000000  0.4131470000000  0.5506650000000 1.0
C      1  0.5826120000000  0.4229970000000  0.4778530000000 1.0
C      1  0.4367850000000  0.4355690000000  0.5402200000000 1.0
C      1  0.4780650000000  0.5259500000000  0.4332180000000 1.0
C      1  0.6000050000000  0.6239290000000  0.4431610000000 1.0
C      1  0.4060100000000  0.4411650000000  0.4126070000000 1.0
C      1  0.5158420000000  0.4202980000000  0.5644900000000 1.0
C      1  0.5631830000000  0.5152580000000  0.5688800000000 1.0
C      1  0.5425410000000  0.4124280000000  0.5645110000000 1.0
C      1  0.5774460000000  0.6122660000000  0.4372730000000 1.0
C      1  0.4910610000000  0.4566110000000  0.4581810000000 1.0
C      1  0.6130240000000  0.4637560000000  0.4962490000000 1.0
C      1  0.4887540000000  0.5737850000000  0.5399320000000 1.0
C      1  0.4003730000000  0.5132420000000  0.4889490000000 1.0
C      1  0.4719280000000  0.5730130000000  0.5159460000000 1.0
C      1  0.5598970000000  0.4695880000000  0.5385080000000 1.0
C      1  0.4465100000000  0.4811330000000  0.5853610000000 1.0
C      1  0.5069430000000  0.5452230000000  0.4887720000000 1.0
C      1  0.5278660000000  0.5547640000000  0.5805410000000 1.0
C      1  0.4398390000000  0.5425580000000  0.4879840000000 1.0
C      1  0.5163710000000  0.5010550000000  0.5874040000000 1.0
C      1  0.5105360000000  0.5016480000000  0.5597730000000 1.0
C      1  0.4499300000000  0.4859270000000  0.4394690000000 1.0
C      1  0.5138010000000  0.4639520000000  0.4764340000000 1.0
C      1  0.5018740000000  0.4284430000000  0.5874770000000 1.0
C      1  0.4591850000000  0.5691050000000  0.4404200000000 1.0
C      1  0.4248480000000  0.4718630000000  0.3814320000000 1.0
C      1  0.3952350000000  0.4874740000000  0.4992790000000 1.0
C      1  0.5302930000000  0.5200220000000  0.4438120000000 1.0
C      1  0.3970230000000  0.5147010000000  0.4608430000000 1.0
C      1  0.3946870000000  0.4447860000000  0.5622390000000 1.0
C      1  0.5361120000000  0.5019600000000  0.5144180000000 1.0
C      1  0.5001300000000  0.4384540000000  0.5184430000000 1.0
C      1  0.4672610000000  0.5792260000000  0.4659150000000 1.0
C      1  0.4294880000000  0.4490760000000  0.4923680000000 1.0
C      1  0.5022490000000  0.4659530000000  0.6169260000000 1.0
C      1  0.4286610000000  0.4794960000000  0.5624870000000 1.0
C      1  0.5509350000000  0.3829210000000  0.4543240000000 1.0
C      1  0.5004130000000  0.4197510000000  0.5407690000000 1.0
C      1  0.5429000000000  0.4097750000000  0.4503640000000 1.0
C      1  0.5704810000000  0.5567560000000  0.5138170000000 1.0
C      1  0.4912310000000  0.5953000000000  0.4642030000000 1.0
C      1  0.5378640000000  0.4751620000000  0.4636710000000 1.0
C      1  0.5358830000000  0.5900810000000  0.5243540000000 1.0
C      1  0.5108920000000  0.5590390000000  0.3947600000000 1.0
C      1  0.5182180000000  0.4167880000000  0.4394380000000 1.0
C      1  0.5574870000000  0.4574130000000  0.4526710000000 1.0
C      1  0.4710880000000  0.5511400000000  0.4219290000000 1.0
C      1  0.5022380000000  0.5221550000000  0.4481200000000 1.0
C      1  0.5283930000000  0.5811440000000  0.5698690000000 1.0
C      1  0.5622620000000  0.5789940000000  0.5276820000000 1.0
END
