TITL C-627108-131-156 -2.94669261174892e-07 125000 -151.618849024883 0 0 27 (C1) n - 1
REM
REM in /home/nfs/bkarasulu/CARBON/AIRSS/Generating-Clusters/LCBOP/Only-C1/SD-CG/FIRE-CG
REM
REM
REM
REM
REM
REM ./C.cell (11c1c37f851c82e70ff6c80c92926a4b)
REM AIRSS Version 0.9.1 bugfix July 2018 build 013d7b7c2542+ Fri, 06 Jul 2018 19:26:36 +0100
REM compiler GCC version 9.2.1 20190827 (Red Hat 9.2.1-1)
REM options -cpp -mtune=generic -march=x86-64 -g -O0 -fpre-include=/usr/include/finclude/math-vector-fortran.h
REM seed 1650799600 1966326176 -2054692743 40370290 -754605342 -670208962 1263065492 2010625563 -615402313 263286538 1980170662 308312331 1477888329 -843982391 577004853 1200205275 -869842253 795379733 -240491326 -2110753899 -975513177 1607075185 -1684315894 1963436173 1965124628 -2036595907 -156165431 112812149 1045861118 72231372 772523115 812459996 -911810361
REM
CELL 1.54180   50.00000   50.00000   50.00000   90.00000   90.00000   90.00000
LATT -1
SFAC C  
C      1  0.5199780000000  0.4747140000000  0.4399240000000 1.0
C      1  0.5444860000000  0.5284050000000  0.5170230000000 1.0
C      1  0.5114420000000  0.4343720000000  0.5538540000000 1.0
C      1  0.4808950000000  0.5249340000000  0.5496500000000 1.0
C      1  0.4987400000000  0.5434160000000  0.5616620000000 1.0
C      1  0.5038640000000  0.4618300000000  0.4837440000000 1.0
C      1  0.5105320000000  0.4565120000000  0.5378780000000 1.0
C      1  0.4786270000000  0.4686710000000  0.4727560000000 1.0
C      1  0.4221470000000  0.4918630000000  0.4328170000000 1.0
C      1  0.5077120000000  0.4543640000000  0.5101350000000 1.0
C      1  0.5256750000000  0.5418480000000  0.5594160000000 1.0
C      1  0.5397260000000  0.5225860000000  0.5440560000000 1.0
C      1  0.4822830000000  0.5421970000000  0.4780610000000 1.0
C      1  0.4922000000000  0.4919700000000  0.4037590000000 1.0
C      1  0.5121790000000  0.4826070000000  0.5488830000000 1.0
C      1  0.5376410000000  0.4953300000000  0.5524820000000 1.0
C      1  0.4948140000000  0.4821790000000  0.4290830000000 1.0
C      1  0.4887400000000  0.4979320000000  0.5524140000000 1.0
C      1  0.4705090000000  0.5487310000000  0.4543190000000 1.0
C      1  0.5247460000000  0.4652250000000  0.4648740000000 1.0
C      1  0.5588310000000  0.4823150000000  0.5638030000000 1.0
C      1  0.4671280000000  0.5386670000000  0.5014550000000 1.0
C      1  0.4658270000000  0.5327950000000  0.5274230000000 1.0
C      1  0.4724490000000  0.4787260000000  0.4469110000000 1.0
C      1  0.4463660000000  0.4849510000000  0.4395090000000 1.0
C      1  0.5100950000000  0.5388140000000  0.4801620000000 1.0
C      1  0.5323650000000  0.5340460000000  0.4939470000000 1.0
END
