TITL C-627108-131-146 388.5461447553 125000 -1016.44075943024 0 0 168 (C1) n - 1
REM
REM in /home/nfs/bkarasulu/CARBON/AIRSS/Generating-Clusters/LCBOP/Only-C1/SD-CG/FIRE-CG
REM
REM
REM
REM
REM
REM ./C.cell (11c1c37f851c82e70ff6c80c92926a4b)
REM AIRSS Version 0.9.1 bugfix July 2018 build 013d7b7c2542+ Fri, 06 Jul 2018 19:26:36 +0100
REM compiler GCC version 9.2.1 20190827 (Red Hat 9.2.1-1)
REM options -cpp -mtune=generic -march=x86-64 -g -O0 -fpre-include=/usr/include/finclude/math-vector-fortran.h
REM seed 17925681 -2134125946 566109644 209336583 -191281588 1751467628 2092677346 -129505289 1149084888 -1332294090 -81719399 -42896405 470071339 -1097930099 409531003 -2040579091 1336319785 963276212 -1518103532 -649397054 1476522581 1461657800 -903958185 32400907 1338878729 1850828026 -593832011 -1684162224 -1603889868 346134301 -494118343 1933735861 1634990492
REM
CELL 1.54180   50.00000   50.00000   50.00000   90.00000   90.00000   90.00000
LATT -1
SFAC C  
C      1  0.5374290000000  0.4864600000000  0.4008170000000 1.0
C      1  0.4584640000000  0.4245030000000  0.5786510000000 1.0
C      1  0.5112560000000  0.4367690000000  0.5748590000000 1.0
C      1  0.5224740000000  0.4942620000000  0.6196240000000 1.0
C      1  0.5116870000000  0.5336780000000  0.5991840000000 1.0
C      1  0.5178170000000  0.4556360000000  0.4050850000000 1.0
C      1  0.4218680000000  0.4338460000000  0.5307600000000 1.0
C      1  0.6017890000000  0.4894530000000  0.5673910000000 1.0
C      1  0.3629180000000  0.5223620000000  0.4621610000000 1.0
C      1  0.5485950000000  0.4062020000000  0.5561680000000 1.0
C      1  0.4832220000000  0.4242220000000  0.4729010000000 1.0
C      1  0.5351800000000  0.4812830000000  0.4834000000000 1.0
C      1  0.5361010000000  0.5189490000000  0.6089160000000 1.0
C      1  0.4993300000000  0.4020260000000  0.5185550000000 1.0
C      1  0.5350400000000  0.3757290000000  0.4902310000000 1.0
C      1  0.4396540000000  0.4093560000000  0.4659040000000 1.0
C      1  0.4216550000000  0.5012910000000  0.4221020000000 1.0
C      1  0.5925110000000  0.5433460000000  0.4255280000000 1.0
C      1  0.3634370000000  0.4712190000000  0.4551070000000 1.0
C      1  0.4912850000000  0.4013590000000  0.5461620000000 1.0
C      1  0.4980970000000  0.5467140000000  0.4366780000000 1.0
C      1  0.5930940000000  0.4216720000000  0.5358270000000 1.0
C      1  0.4607940000000  0.5335130000000  0.5961490000000 1.0
C      1  0.5156460000000  0.5031390000000  0.4862560000000 1.0
C      1  0.5490560000000  0.4200990000000  0.5055460000000 1.0
C      1  0.5365640000000  0.4659730000000  0.4576000000000 1.0
C      1  0.4692040000000  0.5415660000000  0.4297490000000 1.0
C      1  0.5861620000000  0.4347700000000  0.4803460000000 1.0
C      1  0.5279410000000  0.4383430000000  0.4639860000000 1.0
C      1  0.4311730000000  0.4369760000000  0.3898920000000 1.0
C      1  0.5649600000000  0.4602430000000  0.4448620000000 1.0
C      1  0.4551120000000  0.5721110000000  0.5644050000000 1.0
C      1  0.5855400000000  0.4970930000000  0.4606470000000 1.0
C      1  0.5326800000000  0.5798740000000  0.5769070000000 1.0
C      1  0.5470610000000  0.5493340000000  0.4206060000000 1.0
C      1  0.4299380000000  0.5153330000000  0.4452100000000 1.0
C      1  0.5759020000000  0.5457740000000  0.5733210000000 1.0
C      1  0.5631140000000  0.5150850000000  0.4615860000000 1.0
C      1  0.4287110000000  0.5764190000000  0.5569250000000 1.0
C      1  0.5204160000000  0.5400150000000  0.4167080000000 1.0
C      1  0.4429630000000  0.4059230000000  0.4962570000000 1.0
C      1  0.5077130000000  0.5565810000000  0.4641170000000 1.0
C      1  0.5180100000000  0.5150980000000  0.4005100000000 1.0
C      1  0.5395840000000  0.5095090000000  0.4454890000000 1.0
C      1  0.5253360000000  0.4203750000000  0.4414080000000 1.0
C      1  0.4087840000000  0.4573430000000  0.5314240000000 1.0
C      1  0.5385490000000  0.4970040000000  0.5501840000000 1.0
C      1  0.4877200000000  0.5033210000000  0.4793790000000 1.0
C      1  0.4963030000000  0.4873480000000  0.4272540000000 1.0
C      1  0.4375730000000  0.6199540000000  0.4938590000000 1.0
C      1  0.5656760000000  0.4985750000000  0.4125510000000 1.0
C      1  0.5266310000000  0.4320840000000  0.4927600000000 1.0
C      1  0.4704090000000  0.5116030000000  0.5337090000000 1.0
C      1  0.4375060000000  0.5217350000000  0.5838190000000 1.0
C      1  0.5928950000000  0.5310040000000  0.5264890000000 1.0
C      1  0.4954570000000  0.5013500000000  0.5252850000000 1.0
C      1  0.5368060000000  0.4460730000000  0.5703140000000 1.0
C      1  0.5154440000000  0.5350970000000  0.5704810000000 1.0
C      1  0.4038980000000  0.5838340000000  0.5539000000000 1.0
C      1  0.5604700000000  0.3848810000000  0.4820970000000 1.0
C      1  0.4901940000000  0.5548070000000  0.4884830000000 1.0
C      1  0.5527180000000  0.5835470000000  0.4891950000000 1.0
C      1  0.4928070000000  0.4573700000000  0.5680830000000 1.0
C      1  0.5962720000000  0.4246570000000  0.4336960000000 1.0
C      1  0.4741640000000  0.4510470000000  0.4670680000000 1.0
C      1  0.4426380000000  0.5414170000000  0.4417410000000 1.0
C      1  0.4412210000000  0.5706710000000  0.5004850000000 1.0
C      1  0.5076720000000  0.3859780000000  0.4955280000000 1.0
C      1  0.5355750000000  0.4734450000000  0.5297930000000 1.0
C      1  0.4962650000000  0.3980370000000  0.4715840000000 1.0
C      1  0.5692820000000  0.5292360000000  0.4141880000000 1.0
C      1  0.5520270000000  0.4827430000000  0.5060810000000 1.0
C      1  0.4127860000000  0.5290730000000  0.5133930000000 1.0
C      1  0.5134890000000  0.5063020000000  0.5638300000000 1.0
C      1  0.5669420000000  0.5253230000000  0.5920550000000 1.0
C      1  0.4759270000000  0.4668420000000  0.6108910000000 1.0
C      1  0.4915480000000  0.5066340000000  0.4064780000000 1.0
C      1  0.4190790000000  0.4781330000000  0.4755660000000 1.0
C      1  0.4039770000000  0.5229960000000  0.4867640000000 1.0
C      1  0.5060860000000  0.4748880000000  0.5232910000000 1.0
C      1  0.4312910000000  0.4363290000000  0.4568670000000 1.0
C      1  0.4703600000000  0.5244140000000  0.4067820000000 1.0
C      1  0.4651610000000  0.5875470000000  0.4617180000000 1.0
C      1  0.5748560000000  0.5477470000000  0.5438470000000 1.0
C      1  0.4248160000000  0.5637780000000  0.4473370000000 1.0
C      1  0.5818030000000  0.4454700000000  0.5729950000000 1.0
C      1  0.5813660000000  0.5825160000000  0.4889100000000 1.0
C      1  0.5790970000000  0.5016460000000  0.5806960000000 1.0
C      1  0.4666200000000  0.5718920000000  0.4862120000000 1.0
C      1  0.4882410000000  0.5983280000000  0.5798630000000 1.0
C      1  0.4851100000000  0.5204200000000  0.6064500000000 1.0
C      1  0.4595010000000  0.5277050000000  0.5138190000000 1.0
C      1  0.4428490000000  0.4144230000000  0.5256910000000 1.0
C      1  0.5960350000000  0.5744800000000  0.4673900000000 1.0
C      1  0.4799160000000  0.5821810000000  0.6025300000000 1.0
C      1  0.4204290000000  0.5055940000000  0.4706980000000 1.0
C      1  0.5424460000000  0.6848260000000  0.4639970000000 1.0
C      1  0.5135290000000  0.3957950000000  0.4493310000000 1.0
C      1  0.5369370000000  0.5721100000000  0.5121970000000 1.0
C      1  0.4166120000000  0.4595850000000  0.3911910000000 1.0
C      1  0.4148030000000  0.4830850000000  0.4038590000000 1.0
C      1  0.4910580000000  0.4512430000000  0.5223650000000 1.0
C      1  0.4202380000000  0.5187650000000  0.5629120000000 1.0
C      1  0.5152160000000  0.5170990000000  0.5128740000000 1.0
C      1  0.3561330000000  0.4969550000000  0.4567350000000 1.0
C      1  0.5787600000000  0.4834160000000  0.4349720000000 1.0
C      1  0.4625450000000  0.4099240000000  0.5511300000000 1.0
C      1  0.4851730000000  0.6290940000000  0.4714720000000 1.0
C      1  0.5300820000000  0.5580540000000  0.5598750000000 1.0
C      1  0.5335380000000  0.5443910000000  0.4759860000000 1.0
C      1  0.5828700000000  0.4394780000000  0.4523220000000 1.0
C      1  0.3977430000000  0.5573010000000  0.4540370000000 1.0
C      1  0.4539320000000  0.4298540000000  0.4043440000000 1.0
C      1  0.3831010000000  0.4530910000000  0.4578150000000 1.0
C      1  0.5959570000000  0.4575100000000  0.4987740000000 1.0
C      1  0.5558600000000  0.5284400000000  0.4847500000000 1.0
C      1  0.5035750000000  0.4297460000000  0.5098060000000 1.0
C      1  0.5992590000000  0.4631030000000  0.5554400000000 1.0
C      1  0.4917690000000  0.4876910000000  0.5688110000000 1.0
C      1  0.4890730000000  0.6031350000000  0.4595840000000 1.0
C      1  0.5484480000000  0.5595160000000  0.5365400000000 1.0
C      1  0.5185880000000  0.4271420000000  0.4139170000000 1.0
C      1  0.4042220000000  0.4838190000000  0.5328660000000 1.0
C      1  0.6012310000000  0.5103810000000  0.5090190000000 1.0
C      1  0.5758990000000  0.4191470000000  0.5601810000000 1.0
C      1  0.4744690000000  0.4513950000000  0.5453080000000 1.0
C      1  0.5037450000000  0.6495910000000  0.4688300000000 1.0
C      1  0.4864310000000  0.5857640000000  0.6291050000000 1.0
C      1  0.4640630000000  0.4441690000000  0.5985100000000 1.0
C      1  0.5581440000000  0.5118570000000  0.5080340000000 1.0
C      1  0.4952920000000  0.4089810000000  0.4076800000000 1.0
C      1  0.3854300000000  0.5373250000000  0.4701490000000 1.0
C      1  0.5702200000000  0.4118760000000  0.4886570000000 1.0
C      1  0.4650860000000  0.4511460000000  0.4201320000000 1.0
C      1  0.4535430000000  0.4703430000000  0.5493440000000 1.0
C      1  0.4653790000000  0.4954990000000  0.5563480000000 1.0
C      1  0.4774100000000  0.4772740000000  0.4767250000000 1.0
C      1  0.5581380000000  0.4595270000000  0.5813090000000 1.0
C      1  0.4668550000000  0.4062930000000  0.4158350000000 1.0
C      1  0.4545920000000  0.4502280000000  0.4465630000000 1.0
C      1  0.5071190000000  0.5697570000000  0.5110800000000 1.0
C      1  0.4366830000000  0.5449080000000  0.5127720000000 1.0
C      1  0.4539900000000  0.3973440000000  0.4415180000000 1.0
C      1  0.5231080000000  0.6675070000000  0.4663890000000 1.0
C      1  0.5463260000000  0.4038780000000  0.5283460000000 1.0
C      1  0.5567470000000  0.4865480000000  0.5723930000000 1.0
C      1  0.4763830000000  0.5277030000000  0.4903910000000 1.0
C      1  0.4359620000000  0.5876890000000  0.4581330000000 1.0
C      1  0.4101490000000  0.5114410000000  0.5367930000000 1.0
C      1  0.4627050000000  0.5616150000000  0.5909370000000 1.0
C      1  0.4921060000000  0.4917730000000  0.6153510000000 1.0
C      1  0.5564940000000  0.5710420000000  0.4393900000000 1.0
C      1  0.4918890000000  0.5832420000000  0.5311780000000 1.0
C      1  0.5216500000000  0.4871410000000  0.4412830000000 1.0
C      1  0.4934260000000  0.5875190000000  0.6541460000000 1.0
C      1  0.5970750000000  0.4878510000000  0.4882780000000 1.0
C      1  0.4608230000000  0.6322450000000  0.4864680000000 1.0
C      1  0.5416430000000  0.4486520000000  0.5422270000000 1.0
C      1  0.5132460000000  0.5868050000000  0.4591140000000 1.0
C      1  0.5127890000000  0.4096290000000  0.5647300000000 1.0
C      1  0.5422090000000  0.5864500000000  0.4609960000000 1.0
C      1  0.4103220000000  0.4534530000000  0.4648250000000 1.0
C      1  0.5998050000000  0.4498220000000  0.5280030000000 1.0
C      1  0.4278160000000  0.5937960000000  0.4868640000000 1.0
C      1  0.5397080000000  0.5187530000000  0.5283800000000 1.0
C      1  0.4777320000000  0.5880210000000  0.5547670000000 1.0
C      1  0.5854690000000  0.5654540000000  0.4427990000000 1.0
C      1  0.4905070000000  0.4626950000000  0.4148220000000 1.0
END
