TITL C-627108-131-703 0.172219911440962 125000 -1073.59461819158 0 0 173 (C1) n - 1
REM
REM in /home/nfs/bkarasulu/CARBON/AIRSS/Generating-Clusters/LCBOP/Only-C1/SD-CG/FIRE-CG
REM
REM
REM
REM
REM
REM ./C.cell (11c1c37f851c82e70ff6c80c92926a4b)
REM AIRSS Version 0.9.1 bugfix July 2018 build 013d7b7c2542+ Fri, 06 Jul 2018 19:26:36 +0100
REM compiler GCC version 9.2.1 20190827 (Red Hat 9.2.1-1)
REM options -cpp -mtune=generic -march=x86-64 -g -O0 -fpre-include=/usr/include/finclude/math-vector-fortran.h
REM seed -2064431193 -1500367535 -1124070887 -1991817860 -1408050531 545669171 860355577 1521758113 1440501198 -2063468123 -2112123220 24596534 1757274536 -1120232853 1094291194 1253170476 430274503 1463486574 -1094724913 -1983751884 -1848739019 -1102124841 1519923814 1872878683 467759065 1798270128 -569994919 673548249 1064232899 -1562694725 357614843 -485529476 -878121945
REM
CELL 1.54180   50.00000   50.00000   50.00000   90.00000   90.00000   90.00000
LATT -1
SFAC C  
C      1  0.4367290000000  0.6112190000000  0.5019550000000 1.0
C      1  0.4523330000000  0.5154480000000  0.5623410000000 1.0
C      1  0.4704350000000  0.5052190000000  0.5817110000000 1.0
C      1  0.5425210000000  0.4809620000000  0.5514040000000 1.0
C      1  0.4252280000000  0.5190380000000  0.4242750000000 1.0
C      1  0.5060420000000  0.5904460000000  0.5236730000000 1.0
C      1  0.5505310000000  0.4492600000000  0.4295630000000 1.0
C      1  0.4926940000000  0.6420420000000  0.5599490000000 1.0
C      1  0.4512590000000  0.6171120000000  0.5728130000000 1.0
C      1  0.4439000000000  0.4687480000000  0.6028410000000 1.0
C      1  0.5869630000000  0.4796030000000  0.4763220000000 1.0
C      1  0.5063270000000  0.4410140000000  0.4914410000000 1.0
C      1  0.4488780000000  0.5211240000000  0.4081660000000 1.0
C      1  0.5006550000000  0.3958280000000  0.5005010000000 1.0
C      1  0.4949540000000  0.3789270000000  0.6167870000000 1.0
C      1  0.5703260000000  0.4225510000000  0.5409260000000 1.0
C      1  0.3992200000000  0.4503910000000  0.3263580000000 1.0
C      1  0.4290530000000  0.5808220000000  0.5395000000000 1.0
C      1  0.5852680000000  0.4805900000000  0.5741910000000 1.0
C      1  0.4055000000000  0.4691190000000  0.3959560000000 1.0
C      1  0.4920190000000  0.4170430000000  0.4798890000000 1.0
C      1  0.5066150000000  0.5309200000000  0.5289710000000 1.0
C      1  0.5328520000000  0.4561470000000  0.5421430000000 1.0
C      1  0.4438820000000  0.4552360000000  0.5546020000000 1.0
C      1  0.5551770000000  0.5013040000000  0.5064350000000 1.0
C      1  0.4074460000000  0.4626110000000  0.3478580000000 1.0
C      1  0.5522690000000  0.4342370000000  0.4766300000000 1.0
C      1  0.5505390000000  0.5608000000000  0.5701300000000 1.0
C      1  0.5165220000000  0.4070330000000  0.4359730000000 1.0
C      1  0.5917720000000  0.5527500000000  0.4315780000000 1.0
C      1  0.4172480000000  0.4530360000000  0.5165980000000 1.0
C      1  0.4453160000000  0.4137040000000  0.5079200000000 1.0
C      1  0.5228870000000  0.5652640000000  0.5659970000000 1.0
C      1  0.5048550000000  0.5918170000000  0.4699740000000 1.0
C      1  0.5620140000000  0.5345330000000  0.5747400000000 1.0
C      1  0.5218130000000  0.5605070000000  0.4065600000000 1.0
C      1  0.4984030000000  0.6364070000000  0.5329060000000 1.0
C      1  0.4724790000000  0.6331560000000  0.5752460000000 1.0
C      1  0.6097720000000  0.4556600000000  0.5117330000000 1.0
C      1  0.5549880000000  0.6080350000000  0.4967670000000 1.0
C      1  0.4320570000000  0.5000560000000  0.5208020000000 1.0
C      1  0.4436720000000  0.4318390000000  0.5710150000000 1.0
C      1  0.4361170000000  0.4955110000000  0.3691640000000 1.0
C      1  0.4597320000000  0.4100320000000  0.5615360000000 1.0
C      1  0.4396520000000  0.5776510000000  0.4437260000000 1.0
C      1  0.4893270000000  0.6133500000000  0.4607960000000 1.0
C      1  0.4203900000000  0.4407590000000  0.4741090000000 1.0
C      1  0.4021640000000  0.5294550000000  0.4686970000000 1.0
C      1  0.4811580000000  0.5527990000000  0.4308700000000 1.0
C      1  0.5618190000000  0.6045230000000  0.5448630000000 1.0
C      1  0.3697600000000  0.4803150000000  0.5617620000000 1.0
C      1  0.5063300000000  0.5752540000000  0.5472730000000 1.0
C      1  0.6072120000000  0.4444610000000  0.4251800000000 1.0
C      1  0.5166730000000  0.4787170000000  0.6092420000000 1.0
C      1  0.4784400000000  0.5032420000000  0.4413960000000 1.0
C      1  0.4623130000000  0.4222060000000  0.4842730000000 1.0
C      1  0.4099520000000  0.5167680000000  0.5182790000000 1.0
C      1  0.3906030000000  0.4622380000000  0.5212670000000 1.0
C      1  0.6079770000000  0.4206460000000  0.5728520000000 1.0
C      1  0.4139660000000  0.5747060000000  0.4509040000000 1.0
C      1  0.3971130000000  0.5162560000000  0.4931880000000 1.0
C      1  0.5657100000000  0.5833780000000  0.5613390000000 1.0
C      1  0.4759340000000  0.4853140000000  0.5289470000000 1.0
C      1  0.6062380000000  0.5255020000000  0.4871990000000 1.0
C      1  0.5950430000000  0.4331920000000  0.5515510000000 1.0
C      1  0.5997400000000  0.5729920000000  0.5098400000000 1.0
C      1  0.4243260000000  0.5537090000000  0.5484710000000 1.0
C      1  0.5179240000000  0.6165390000000  0.5268050000000 1.0
C      1  0.5407110000000  0.3796760000000  0.5292480000000 1.0
C      1  0.5880290000000  0.4583510000000  0.4945580000000 1.0
C      1  0.5034840000000  0.4685030000000  0.4906520000000 1.0
C      1  0.4804580000000  0.5188610000000  0.3720250000000 1.0
C      1  0.3998710000000  0.4626730000000  0.4701810000000 1.0
C      1  0.5246290000000  0.5339650000000  0.3985330000000 1.0
C      1  0.4022440000000  0.4819060000000  0.4479860000000 1.0
C      1  0.4762040000000  0.6391110000000  0.5152820000000 1.0
C      1  0.5451620000000  0.4052680000000  0.4386010000000 1.0
C      1  0.5803710000000  0.5675780000000  0.4897680000000 1.0
C      1  0.6012140000000  0.5109810000000  0.5402110000000 1.0
C      1  0.5116900000000  0.3725490000000  0.5723190000000 1.0
C      1  0.5328660000000  0.4892030000000  0.4081570000000 1.0
C      1  0.5170460000000  0.4548870000000  0.3659690000000 1.0
C      1  0.5074530000000  0.5257670000000  0.6039380000000 1.0
C      1  0.4609480000000  0.5607220000000  0.4497080000000 1.0
C      1  0.5359210000000  0.5156580000000  0.4182000000000 1.0
C      1  0.6074590000000  0.4866630000000  0.4576530000000 1.0
C      1  0.4963530000000  0.3871870000000  0.5907010000000 1.0
C      1  0.4030610000000  0.5719030000000  0.4982600000000 1.0
C      1  0.5212020000000  0.5093090000000  0.4648750000000 1.0
C      1  0.5213150000000  0.5785720000000  0.4510520000000 1.0
C      1  0.4819940000000  0.4103720000000  0.5825670000000 1.0
C      1  0.5615080000000  0.5863540000000  0.4798630000000 1.0
C      1  0.4687930000000  0.4828390000000  0.5991670000000 1.0
C      1  0.5272870000000  0.3680660000000  0.5511910000000 1.0
C      1  0.5638730000000  0.5226770000000  0.4650240000000 1.0
C      1  0.6144980000000  0.5145390000000  0.4607610000000 1.0
C      1  0.5049230000000  0.5342270000000  0.5029300000000 1.0
C      1  0.4891840000000  0.4768240000000  0.4317900000000 1.0
C      1  0.5059270000000  0.5250470000000  0.3787410000000 1.0
C      1  0.4793970000000  0.4784170000000  0.5011060000000 1.0
C      1  0.4494950000000  0.4466760000000  0.4729040000000 1.0
C      1  0.5068980000000  0.5659170000000  0.4296330000000 1.0
C      1  0.4506030000000  0.4408720000000  0.5982040000000 1.0
C      1  0.6151540000000  0.5541960000000  0.5221580000000 1.0
C      1  0.5463630000000  0.6146510000000  0.5231190000000 1.0
C      1  0.4000950000000  0.4705100000000  0.4219900000000 1.0
C      1  0.3919320000000  0.4712740000000  0.5485480000000 1.0
C      1  0.5669490000000  0.4988600000000  0.4814160000000 1.0
C      1  0.4041680000000  0.5399880000000  0.5334850000000 1.0
C      1  0.5612250000000  0.4236990000000  0.4220650000000 1.0
C      1  0.5578580000000  0.4867080000000  0.5746910000000 1.0
C      1  0.5203570000000  0.4831320000000  0.4742410000000 1.0
C      1  0.4039470000000  0.5588820000000  0.4719160000000 1.0
C      1  0.6113300000000  0.5258930000000  0.5165630000000 1.0
C      1  0.4540260000000  0.5131930000000  0.3812130000000 1.0
C      1  0.4966750000000  0.4225780000000  0.4496990000000 1.0
C      1  0.4994170000000  0.4622850000000  0.3853470000000 1.0
C      1  0.4731530000000  0.5252850000000  0.4226280000000 1.0
C      1  0.5532190000000  0.4077040000000  0.4662590000000 1.0
C      1  0.5849080000000  0.5280830000000  0.5579160000000 1.0
C      1  0.4207850000000  0.4778450000000  0.5891710000000 1.0
C      1  0.5891710000000  0.4254750000000  0.4180950000000 1.0
C      1  0.4405810000000  0.5410170000000  0.5679510000000 1.0
C      1  0.4686940000000  0.6276750000000  0.4699430000000 1.0
C      1  0.4093950000000  0.5109420000000  0.4471170000000 1.0
C      1  0.5502860000000  0.5793290000000  0.4540370000000 1.0
C      1  0.4332860000000  0.4751390000000  0.5074360000000 1.0
C      1  0.4367430000000  0.6001860000000  0.5582950000000 1.0
C      1  0.3879190000000  0.5580440000000  0.5182490000000 1.0
C      1  0.4549870000000  0.5040940000000  0.5364980000000 1.0
C      1  0.4927010000000  0.5453170000000  0.6176780000000 1.0
C      1  0.5534440000000  0.4412330000000  0.5269170000000 1.0
C      1  0.4876130000000  0.4492970000000  0.4413000000000 1.0
C      1  0.5470030000000  0.4533260000000  0.4560230000000 1.0
C      1  0.4950010000000  0.5185230000000  0.5793230000000 1.0
C      1  0.5506550000000  0.4790730000000  0.3882340000000 1.0
C      1  0.5018300000000  0.5835520000000  0.4967890000000 1.0
C      1  0.6135820000000  0.4672790000000  0.4380790000000 1.0
C      1  0.5061500000000  0.4776420000000  0.4084940000000 1.0
C      1  0.5279890000000  0.5060230000000  0.6064560000000 1.0
C      1  0.6065070000000  0.4572040000000  0.5394440000000 1.0
C      1  0.5631610000000  0.3956900000000  0.5359230000000 1.0
C      1  0.5454300000000  0.4994110000000  0.5307290000000 1.0
C      1  0.4548370000000  0.4699500000000  0.4893010000000 1.0
C      1  0.4184180000000  0.4703240000000  0.5613530000000 1.0
C      1  0.5504030000000  0.5107120000000  0.5885760000000 1.0
C      1  0.3816540000000  0.4661810000000  0.4935700000000 1.0
C      1  0.5814760000000  0.5410800000000  0.4793800000000 1.0
C      1  0.5031580000000  0.4202310000000  0.5415570000000 1.0
C      1  0.5698250000000  0.5683840000000  0.4357750000000 1.0
C      1  0.6094510000000  0.5334010000000  0.4393320000000 1.0
C      1  0.4584500000000  0.6282710000000  0.4961470000000 1.0
C      1  0.4578510000000  0.5397380000000  0.4689810000000 1.0
C      1  0.4921220000000  0.4644160000000  0.6033260000000 1.0
C      1  0.4494020000000  0.5537700000000  0.5917900000000 1.0
C      1  0.5633090000000  0.4447460000000  0.5000230000000 1.0
C      1  0.4163000000000  0.4756820000000  0.3708640000000 1.0
C      1  0.4204860000000  0.4286890000000  0.5020850000000 1.0
C      1  0.4781020000000  0.4624830000000  0.5457700000000 1.0
C      1  0.4234120000000  0.5883510000000  0.5116410000000 1.0
C      1  0.4807280000000  0.4359830000000  0.5989300000000 1.0
C      1  0.4686570000000  0.5557000000000  0.6105730000000 1.0
C      1  0.6197130000000  0.4092010000000  0.5931090000000 1.0
C      1  0.4882140000000  0.4026520000000  0.5257120000000 1.0
C      1  0.5052570000000  0.5231970000000  0.5541410000000 1.0
C      1  0.6017270000000  0.4831480000000  0.5508460000000 1.0
C      1  0.5413570000000  0.5193910000000  0.4469120000000 1.0
C      1  0.5013520000000  0.5240540000000  0.4776590000000 1.0
C      1  0.5047640000000  0.4481440000000  0.5453740000000 1.0
C      1  0.5256050000000  0.3827060000000  0.5049580000000 1.0
C      1  0.4759740000000  0.5178350000000  0.4670860000000 1.0
C      1  0.5429590000000  0.4631320000000  0.3675360000000 1.0
C      1  0.4602480000000  0.4050230000000  0.5318290000000 1.0
END
