TITL C-627113-6568-564 0.000270248145615296 125000 -99.8157002698472 0 0 18 (C1) n - 1
REM
REM in /home/nfs/bkarasulu/CARBON/AIRSS/Generating-Clusters/LCBOP/Only-C1/SD-CG/FIRE-CG
REM
REM
REM
REM
REM
REM ./C.cell (11c1c37f851c82e70ff6c80c92926a4b)
REM AIRSS Version 0.9.1 bugfix July 2018 build 013d7b7c2542+ Fri, 06 Jul 2018 19:26:36 +0100
REM compiler GCC version 9.2.1 20190827 (Red Hat 9.2.1-1)
REM options -cpp -mtune=generic -march=x86-64 -g -O0 -fpre-include=/usr/include/finclude/math-vector-fortran.h
REM seed -276178283 -1639187083 252931744 1422225346 178298775 -621096692 -1627923439 -591442626 1750084388 -430266633 743653019 1627600162 -1673586313 1635682168 -253434409 -1475821107 1969176418 -330279040 229063575 203484664 600747145 -1797736425 -1000111707 -1437065177 2139715097 2077775313 -825119519 130884037 -2077403142 2022409993 -2031857182 1600048104 -1228736370
REM
CELL 1.54180   50.00000   50.00000   50.00000   90.00000   90.00000   90.00000
LATT -1
SFAC C  
C      1  0.5220460000000  0.5071430000000  0.4529950000000 1.0
C      1  0.5038770000000  0.4417870000000  0.4278210000000 1.0
C      1  0.4676590000000  0.4763450000000  0.5701720000000 1.0
C      1  0.4789700000000  0.4874160000000  0.5489320000000 1.0
C      1  0.5238130000000  0.4744200000000  0.4892390000000 1.0
C      1  0.4563420000000  0.4652650000000  0.5914260000000 1.0
C      1  0.5125090000000  0.5591430000000  0.4599610000000 1.0
C      1  0.5199910000000  0.5335420000000  0.4513200000000 1.0
C      1  0.4913760000000  0.5483410000000  0.5068840000000 1.0
C      1  0.4909180000000  0.4990220000000  0.5265660000000 1.0
C      1  0.5000710000000  0.5607170000000  0.4850320000000 1.0
C      1  0.5170920000000  0.5813380000000  0.4447770000000 1.0
C      1  0.4880710000000  0.5263740000000  0.5214300000000 1.0
C      1  0.4452110000000  0.4543680000000  0.6123310000000 1.0
C      1  0.5060050000000  0.4835340000000  0.5088040000000 1.0
C      1  0.5111900000000  0.4607540000000  0.4441290000000 1.0
C      1  0.5190780000000  0.4808030000000  0.4619030000000 1.0
C      1  0.5457800000000  0.4596880000000  0.4962780000000 1.0
END
