TITL C-627109-622-349 0.0283811536348304 125000 -1064.28062298461 0 0 173 (C1) n - 1
REM
REM in /home/nfs/bkarasulu/CARBON/AIRSS/Generating-Clusters/LCBOP/Only-C1/SD-CG/FIRE-CG
REM
REM
REM
REM
REM
REM ./C.cell (11c1c37f851c82e70ff6c80c92926a4b)
REM AIRSS Version 0.9.1 bugfix July 2018 build 013d7b7c2542+ Fri, 06 Jul 2018 19:26:36 +0100
REM compiler GCC version 9.2.1 20190827 (Red Hat 9.2.1-1)
REM options -cpp -mtune=generic -march=x86-64 -g -O0 -fpre-include=/usr/include/finclude/math-vector-fortran.h
REM seed 1857432512 -96171430 -1216033989 319627582 549793141 -887470868 1717889968 380942480 1600053383 -141953896 279875607 -1426667587 478552659 -1834181694 1489801250 -452671997 347331160 -1167257330 1985921855 -1339404003 -1748539567 1939476355 357894960 151477076 1166157477 535293108 148809350 101172895 -1369311793 -233493133 -1733984118 326695973 260729422
REM
CELL 1.54180   50.00000   50.00000   50.00000   90.00000   90.00000   90.00000
LATT -1
SFAC C  
C      1  0.5147490000000  0.4737990000000  0.4969060000000 1.0
C      1  0.5875640000000  0.5428200000000  0.4926220000000 1.0
C      1  0.3549820000000  0.5605170000000  0.4822870000000 1.0
C      1  0.4918120000000  0.4526070000000  0.4374270000000 1.0
C      1  0.4295140000000  0.4616490000000  0.4748360000000 1.0
C      1  0.4871340000000  0.4488900000000  0.6360700000000 1.0
C      1  0.5598080000000  0.6713530000000  0.5155670000000 1.0
C      1  0.4575450000000  0.3905020000000  0.4634930000000 1.0
C      1  0.6105890000000  0.5002910000000  0.5240890000000 1.0
C      1  0.3955900000000  0.5305180000000  0.5183110000000 1.0
C      1  0.4925580000000  0.5699300000000  0.5855540000000 1.0
C      1  0.5482800000000  0.4906210000000  0.6302520000000 1.0
C      1  0.5433530000000  0.5223340000000  0.4885430000000 1.0
C      1  0.4249890000000  0.4469360000000  0.4980060000000 1.0
C      1  0.4236680000000  0.4841270000000  0.4596980000000 1.0
C      1  0.5532670000000  0.3750480000000  0.4981810000000 1.0
C      1  0.6015130000000  0.3565910000000  0.4441970000000 1.0
C      1  0.5323630000000  0.4528160000000  0.6016710000000 1.0
C      1  0.6047230000000  0.6331500000000  0.5720080000000 1.0
C      1  0.3742380000000  0.5422130000000  0.4759330000000 1.0
C      1  0.4930900000000  0.4328340000000  0.4862820000000 1.0
C      1  0.5123150000000  0.4638770000000  0.4209970000000 1.0
C      1  0.4891720000000  0.5235930000000  0.4086620000000 1.0
C      1  0.5801030000000  0.5214220000000  0.5874450000000 1.0
C      1  0.5069580000000  0.3733380000000  0.5577640000000 1.0
C      1  0.4347620000000  0.4981070000000  0.5464960000000 1.0
C      1  0.5485250000000  0.4462600000000  0.4737850000000 1.0
C      1  0.5253560000000  0.5656840000000  0.4845400000000 1.0
C      1  0.5694780000000  0.4347500000000  0.5764460000000 1.0
C      1  0.5993610000000  0.5523050000000  0.5150970000000 1.0
C      1  0.5776460000000  0.5886010000000  0.5591240000000 1.0
C      1  0.4348090000000  0.4541950000000  0.5726970000000 1.0
C      1  0.4019570000000  0.4987160000000  0.3722260000000 1.0
C      1  0.5770350000000  0.3705840000000  0.4016070000000 1.0
C      1  0.5711370000000  0.5213940000000  0.4830330000000 1.0
C      1  0.5517160000000  0.5697790000000  0.5252820000000 1.0
C      1  0.4546600000000  0.6028650000000  0.5048860000000 1.0
C      1  0.4867690000000  0.3878100000000  0.4652070000000 1.0
C      1  0.4993570000000  0.4886100000000  0.4788600000000 1.0
C      1  0.5114970000000  0.4859860000000  0.5742940000000 1.0
C      1  0.5824360000000  0.6843780000000  0.5201390000000 1.0
C      1  0.5920120000000  0.6110990000000  0.5664090000000 1.0
C      1  0.5822590000000  0.4791000000000  0.4532040000000 1.0
C      1  0.3903450000000  0.5615890000000  0.5544630000000 1.0
C      1  0.6076320000000  0.4628720000000  0.4493480000000 1.0
C      1  0.5573900000000  0.4724670000000  0.5164860000000 1.0
C      1  0.5086150000000  0.4684710000000  0.5968610000000 1.0
C      1  0.4500730000000  0.4300520000000  0.4290250000000 1.0
C      1  0.4491780000000  0.4057760000000  0.4405190000000 1.0
C      1  0.5341520000000  0.5380580000000  0.6129220000000 1.0
C      1  0.5016140000000  0.5344040000000  0.5162270000000 1.0
C      1  0.5027530000000  0.5166260000000  0.5381810000000 1.0
C      1  0.4867870000000  0.4653670000000  0.6143310000000 1.0
C      1  0.4536580000000  0.5438370000000  0.5200300000000 1.0
C      1  0.4790800000000  0.6110680000000  0.4657410000000 1.0
C      1  0.3824040000000  0.5216910000000  0.4947380000000 1.0
C      1  0.4073420000000  0.5477730000000  0.5378300000000 1.0
C      1  0.5522980000000  0.5161770000000  0.5385920000000 1.0
C      1  0.5565650000000  0.4611610000000  0.4509760000000 1.0
C      1  0.4042360000000  0.4278250000000  0.4955730000000 1.0
C      1  0.4484770000000  0.5622370000000  0.5647800000000 1.0
C      1  0.5029540000000  0.4780890000000  0.3975530000000 1.0
C      1  0.5300130000000  0.3915590000000  0.4054650000000 1.0
C      1  0.3782470000000  0.4404520000000  0.4949970000000 1.0
C      1  0.5416750000000  0.5541900000000  0.5904570000000 1.0
C      1  0.5191190000000  0.5268140000000  0.4467590000000 1.0
C      1  0.4434290000000  0.4675260000000  0.5941340000000 1.0
C      1  0.5525890000000  0.4921490000000  0.4153130000000 1.0
C      1  0.4795620000000  0.6122380000000  0.4946770000000 1.0
C      1  0.5862020000000  0.5616040000000  0.5631730000000 1.0
C      1  0.4720050000000  0.5310290000000  0.4283090000000 1.0
C      1  0.5851410000000  0.4967000000000  0.4782480000000 1.0
C      1  0.3553960000000  0.4254500000000  0.4965190000000 1.0
C      1  0.6279260000000  0.4691300000000  0.4323390000000 1.0
C      1  0.5078840000000  0.4405190000000  0.5330940000000 1.0
C      1  0.4723070000000  0.4886190000000  0.4855920000000 1.0
C      1  0.4640730000000  0.4807570000000  0.6078020000000 1.0
C      1  0.4577930000000  0.4770500000000  0.3762840000000 1.0
C      1  0.4503640000000  0.5890250000000  0.5758950000000 1.0
C      1  0.4473570000000  0.5104940000000  0.5659450000000 1.0
C      1  0.5205690000000  0.5723950000000  0.5788280000000 1.0
C      1  0.6056420000000  0.5167130000000  0.5469820000000 1.0
C      1  0.4987370000000  0.4216150000000  0.5132450000000 1.0
C      1  0.6036170000000  0.4910950000000  0.4995720000000 1.0
C      1  0.4686860000000  0.5089700000000  0.6069720000000 1.0
C      1  0.5452250000000  0.4178060000000  0.4745120000000 1.0
C      1  0.5263960000000  0.5995090000000  0.4495620000000 1.0
C      1  0.5011100000000  0.4656830000000  0.5204570000000 1.0
C      1  0.4642750000000  0.4545710000000  0.4288060000000 1.0
C      1  0.4727580000000  0.5196810000000  0.5789450000000 1.0
C      1  0.4690590000000  0.5248720000000  0.6291300000000 1.0
C      1  0.5989300000000  0.4771560000000  0.5760850000000 1.0
C      1  0.5785970000000  0.4963770000000  0.4265100000000 1.0
C      1  0.5012270000000  0.6170730000000  0.5143010000000 1.0
C      1  0.5464220000000  0.5370930000000  0.3964380000000 1.0
C      1  0.5361600000000  0.3912930000000  0.4815000000000 1.0
C      1  0.5022890000000  0.3935010000000  0.5130810000000 1.0
C      1  0.4965960000000  0.4329040000000  0.4574020000000 1.0
C      1  0.4453510000000  0.5384500000000  0.4726850000000 1.0
C      1  0.4163690000000  0.5505710000000  0.4128100000000 1.0
C      1  0.4367480000000  0.3886490000000  0.4827720000000 1.0
C      1  0.4096860000000  0.5218960000000  0.4136480000000 1.0
C      1  0.4536620000000  0.5231120000000  0.4487730000000 1.0
C      1  0.4413310000000  0.4863040000000  0.3972940000000 1.0
C      1  0.4838850000000  0.4702810000000  0.3784280000000 1.0
C      1  0.5379700000000  0.6566660000000  0.5124660000000 1.0
C      1  0.5093910000000  0.5051420000000  0.4588370000000 1.0
C      1  0.5115320000000  0.3993350000000  0.4228320000000 1.0
C      1  0.4338260000000  0.4565940000000  0.5229510000000 1.0
C      1  0.4351260000000  0.5655540000000  0.4742090000000 1.0
C      1  0.5180510000000  0.6392180000000  0.5118240000000 1.0
C      1  0.4386330000000  0.5692670000000  0.4084960000000 1.0
C      1  0.5512480000000  0.5423280000000  0.5327420000000 1.0
C      1  0.4244230000000  0.5765330000000  0.4507230000000 1.0
C      1  0.5484730000000  0.4650690000000  0.6214730000000 1.0
C      1  0.4964350000000  0.5077680000000  0.5645580000000 1.0
C      1  0.5375100000000  0.5106910000000  0.3997530000000 1.0
C      1  0.3766410000000  0.4692460000000  0.4929140000000 1.0
C      1  0.4384140000000  0.5835880000000  0.4955640000000 1.0
C      1  0.5945720000000  0.3579080000000  0.4698390000000 1.0
C      1  0.4279770000000  0.4136480000000  0.5477630000000 1.0
C      1  0.5410420000000  0.5561590000000  0.4146330000000 1.0
C      1  0.5243960000000  0.5734320000000  0.4574510000000 1.0
C      1  0.4990250000000  0.4064100000000  0.4465420000000 1.0
C      1  0.5050980000000  0.5979620000000  0.5362780000000 1.0
C      1  0.6022540000000  0.5034920000000  0.4128330000000 1.0
C      1  0.5208630000000  0.5389920000000  0.4949440000000 1.0
C      1  0.5274620000000  0.5525740000000  0.4389630000000 1.0
C      1  0.3944470000000  0.5162640000000  0.4386320000000 1.0
C      1  0.4749870000000  0.5932630000000  0.5881680000000 1.0
C      1  0.4515570000000  0.4795430000000  0.4230910000000 1.0
C      1  0.5489320000000  0.4882770000000  0.5385310000000 1.0
C      1  0.5166220000000  0.3788210000000  0.5329270000000 1.0
C      1  0.4658430000000  0.6014360000000  0.4437390000000 1.0
C      1  0.5305480000000  0.4753620000000  0.5557280000000 1.0
C      1  0.4026670000000  0.4042120000000  0.5524430000000 1.0
C      1  0.4490160000000  0.3964100000000  0.5448390000000 1.0
C      1  0.5395570000000  0.4694710000000  0.4286350000000 1.0
C      1  0.5414040000000  0.4376680000000  0.5783770000000 1.0
C      1  0.5524460000000  0.5887630000000  0.5462700000000 1.0
C      1  0.6256340000000  0.4897670000000  0.4147780000000 1.0
C      1  0.5901610000000  0.4519050000000  0.5762560000000 1.0
C      1  0.5691700000000  0.5471520000000  0.5816520000000 1.0
C      1  0.4804650000000  0.5529400000000  0.5203510000000 1.0
C      1  0.5411590000000  0.4634370000000  0.4952730000000 1.0
C      1  0.3981070000000  0.4955340000000  0.4580290000000 1.0
C      1  0.5272550000000  0.4457010000000  0.5540320000000 1.0
C      1  0.5532220000000  0.3815820000000  0.3972610000000 1.0
C      1  0.5436710000000  0.5794180000000  0.5005420000000 1.0
C      1  0.5070850000000  0.3847500000000  0.4857140000000 1.0
C      1  0.5772110000000  0.3645070000000  0.4888370000000 1.0
C      1  0.4522130000000  0.4987730000000  0.5019460000000 1.0
C      1  0.4448550000000  0.5860790000000  0.4318970000000 1.0
C      1  0.4325510000000  0.4417670000000  0.5474830000000 1.0
C      1  0.5397120000000  0.5158370000000  0.6269410000000 1.0
C      1  0.4034360000000  0.5616940000000  0.4379230000000 1.0
C      1  0.4439870000000  0.4961410000000  0.4446900000000 1.0
C      1  0.5423280000000  0.3704980000000  0.5239700000000 1.0
C      1  0.5260090000000  0.5916490000000  0.5566630000000 1.0
C      1  0.3835880000000  0.4951470000000  0.4830560000000 1.0
C      1  0.5092490000000  0.5059310000000  0.3985770000000 1.0
C      1  0.3870870000000  0.5419620000000  0.4506050000000 1.0
C      1  0.4872330000000  0.5765870000000  0.5327690000000 1.0
C      1  0.6048970000000  0.6966370000000  0.5251260000000 1.0
C      1  0.4402220000000  0.4842400000000  0.5231590000000 1.0
C      1  0.6004160000000  0.5453300000000  0.5428430000000 1.0
C      1  0.4475680000000  0.5264080000000  0.4985520000000 1.0
C      1  0.4177640000000  0.5023960000000  0.3943890000000 1.0
C      1  0.4731110000000  0.5492460000000  0.5768080000000 1.0
C      1  0.4357580000000  0.5518170000000  0.5410280000000 1.0
C      1  0.5950810000000  0.3612800000000  0.4188040000000 1.0
C      1  0.5966410000000  0.5047380000000  0.5715240000000 1.0
C      1  0.4141520000000  0.4016670000000  0.4905010000000 1.0
END
