TITL C-627108-131-1100 18515.6512008226 125000 -802.580982927506 0 0 134 (C1) n - 1
REM
REM in /home/nfs/bkarasulu/CARBON/AIRSS/Generating-Clusters/LCBOP/Only-C1/SD-CG/FIRE-CG
REM
REM
REM
REM
REM
REM ./C.cell (11c1c37f851c82e70ff6c80c92926a4b)
REM AIRSS Version 0.9.1 bugfix July 2018 build 013d7b7c2542+ Fri, 06 Jul 2018 19:26:36 +0100
REM compiler GCC version 9.2.1 20190827 (Red Hat 9.2.1-1)
REM options -cpp -mtune=generic -march=x86-64 -g -O0 -fpre-include=/usr/include/finclude/math-vector-fortran.h
REM seed 825230520 1729527001 -2030772341 1071179863 2138811840 -639691134 530037051 -1053286436 321022338 165871145 -922630974 1270262776 1738680621 2009036414 2104994303 1180427323 979598722 -1596430408 -643098901 -349985446 -2003633790 1241643816 1503354197 612222410 -57381647 1918527412 1191382507 -2025153233 771575199 1926157177 -1717737013 1484503633 133935344
REM
CELL 1.54180   50.00000   50.00000   50.00000   90.00000   90.00000   90.00000
LATT -1
SFAC C  
C      1  0.4683580000000  0.4132000000000  0.6046860000000 1.0
C      1  0.5003150000000  0.5036990000000  0.4022510000000 1.0
C      1  0.5693860000000  0.5465880000000  0.4262450000000 1.0
C      1  0.4188060000000  0.5678300000000  0.4820360000000 1.0
C      1  0.3772340000000  0.5319240000000  0.4857100000000 1.0
C      1  0.4497240000000  0.4955630000000  0.4730120000000 1.0
C      1  0.5247300000000  0.4852720000000  0.4060320000000 1.0
C      1  0.5244050000000  0.4222160000000  0.5175310000000 1.0
C      1  0.4684530000000  0.3827180000000  0.5389160000000 1.0
C      1  0.5471170000000  0.4930200000000  0.5045660000000 1.0
C      1  0.4443030000000  0.5915310000000  0.5386190000000 1.0
C      1  0.4885500000000  0.5483130000000  0.4772730000000 1.0
C      1  0.5798890000000  0.4117780000000  0.4259090000000 1.0
C      1  0.4297120000000  0.4613830000000  0.5167580000000 1.0
C      1  0.4255790000000  0.4185410000000  0.4606450000000 1.0
C      1  0.4843240000000  0.4599600000000  0.3983030000000 1.0
C      1  0.5089740000000  0.4704960000000  0.5317790000000 1.0
C      1  0.3887280000000  0.5340820000000  0.3797330000000 1.0
C      1  0.4578160000000  0.4732990000000  0.4555140000000 1.0
C      1  0.4531740000000  0.5203410000000  0.5211310000000 1.0
C      1  0.5132290000000  0.5406790000000  0.5390610000000 1.0
C      1  0.4728870000000  0.5702660000000  0.4281830000000 1.0
C      1  0.6062350000000  0.5694820000000  0.5206260000000 1.0
C      1  0.5403980000000  0.5074570000000  0.5588930000000 1.0
C      1  0.6310750000000  0.5245070000000  0.6209760000000 1.0
C      1  0.4094660000000  0.5209460000000  0.3885040000000 1.0
C      1  0.4122610000000  0.4914930000000  0.5703820000000 1.0
C      1  0.4498800000000  0.5563130000000  0.4298070000000 1.0
C      1  0.4614510000000  0.4491100000000  0.4125850000000 1.0
C      1  0.4808240000000  0.5123830000000  0.5592540000000 1.0
C      1  0.4243410000000  0.5726800000000  0.5293390000000 1.0
C      1  0.5770160000000  0.5557120000000  0.4536170000000 1.0
C      1  0.5656500000000  0.5905330000000  0.4942320000000 1.0
C      1  0.4538400000000  0.4983260000000  0.5024900000000 1.0
C      1  0.4316320000000  0.5099000000000  0.5655470000000 1.0
C      1  0.6386890000000  0.5207960000000  0.5943080000000 1.0
C      1  0.4181960000000  0.4426890000000  0.5577050000000 1.0
C      1  0.4457830000000  0.5768680000000  0.4801510000000 1.0
C      1  0.4635150000000  0.3959940000000  0.5148110000000 1.0
C      1  0.5876150000000  0.5072260000000  0.4449520000000 1.0
C      1  0.6008890000000  0.4737830000000  0.4778980000000 1.0
C      1  0.5446240000000  0.5033390000000  0.4189860000000 1.0
C      1  0.5364890000000  0.4242300000000  0.4921520000000 1.0
C      1  0.5151960000000  0.5949340000000  0.5509270000000 1.0
C      1  0.5118160000000  0.4582150000000  0.4085320000000 1.0
C      1  0.6041440000000  0.5316140000000  0.6216550000000 1.0
C      1  0.4922310000000  0.4031660000000  0.5972790000000 1.0
C      1  0.6079280000000  0.4731600000000  0.5267960000000 1.0
C      1  0.4698640000000  0.5984000000000  0.5262940000000 1.0
C      1  0.5642540000000  0.4319380000000  0.4361750000000 1.0
C      1  0.5438960000000  0.6041140000000  0.5090350000000 1.0
C      1  0.4961190000000  0.4126070000000  0.4664440000000 1.0
C      1  0.5900720000000  0.4795230000000  0.4523200000000 1.0
C      1  0.4486120000000  0.4706970000000  0.4281460000000 1.0
C      1  0.5476370000000  0.5228830000000  0.5106950000000 1.0
C      1  0.4510450000000  0.4929780000000  0.4088060000000 1.0
C      1  0.4050860000000  0.4694010000000  0.5537730000000 1.0
C      1  0.4384760000000  0.6045750000000  0.5622720000000 1.0
C      1  0.5235530000000  0.6183240000000  0.4950780000000 1.0
C      1  0.5601060000000  0.5736060000000  0.4709030000000 1.0
C      1  0.5035160000000  0.4731270000000  0.4715680000000 1.0
C      1  0.5318020000000  0.4671450000000  0.4696320000000 1.0
C      1  0.4935810000000  0.3823490000000  0.5517330000000 1.0
C      1  0.5273180000000  0.5191690000000  0.4377820000000 1.0
C      1  0.4965740000000  0.5758200000000  0.4401920000000 1.0
C      1  0.4551960000000  0.4625950000000  0.5795930000000 1.0
C      1  0.4417610000000  0.4160230000000  0.4829400000000 1.0
C      1  0.4394950000000  0.5173960000000  0.4580910000000 1.0
C      1  0.5608410000000  0.6117640000000  0.5544050000000 1.0
C      1  0.5007550000000  0.5570080000000  0.5811710000000 1.0
C      1  0.5076000000000  0.5649120000000  0.4638520000000 1.0
C      1  0.5701670000000  0.5164910000000  0.4226880000000 1.0
C      1  0.4586450000000  0.5456910000000  0.5123570000000 1.0
C      1  0.4542010000000  0.5155040000000  0.5494650000000 1.0
C      1  0.5631490000000  0.4672280000000  0.5062980000000 1.0
C      1  0.4740380000000  0.6186150000000  0.5067340000000 1.0
C      1  0.5901020000000  0.5858840000000  0.5072980000000 1.0
C      1  0.4637850000000  0.4388810000000  0.5415970000000 1.0
C      1  0.4436280000000  0.4157770000000  0.5910990000000 1.0
C      1  0.5339300000000  0.5622010000000  0.4742400000000 1.0
C      1  0.4388880000000  0.4125750000000  0.5112010000000 1.0
C      1  0.4769040000000  0.4889560000000  0.3961390000000 1.0
C      1  0.5444270000000  0.4929430000000  0.4733870000000 1.0
C      1  0.3841320000000  0.5423000000000  0.4615080000000 1.0
C      1  0.5144590000000  0.4386350000000  0.4292660000000 1.0
C      1  0.5173930000000  0.4877960000000  0.5117460000000 1.0
C      1  0.4304100000000  0.5085730000000  0.3990110000000 1.0
C      1  0.5034250000000  0.5233410000000  0.4228940000000 1.0
C      1  0.4823620000000  0.4593210000000  0.4599220000000 1.0
C      1  0.4461800000000  0.3788820000000  0.5562690000000 1.0
C      1  0.5024480000000  0.3908340000000  0.5756880000000 1.0
C      1  0.4339320000000  0.4347560000000  0.5311020000000 1.0
C      1  0.6158490000000  0.5256220000000  0.5764160000000 1.0
C      1  0.4067090000000  0.4773790000000  0.5254680000000 1.0
C      1  0.5944520000000  0.5324670000000  0.5954220000000 1.0
C      1  0.4947120000000  0.5858460000000  0.5328350000000 1.0
C      1  0.4113500000000  0.5573530000000  0.5086870000000 1.0
C      1  0.4660430000000  0.5597430000000  0.4895170000000 1.0
C      1  0.3958920000000  0.5314750000000  0.5077070000000 1.0
C      1  0.5913570000000  0.4697520000000  0.5041830000000 1.0
C      1  0.6145920000000  0.5240360000000  0.5485480000000 1.0
C      1  0.5369590000000  0.4256440000000  0.4426360000000 1.0
C      1  0.5401810000000  0.6033220000000  0.5382730000000 1.0
C      1  0.4758610000000  0.4022460000000  0.4825340000000 1.0
C      1  0.4357330000000  0.4412080000000  0.5809530000000 1.0
C      1  0.4998590000000  0.4947380000000  0.4899180000000 1.0
C      1  0.5031020000000  0.5609130000000  0.5229060000000 1.0
C      1  0.6140480000000  0.5475360000000  0.5333600000000 1.0
C      1  0.4691360000000  0.4664690000000  0.5533580000000 1.0
C      1  0.6188860000000  0.4509520000000  0.5396610000000 1.0
C      1  0.4293490000000  0.4020560000000  0.4390780000000 1.0
C      1  0.4052130000000  0.4368830000000  0.4605070000000 1.0
C      1  0.5392670000000  0.5363970000000  0.4856180000000 1.0
C      1  0.5146600000000  0.4428250000000  0.5319350000000 1.0
C      1  0.4005740000000  0.5046840000000  0.5179470000000 1.0
C      1  0.4926130000000  0.5206480000000  0.4819380000000 1.0
C      1  0.5367980000000  0.5176410000000  0.4640270000000 1.0
C      1  0.6131470000000  0.4990000000000  0.5361790000000 1.0
C      1  0.4355040000000  0.3925540000000  0.5769150000000 1.0
C      1  0.5474970000000  0.4499600000000  0.4880200000000 1.0
C      1  0.5376630000000  0.5267650000000  0.5373840000000 1.0
C      1  0.5213630000000  0.4909640000000  0.5705340000000 1.0
C      1  0.4974370000000  0.6248580000000  0.4945830000000 1.0
C      1  0.4973680000000  0.5356240000000  0.5625290000000 1.0
C      1  0.5258620000000  0.4131760000000  0.4678960000000 1.0
C      1  0.5121230000000  0.5816240000000  0.5762800000000 1.0
C      1  0.5919980000000  0.5313200000000  0.4622280000000 1.0
C      1  0.4537560000000  0.4754600000000  0.5185250000000 1.0
C      1  0.6289010000000  0.4301150000000  0.5516890000000 1.0
C      1  0.4947550000000  0.4836130000000  0.5551120000000 1.0
C      1  0.5763910000000  0.4576960000000  0.4396510000000 1.0
C      1  0.4912760000000  0.4349270000000  0.4480260000000 1.0
C      1  0.4096280000000  0.5541250000000  0.4585960000000 1.0
C      1  0.4314900000000  0.5412890000000  0.4453150000000 1.0
END
