TITL C-627111-6168-502 -1.51294260967895e-07 125000 -999.695004782455 0 0 161 (C1) n - 1
REM
REM in /home/nfs/bkarasulu/CARBON/AIRSS/Generating-Clusters/LCBOP/Only-C1/SD-CG/FIRE-CG
REM
REM
REM
REM
REM
REM ./C.cell (11c1c37f851c82e70ff6c80c92926a4b)
REM AIRSS Version 0.9.1 bugfix July 2018 build 013d7b7c2542+ Fri, 06 Jul 2018 19:26:36 +0100
REM compiler GCC version 9.2.1 20190827 (Red Hat 9.2.1-1)
REM options -cpp -mtune=generic -march=x86-64 -g -O0 -fpre-include=/usr/include/finclude/math-vector-fortran.h
REM seed -331571678 -2035388712 -79884811 -1897036224 -629404378 1153425484 -1813614994 -1735410624 -667915298 1864980860 90460870 -857915556 1485690505 2061132067 949241929 -1919863682 135898461 -1790511888 -619623516 -1370065498 844318192 -308045879 -1857201847 1737124227 569938328 2013786168 -504758926 -927792474 -1418151633 -585289499 182818473 -705278543 -788548669
REM
CELL 1.54180   50.00000   50.00000   50.00000   90.00000   90.00000   90.00000
LATT -1
SFAC C  
C      1  0.4986740000000  0.4249060000000  0.4310860000000 1.0
C      1  0.4391450000000  0.4862940000000  0.4456550000000 1.0
C      1  0.5685820000000  0.5520090000000  0.4934010000000 1.0
C      1  0.4349060000000  0.5782990000000  0.5015280000000 1.0
C      1  0.4242480000000  0.4696020000000  0.3940950000000 1.0
C      1  0.4078230000000  0.5558320000000  0.4657380000000 1.0
C      1  0.5392960000000  0.4925370000000  0.6143260000000 1.0
C      1  0.5857390000000  0.4744110000000  0.5358250000000 1.0
C      1  0.4740110000000  0.5095550000000  0.5276030000000 1.0
C      1  0.4803440000000  0.4462380000000  0.5411860000000 1.0
C      1  0.4931860000000  0.5107000000000  0.4382850000000 1.0
C      1  0.5782680000000  0.5300460000000  0.5343450000000 1.0
C      1  0.5565740000000  0.5828830000000  0.5396480000000 1.0
C      1  0.4135740000000  0.5129450000000  0.4870760000000 1.0
C      1  0.3652760000000  0.4742570000000  0.5097010000000 1.0
C      1  0.5123730000000  0.5462560000000  0.5758420000000 1.0
C      1  0.4846260000000  0.4397490000000  0.6080750000000 1.0
C      1  0.5021470000000  0.4453950000000  0.4966200000000 1.0
C      1  0.5391820000000  0.5111980000000  0.4288210000000 1.0
C      1  0.3598510000000  0.4985450000000  0.5202270000000 1.0
C      1  0.5400230000000  0.4834670000000  0.5182630000000 1.0
C      1  0.5357940000000  0.5780390000000  0.5204830000000 1.0
C      1  0.5138810000000  0.4183010000000  0.4555620000000 1.0
C      1  0.6045170000000  0.4779330000000  0.5143530000000 1.0
C      1  0.5539750000000  0.4849450000000  0.5691300000000 1.0
C      1  0.5663400000000  0.4291370000000  0.4644210000000 1.0
C      1  0.5351610000000  0.4783020000000  0.4650550000000 1.0
C      1  0.5528420000000  0.4280780000000  0.6027120000000 1.0
C      1  0.4512960000000  0.5925710000000  0.5434720000000 1.0
C      1  0.6134400000000  0.5046240000000  0.5096050000000 1.0
C      1  0.4808550000000  0.3971810000000  0.4905380000000 1.0
C      1  0.4080160000000  0.5091960000000  0.4203710000000 1.0
C      1  0.5002480000000  0.4699890000000  0.4077410000000 1.0
C      1  0.5259630000000  0.4567670000000  0.4806680000000 1.0
C      1  0.5977120000000  0.4502930000000  0.5988540000000 1.0
C      1  0.4227260000000  0.4690660000000  0.4620830000000 1.0
C      1  0.4553840000000  0.4742720000000  0.4913980000000 1.0
C      1  0.5663230000000  0.4193670000000  0.5273470000000 1.0
C      1  0.4246870000000  0.5629400000000  0.5240040000000 1.0
C      1  0.4925660000000  0.6040250000000  0.4773480000000 1.0
C      1  0.5484540000000  0.5745340000000  0.5661240000000 1.0
C      1  0.4864500000000  0.5805670000000  0.4132560000000 1.0
C      1  0.4746020000000  0.6104090000000  0.4554230000000 1.0
C      1  0.4700460000000  0.4974850000000  0.3791490000000 1.0
C      1  0.5215520000000  0.5039410000000  0.5055450000000 1.0
C      1  0.5425340000000  0.4253320000000  0.4487620000000 1.0
C      1  0.4108200000000  0.4639680000000  0.5214280000000 1.0
C      1  0.4931610000000  0.4956480000000  0.5115460000000 1.0
C      1  0.4300740000000  0.4695440000000  0.5422530000000 1.0
C      1  0.6138130000000  0.5100990000000  0.4799630000000 1.0
C      1  0.4850730000000  0.3722520000000  0.4773760000000 1.0
C      1  0.5613480000000  0.4660210000000  0.5225240000000 1.0
C      1  0.5949480000000  0.4767970000000  0.5890820000000 1.0
C      1  0.4253680000000  0.6021250000000  0.4618440000000 1.0
C      1  0.5833060000000  0.5865890000000  0.5307530000000 1.0
C      1  0.5388220000000  0.6287830000000  0.4437620000000 1.0
C      1  0.5236200000000  0.5656080000000  0.4766950000000 1.0
C      1  0.4031520000000  0.5226860000000  0.5128190000000 1.0
C      1  0.4920320000000  0.5530560000000  0.4112730000000 1.0
C      1  0.5873020000000  0.4976420000000  0.6078240000000 1.0
C      1  0.3908910000000  0.4662230000000  0.5002730000000 1.0
C      1  0.6075540000000  0.4847370000000  0.4669690000000 1.0
C      1  0.4214710000000  0.5784180000000  0.4764360000000 1.0
C      1  0.4974150000000  0.5018850000000  0.5690460000000 1.0
C      1  0.5797590000000  0.4305790000000  0.6032860000000 1.0
C      1  0.5553140000000  0.5576500000000  0.4232470000000 1.0
C      1  0.4674300000000  0.4242330000000  0.5940440000000 1.0
C      1  0.4266830000000  0.5351120000000  0.5236700000000 1.0
C      1  0.4931860000000  0.4802990000000  0.3815600000000 1.0
C      1  0.5800240000000  0.4434130000000  0.4851780000000 1.0
C      1  0.6043340000000  0.5763420000000  0.5169320000000 1.0
C      1  0.4195850000000  0.4982690000000  0.3945800000000 1.0
C      1  0.4853740000000  0.4836190000000  0.4286020000000 1.0
C      1  0.5335950000000  0.6018470000000  0.4453210000000 1.0
C      1  0.5313950000000  0.5313600000000  0.5126550000000 1.0
C      1  0.5614450000000  0.5483620000000  0.4496690000000 1.0
C      1  0.5082800000000  0.4741620000000  0.3595650000000 1.0
C      1  0.4406910000000  0.4536420000000  0.4780430000000 1.0
C      1  0.3959290000000  0.4707920000000  0.4716060000000 1.0
C      1  0.4485260000000  0.5367650000000  0.5799490000000 1.0
C      1  0.4057540000000  0.5848940000000  0.5657360000000 1.0
C      1  0.4585390000000  0.4727560000000  0.4299660000000 1.0
C      1  0.5426640000000  0.4734650000000  0.5917960000000 1.0
C      1  0.4724980000000  0.4152400000000  0.4297200000000 1.0
C      1  0.4475150000000  0.5109900000000  0.3907740000000 1.0
C      1  0.5456250000000  0.4155700000000  0.5437800000000 1.0
C      1  0.5002210000000  0.6030840000000  0.5296820000000 1.0
C      1  0.3794920000000  0.4870590000000  0.4545150000000 1.0
C      1  0.4520690000000  0.4146210000000  0.4470880000000 1.0
C      1  0.5587400000000  0.4642090000000  0.4241150000000 1.0
C      1  0.4573300000000  0.4067000000000  0.5740760000000 1.0
C      1  0.4888280000000  0.5537790000000  0.5040120000000 1.0
C      1  0.4441140000000  0.4275770000000  0.4691630000000 1.0
C      1  0.4832690000000  0.6030720000000  0.5058170000000 1.0
C      1  0.5194810000000  0.5198230000000  0.4518340000000 1.0
C      1  0.4734330000000  0.5500770000000  0.4821630000000 1.0
C      1  0.4764370000000  0.5348750000000  0.4294160000000 1.0
C      1  0.4668260000000  0.3951910000000  0.5163280000000 1.0
C      1  0.4736620000000  0.3851300000000  0.5647590000000 1.0
C      1  0.5217570000000  0.3504010000000  0.5005950000000 1.0
C      1  0.5404860000000  0.5351320000000  0.4111530000000 1.0
C      1  0.5413370000000  0.4417410000000  0.4238170000000 1.0
C      1  0.5084290000000  0.4535440000000  0.6147670000000 1.0
C      1  0.5025820000000  0.4358610000000  0.5263050000000 1.0
C      1  0.4406950000000  0.5005060000000  0.4940030000000 1.0
C      1  0.5657820000000  0.5303210000000  0.5594090000000 1.0
C      1  0.6043870000000  0.4777120000000  0.4399980000000 1.0
C      1  0.4828250000000  0.3837770000000  0.5378970000000 1.0
C      1  0.5449730000000  0.5843670000000  0.4253090000000 1.0
C      1  0.4487910000000  0.5108370000000  0.5683670000000 1.0
C      1  0.4978460000000  0.4190250000000  0.4806050000000 1.0
C      1  0.3901400000000  0.5113360000000  0.4433370000000 1.0
C      1  0.4453590000000  0.4589400000000  0.4082380000000 1.0
C      1  0.3771880000000  0.5190620000000  0.5220380000000 1.0
C      1  0.4495750000000  0.5181100000000  0.5159800000000 1.0
C      1  0.5156860000000  0.5427880000000  0.3993720000000 1.0
C      1  0.5621180000000  0.5114300000000  0.6139380000000 1.0
C      1  0.4563390000000  0.5952740000000  0.5136130000000 1.0
C      1  0.6123820000000  0.5511120000000  0.5063740000000 1.0
C      1  0.6052320000000  0.5281010000000  0.5240610000000 1.0
C      1  0.4710290000000  0.5820290000000  0.5615530000000 1.0
C      1  0.5338560000000  0.5452010000000  0.4603970000000 1.0
C      1  0.5193360000000  0.5726020000000  0.5681840000000 1.0
C      1  0.5328660000000  0.4475220000000  0.5993360000000 1.0
C      1  0.5242530000000  0.5023980000000  0.4755050000000 1.0
C      1  0.5157330000000  0.4800510000000  0.6271230000000 1.0
C      1  0.4475260000000  0.6169400000000  0.4586600000000 1.0
C      1  0.4985120000000  0.5881210000000  0.5548110000000 1.0
C      1  0.5103330000000  0.3866680000000  0.5337880000000 1.0
C      1  0.5821380000000  0.5476270000000  0.4687000000000 1.0
C      1  0.4288090000000  0.4917540000000  0.5607350000000 1.0
C      1  0.5250730000000  0.3655420000000  0.5226140000000 1.0
C      1  0.5595010000000  0.5353460000000  0.5136780000000 1.0
C      1  0.3876570000000  0.5883040000000  0.5841740000000 1.0
C      1  0.4615580000000  0.5604940000000  0.5778110000000 1.0
C      1  0.4829520000000  0.4716070000000  0.4983720000000 1.0
C      1  0.5189950000000  0.4136870000000  0.5358230000000 1.0
C      1  0.4698220000000  0.5477550000000  0.4558760000000 1.0
C      1  0.5816540000000  0.4788020000000  0.5633960000000 1.0
C      1  0.5668960000000  0.4410990000000  0.5101650000000 1.0
C      1  0.5627060000000  0.5517020000000  0.5785380000000 1.0
C      1  0.5180880000000  0.5575130000000  0.5054500000000 1.0
C      1  0.5612260000000  0.5394010000000  0.6051020000000 1.0
C      1  0.5467050000000  0.4849260000000  0.4387010000000 1.0
C      1  0.4816250000000  0.6011970000000  0.4295420000000 1.0
C      1  0.4523210000000  0.5240020000000  0.4167210000000 1.0
C      1  0.4251780000000  0.5800750000000  0.5468320000000 1.0
C      1  0.5998150000000  0.4648710000000  0.4872950000000 1.0
C      1  0.5034340000000  0.3528490000000  0.4809660000000 1.0
C      1  0.4736810000000  0.5056390000000  0.5554520000000 1.0
C      1  0.5189010000000  0.5194880000000  0.5702340000000 1.0
C      1  0.5450880000000  0.5109260000000  0.5632620000000 1.0
C      1  0.6082480000000  0.5390040000000  0.4783050000000 1.0
C      1  0.4378170000000  0.4116250000000  0.5533650000000 1.0
C      1  0.5867780000000  0.4662950000000  0.4230230000000 1.0
C      1  0.4024950000000  0.5278790000000  0.4647400000000 1.0
C      1  0.5176070000000  0.5918500000000  0.4675960000000 1.0
C      1  0.5130890000000  0.4450540000000  0.4154090000000 1.0
C      1  0.4425340000000  0.4061550000000  0.5267050000000 1.0
C      1  0.4337070000000  0.5119070000000  0.4347270000000 1.0
C      1  0.4551180000000  0.4556510000000  0.5428930000000 1.0
END
