TITL C-627107-135-549 -4.13246128965891e-07 125000 -728.457127131997 0 0 118 (C1) n - 1
REM
REM in /home/nfs/bkarasulu/CARBON/AIRSS/Generating-Clusters/LCBOP/Only-C1/SD-CG/FIRE-CG
REM
REM
REM
REM
REM
REM ./C.cell (11c1c37f851c82e70ff6c80c92926a4b)
REM AIRSS Version 0.9.1 bugfix July 2018 build 013d7b7c2542+ Fri, 06 Jul 2018 19:26:36 +0100
REM compiler GCC version 9.2.1 20190827 (Red Hat 9.2.1-1)
REM options -cpp -mtune=generic -march=x86-64 -g -O0 -fpre-include=/usr/include/finclude/math-vector-fortran.h
REM seed -854277038 -346965065 -2062742086 18403928 1235549209 -1805780973 -1051632322 -1773844624 -1669809628 1158208119 1160531669 -1823888004 -815342545 -1501419127 534694094 295680457 -1278612727 -923675150 1580578976 1397365535 46922315 1145536484 922995848 395057826 864363230 1724076656 -146247032 -856720214 -595963145 1954015093 -1852062393 -1047233452 248631312
REM
CELL 1.54180   50.00000   50.00000   50.00000   90.00000   90.00000   90.00000
LATT -1
SFAC C  
C      1  0.4864920000000  0.5884150000000  0.4793040000000 1.0
C      1  0.5787890000000  0.5294330000000  0.5732890000000 1.0
C      1  0.5534760000000  0.5031580000000  0.5053300000000 1.0
C      1  0.4259790000000  0.5436280000000  0.4385350000000 1.0
C      1  0.5181850000000  0.5049080000000  0.4695280000000 1.0
C      1  0.4276240000000  0.5541670000000  0.5147780000000 1.0
C      1  0.4561050000000  0.4469140000000  0.5638820000000 1.0
C      1  0.4662830000000  0.4210940000000  0.4781870000000 1.0
C      1  0.4237400000000  0.4734680000000  0.4495450000000 1.0
C      1  0.5457980000000  0.6172830000000  0.4844500000000 1.0
C      1  0.5323600000000  0.4212350000000  0.4788030000000 1.0
C      1  0.5186970000000  0.4586770000000  0.4200820000000 1.0
C      1  0.4143250000000  0.5398490000000  0.5560210000000 1.0
C      1  0.4260700000000  0.4789170000000  0.5228860000000 1.0
C      1  0.5801980000000  0.4899270000000  0.5020740000000 1.0
C      1  0.5385780000000  0.6362190000000  0.4680670000000 1.0
C      1  0.5473830000000  0.4920140000000  0.5625710000000 1.0
C      1  0.5079380000000  0.4535240000000  0.5590650000000 1.0
C      1  0.5769930000000  0.4165560000000  0.6054680000000 1.0
C      1  0.4683940000000  0.5038410000000  0.5348520000000 1.0
C      1  0.4760300000000  0.5093710000000  0.4242220000000 1.0
C      1  0.4457380000000  0.4869540000000  0.5409110000000 1.0
C      1  0.6002230000000  0.5320870000000  0.5567930000000 1.0
C      1  0.4865390000000  0.5363800000000  0.4215860000000 1.0
C      1  0.4026350000000  0.5227350000000  0.5353910000000 1.0
C      1  0.4241280000000  0.5640320000000  0.5417350000000 1.0
C      1  0.4454200000000  0.4028510000000  0.5152680000000 1.0
C      1  0.4106740000000  0.4825320000000  0.4263680000000 1.0
C      1  0.5137660000000  0.5526950000000  0.5791240000000 1.0
C      1  0.5373520000000  0.5918560000000  0.5266840000000 1.0
C      1  0.4443040000000  0.5581600000000  0.4243050000000 1.0
C      1  0.4768460000000  0.5635610000000  0.5165520000000 1.0
C      1  0.5178740000000  0.4824250000000  0.5669170000000 1.0
C      1  0.4377260000000  0.4831520000000  0.5900670000000 1.0
C      1  0.5528750000000  0.5967160000000  0.5019440000000 1.0
C      1  0.5797210000000  0.4807080000000  0.4462060000000 1.0
C      1  0.5325500000000  0.4857840000000  0.5104150000000 1.0
C      1  0.4894230000000  0.4534930000000  0.4141300000000 1.0
C      1  0.5352190000000  0.5253670000000  0.4577610000000 1.0
C      1  0.5762610000000  0.5797540000000  0.4963480000000 1.0
C      1  0.4641350000000  0.4851760000000  0.4678540000000 1.0
C      1  0.5969000000000  0.5014520000000  0.4575000000000 1.0
C      1  0.5705640000000  0.4792980000000  0.5481520000000 1.0
C      1  0.4343250000000  0.5321080000000  0.5746460000000 1.0
C      1  0.5281250000000  0.5484970000000  0.4728620000000 1.0
C      1  0.5217470000000  0.5204150000000  0.3882630000000 1.0
C      1  0.4810760000000  0.4441770000000  0.5500520000000 1.0
C      1  0.4453470000000  0.5788700000000  0.5541490000000 1.0
C      1  0.4225490000000  0.4202580000000  0.5163300000000 1.0
C      1  0.4160630000000  0.4944910000000  0.4030440000000 1.0
C      1  0.4718270000000  0.5583490000000  0.4332600000000 1.0
C      1  0.5606310000000  0.5502060000000  0.5298040000000 1.0
C      1  0.5547350000000  0.4361450000000  0.5606930000000 1.0
C      1  0.4403970000000  0.4332730000000  0.4720120000000 1.0
C      1  0.5662320000000  0.4258260000000  0.5836200000000 1.0
C      1  0.5041480000000  0.5288290000000  0.5940090000000 1.0
C      1  0.4719230000000  0.4795050000000  0.4940980000000 1.0
C      1  0.5438950000000  0.3993790000000  0.4664990000000 1.0
C      1  0.4796970000000  0.5035360000000  0.5081830000000 1.0
C      1  0.5970180000000  0.5092400000000  0.4849280000000 1.0
C      1  0.4779020000000  0.5155120000000  0.5588090000000 1.0
C      1  0.4345580000000  0.4285490000000  0.5626890000000 1.0
C      1  0.4188280000000  0.5163070000000  0.4824940000000 1.0
C      1  0.6026220000000  0.5196880000000  0.5314800000000 1.0
C      1  0.5072050000000  0.5381360000000  0.4024250000000 1.0
C      1  0.4127660000000  0.5288940000000  0.5087290000000 1.0
C      1  0.4880510000000  0.4590290000000  0.5052040000000 1.0
C      1  0.5320360000000  0.5389550000000  0.5614230000000 1.0
C      1  0.5008830000000  0.5146260000000  0.4905440000000 1.0
C      1  0.4324260000000  0.5353100000000  0.4648650000000 1.0
C      1  0.4892950000000  0.5893330000000  0.5097590000000 1.0
C      1  0.5146720000000  0.4666620000000  0.5079810000000 1.0
C      1  0.4714100000000  0.4433880000000  0.4360990000000 1.0
C      1  0.5509160000000  0.5168010000000  0.4365040000000 1.0
C      1  0.5583650000000  0.4899290000000  0.4291160000000 1.0
C      1  0.5158720000000  0.3915670000000  0.5288810000000 1.0
C      1  0.4529750000000  0.5567260000000  0.5036210000000 1.0
C      1  0.4179760000000  0.4867000000000  0.4757480000000 1.0
C      1  0.4427880000000  0.4505140000000  0.4479450000000 1.0
C      1  0.5522120000000  0.5203450000000  0.5689130000000 1.0
C      1  0.5642230000000  0.4442490000000  0.5124900000000 1.0
C      1  0.4808300000000  0.4925520000000  0.4466210000000 1.0
C      1  0.4157650000000  0.4249910000000  0.5433390000000 1.0
C      1  0.5547830000000  0.5297650000000  0.5136900000000 1.0
C      1  0.5940010000000  0.5587140000000  0.4975810000000 1.0
C      1  0.5073770000000  0.4851020000000  0.4541580000000 1.0
C      1  0.5166350000000  0.5367900000000  0.5379850000000 1.0
C      1  0.4468490000000  0.4736700000000  0.5662190000000 1.0
C      1  0.4687860000000  0.5656310000000  0.5641470000000 1.0
C      1  0.4991400000000  0.5049980000000  0.5760060000000 1.0
C      1  0.5317420000000  0.4953990000000  0.3892320000000 1.0
C      1  0.4226860000000  0.4396850000000  0.4942850000000 1.0
C      1  0.5094930000000  0.5417870000000  0.4931730000000 1.0
C      1  0.4853410000000  0.4282490000000  0.4583560000000 1.0
C      1  0.5265080000000  0.4167750000000  0.5286270000000 1.0
C      1  0.5186440000000  0.4595890000000  0.4491800000000 1.0
C      1  0.4972650000000  0.5731070000000  0.5629830000000 1.0
C      1  0.5127120000000  0.4357720000000  0.4633830000000 1.0
C      1  0.4793090000000  0.4376160000000  0.5215170000000 1.0
C      1  0.4184370000000  0.4680680000000  0.4982060000000 1.0
C      1  0.4735200000000  0.5676110000000  0.4613500000000 1.0
C      1  0.4688910000000  0.4155700000000  0.5060930000000 1.0
C      1  0.5897780000000  0.4932080000000  0.5311100000000 1.0
C      1  0.6027080000000  0.5316350000000  0.5037270000000 1.0
C      1  0.5763050000000  0.4615070000000  0.4928110000000 1.0
C      1  0.5087420000000  0.5912610000000  0.5335060000000 1.0
C      1  0.5770140000000  0.4588690000000  0.4644070000000 1.0
C      1  0.4772780000000  0.4709870000000  0.3953460000000 1.0
C      1  0.4621960000000  0.5373320000000  0.5694660000000 1.0
C      1  0.5002910000000  0.5477220000000  0.5186680000000 1.0
C      1  0.5413660000000  0.4270290000000  0.5058240000000 1.0
C      1  0.4394920000000  0.5014800000000  0.3919440000000 1.0
C      1  0.4654770000000  0.4960780000000  0.4009310000000 1.0
C      1  0.5390250000000  0.4775460000000  0.4101830000000 1.0
C      1  0.5278600000000  0.4328820000000  0.5526940000000 1.0
C      1  0.5539100000000  0.5737300000000  0.5410190000000 1.0
C      1  0.4538810000000  0.5515650000000  0.4761360000000 1.0
C      1  0.5679390000000  0.4516360000000  0.5409790000000 1.0
END
