TITL C-627106-156-1758 -1.23528914960162e-06 125000 -803.876761665242 0 0 130 (C1) n - 1
REM
REM in /home/nfs/bkarasulu/CARBON/AIRSS/Generating-Clusters/LCBOP/Only-C1/SD-CG/FIRE-CG
REM
REM
REM
REM
REM
REM ./C.cell (11c1c37f851c82e70ff6c80c92926a4b)
REM AIRSS Version 0.9.1 bugfix July 2018 build 013d7b7c2542+ Fri, 06 Jul 2018 19:26:36 +0100
REM compiler GCC version 9.2.1 20190827 (Red Hat 9.2.1-1)
REM options -cpp -mtune=generic -march=x86-64 -g -O0 -fpre-include=/usr/include/finclude/math-vector-fortran.h
REM seed -637354617 -2143107750 -1791670728 2072359056 -2123781975 -1763913302 -1659366706 -638658788 1149361795 1349048169 -1507848678 -1072222450 -1883992464 815846634 1765953231 1049779801 1980900133 1379908980 -520826929 361716495 -1217638686 -1023350592 -1444710147 281140458 608704779 1497152340 -464938607 1031770977 512328707 2130324013 -863401686 -1922391838 -1269627256
REM
CELL 1.54180   50.00000   50.00000   50.00000   90.00000   90.00000   90.00000
LATT -1
SFAC C  
C      1  0.4904450000000  0.4517970000000  0.5799690000000 1.0
C      1  0.5267980000000  0.4941340000000  0.4886630000000 1.0
C      1  0.4964090000000  0.5442540000000  0.6144470000000 1.0
C      1  0.4464190000000  0.5098380000000  0.4836460000000 1.0
C      1  0.4178120000000  0.4446400000000  0.4664590000000 1.0
C      1  0.5825030000000  0.5288890000000  0.5542770000000 1.0
C      1  0.4464730000000  0.5519160000000  0.5697420000000 1.0
C      1  0.4730050000000  0.4436180000000  0.4838430000000 1.0
C      1  0.4898160000000  0.4383540000000  0.5058380000000 1.0
C      1  0.5047970000000  0.3952630000000  0.4756550000000 1.0
C      1  0.5594860000000  0.4171250000000  0.4685840000000 1.0
C      1  0.4866980000000  0.5134370000000  0.4526490000000 1.0
C      1  0.5427400000000  0.4829880000000  0.4221720000000 1.0
C      1  0.3979720000000  0.5123510000000  0.4989500000000 1.0
C      1  0.5521940000000  0.5949440000000  0.5283800000000 1.0
C      1  0.5149910000000  0.4642560000000  0.5934560000000 1.0
C      1  0.4637510000000  0.5918310000000  0.4956710000000 1.0
C      1  0.5269810000000  0.4721390000000  0.5367340000000 1.0
C      1  0.5268150000000  0.5320710000000  0.5159170000000 1.0
C      1  0.5536800000000  0.4200530000000  0.4411590000000 1.0
C      1  0.5922440000000  0.4447830000000  0.4217870000000 1.0
C      1  0.4133060000000  0.5196880000000  0.5234540000000 1.0
C      1  0.5903680000000  0.5716900000000  0.4686730000000 1.0
C      1  0.5707450000000  0.4728950000000  0.5504820000000 1.0
C      1  0.4221940000000  0.5761430000000  0.4656340000000 1.0
C      1  0.5367760000000  0.6016130000000  0.3951410000000 1.0
C      1  0.4728610000000  0.5503270000000  0.5564080000000 1.0
C      1  0.4382150000000  0.5917980000000  0.4827880000000 1.0
C      1  0.4191720000000  0.4984500000000  0.5444160000000 1.0
C      1  0.4489160000000  0.4868940000000  0.5877360000000 1.0
C      1  0.4896830000000  0.5041990000000  0.5794210000000 1.0
C      1  0.4934090000000  0.5926720000000  0.4524120000000 1.0
C      1  0.6135600000000  0.4759660000000  0.5098760000000 1.0
C      1  0.5570440000000  0.5890320000000  0.5564220000000 1.0
C      1  0.6121840000000  0.5000410000000  0.5221360000000 1.0
C      1  0.4388540000000  0.5150800000000  0.4568150000000 1.0
C      1  0.4261430000000  0.4111880000000  0.4987530000000 1.0
C      1  0.5110960000000  0.5804600000000  0.5501870000000 1.0
C      1  0.5188130000000  0.5370350000000  0.5978150000000 1.0
C      1  0.5144970000000  0.5102570000000  0.5897360000000 1.0
C      1  0.4295650000000  0.5026510000000  0.5716770000000 1.0
C      1  0.4979280000000  0.4377110000000  0.5550150000000 1.0
C      1  0.5170450000000  0.5928940000000  0.4097620000000 1.0
C      1  0.4799600000000  0.5614720000000  0.4166190000000 1.0
C      1  0.5244940000000  0.4990940000000  0.4078610000000 1.0
C      1  0.5459000000000  0.5147270000000  0.5277740000000 1.0
C      1  0.4374330000000  0.5676590000000  0.5278490000000 1.0
C      1  0.5079610000000  0.5191460000000  0.4964780000000 1.0
C      1  0.4316870000000  0.5300450000000  0.5792020000000 1.0
C      1  0.4884810000000  0.4617050000000  0.4000660000000 1.0
C      1  0.4014970000000  0.5595320000000  0.4763390000000 1.0
C      1  0.5348430000000  0.5733840000000  0.5687420000000 1.0
C      1  0.6002970000000  0.4535030000000  0.5028930000000 1.0
C      1  0.5570290000000  0.5030750000000  0.4848290000000 1.0
C      1  0.4880600000000  0.4097620000000  0.4567990000000 1.0
C      1  0.5593340000000  0.4992640000000  0.5883620000000 1.0
C      1  0.4524040000000  0.5653260000000  0.4225120000000 1.0
C      1  0.5405950000000  0.5483720000000  0.5825380000000 1.0
C      1  0.5659530000000  0.5807160000000  0.4793080000000 1.0
C      1  0.4852330000000  0.5949350000000  0.4778410000000 1.0
C      1  0.5700870000000  0.4459910000000  0.5392010000000 1.0
C      1  0.5043090000000  0.5307120000000  0.4681410000000 1.0
C      1  0.4275170000000  0.4734620000000  0.5327000000000 1.0
C      1  0.4790190000000  0.4886680000000  0.3995800000000 1.0
C      1  0.4335260000000  0.5407710000000  0.5175160000000 1.0
C      1  0.4685300000000  0.5061320000000  0.5988170000000 1.0
C      1  0.4524950000000  0.4768190000000  0.5195330000000 1.0
C      1  0.4632140000000  0.4615390000000  0.5846040000000 1.0
C      1  0.4881660000000  0.4238890000000  0.5311660000000 1.0
C      1  0.5908560000000  0.5231620000000  0.4566500000000 1.0
C      1  0.4115060000000  0.5198530000000  0.4535360000000 1.0
C      1  0.3733060000000  0.4597490000000  0.4560370000000 1.0
C      1  0.5661660000000  0.5950390000000  0.5039740000000 1.0
C      1  0.5909650000000  0.5178950000000  0.5278600000000 1.0
C      1  0.4738580000000  0.5280940000000  0.6164430000000 1.0
C      1  0.5321720000000  0.4886290000000  0.5935680000000 1.0
C      1  0.4838450000000  0.5029570000000  0.5523170000000 1.0
C      1  0.4546510000000  0.5301590000000  0.5010720000000 1.0
C      1  0.5687870000000  0.5144630000000  0.5094810000000 1.0
C      1  0.5428100000000  0.4014630000000  0.5109820000000 1.0
C      1  0.5159580000000  0.4615880000000  0.3940220000000 1.0
C      1  0.5233510000000  0.5509450000000  0.4616460000000 1.0
C      1  0.4812880000000  0.5280230000000  0.5403200000000 1.0
C      1  0.5781960000000  0.4382750000000  0.5120620000000 1.0
C      1  0.5768320000000  0.4228970000000  0.4248930000000 1.0
C      1  0.4822990000000  0.4394970000000  0.4169590000000 1.0
C      1  0.4633460000000  0.5814810000000  0.5224320000000 1.0
C      1  0.5166230000000  0.4787820000000  0.4642550000000 1.0
C      1  0.4704930000000  0.4702380000000  0.4749340000000 1.0
C      1  0.4302280000000  0.5703580000000  0.5551650000000 1.0
C      1  0.3518300000000  0.4571470000000  0.4415060000000 1.0
C      1  0.5246730000000  0.4469710000000  0.5500100000000 1.0
C      1  0.5624560000000  0.5276980000000  0.5765470000000 1.0
C      1  0.5337840000000  0.4556190000000  0.4148860000000 1.0
C      1  0.5425920000000  0.5690900000000  0.4674350000000 1.0
C      1  0.5257530000000  0.5835980000000  0.5251960000000 1.0
C      1  0.5292860000000  0.4312160000000  0.4302590000000 1.0
C      1  0.4896730000000  0.4854350000000  0.4591390000000 1.0
C      1  0.4326070000000  0.5717220000000  0.4395440000000 1.0
C      1  0.5883060000000  0.4704360000000  0.4286830000000 1.0
C      1  0.3982650000000  0.5312830000000  0.4763460000000 1.0
C      1  0.5217980000000  0.4514780000000  0.4708660000000 1.0
C      1  0.4907990000000  0.5373620000000  0.4053960000000 1.0
C      1  0.4182420000000  0.4235350000000  0.5214250000000 1.0
C      1  0.5221570000000  0.4724550000000  0.5097700000000 1.0
C      1  0.5479380000000  0.4897060000000  0.5421670000000 1.0
C      1  0.3957930000000  0.4847320000000  0.4905240000000 1.0
C      1  0.4167680000000  0.4476010000000  0.5332790000000 1.0
C      1  0.4631740000000  0.4218260000000  0.4681210000000 1.0
C      1  0.5993910000000  0.5481790000000  0.4597620000000 1.0
C      1  0.4809230000000  0.5270800000000  0.5114460000000 1.0
C      1  0.5002900000000  0.4240380000000  0.4340480000000 1.0
C      1  0.5776300000000  0.4802320000000  0.5769580000000 1.0
C      1  0.5665740000000  0.4866490000000  0.4369930000000 1.0
C      1  0.3964960000000  0.4631540000000  0.4715740000000 1.0
C      1  0.5459490000000  0.4043600000000  0.5392430000000 1.0
C      1  0.5158250000000  0.3939560000000  0.5023370000000 1.0
C      1  0.5154490000000  0.4475120000000  0.4982200000000 1.0
C      1  0.5617510000000  0.4184960000000  0.4966310000000 1.0
C      1  0.4985740000000  0.5099520000000  0.4031540000000 1.0
C      1  0.5705680000000  0.5038060000000  0.4594970000000 1.0
C      1  0.4971230000000  0.5824390000000  0.4262750000000 1.0
C      1  0.4963520000000  0.3971380000000  0.5238780000000 1.0
C      1  0.5478500000000  0.4307200000000  0.5490920000000 1.0
C      1  0.4830090000000  0.5754240000000  0.5450710000000 1.0
C      1  0.4615590000000  0.5195990000000  0.4414520000000 1.0
C      1  0.5267480000000  0.5593820000000  0.5120400000000 1.0
C      1  0.4535530000000  0.4843930000000  0.4921550000000 1.0
C      1  0.4343590000000  0.4221280000000  0.4737200000000 1.0
C      1  0.4741690000000  0.4818420000000  0.5367200000000 1.0
END
