TITL C-627113-6568-1815 0.653884388889077 125000 -292.759931851318 0 0 49 (C1) n - 1
REM
REM in /home/nfs/bkarasulu/CARBON/AIRSS/Generating-Clusters/LCBOP/Only-C1/SD-CG/FIRE-CG
REM
REM
REM
REM
REM
REM ./C.cell (11c1c37f851c82e70ff6c80c92926a4b)
REM AIRSS Version 0.9.1 bugfix July 2018 build 013d7b7c2542+ Fri, 06 Jul 2018 19:26:36 +0100
REM compiler GCC version 9.2.1 20190827 (Red Hat 9.2.1-1)
REM options -cpp -mtune=generic -march=x86-64 -g -O0 -fpre-include=/usr/include/finclude/math-vector-fortran.h
REM seed 406283600 1620635101 -1007079977 252550281 -1847256416 1359261733 2125629364 53588232 1844299588 -1719066575 -1499376088 545848650 1037096556 222892251 -2126975319 -216303044 -1309987199 -19078170 933617750 1843465964 861125660 236115569 -837767963 1439943956 2044074342 569655852 1635242815 1042781776 647262190 -1958441408 -256235416 -721939499 -834872483
REM
CELL 1.54180   50.00000   50.00000   50.00000   90.00000   90.00000   90.00000
LATT -1
SFAC C  
C      1  0.4047410000000  0.5603660000000  0.4030790000000 1.0
C      1  0.5084860000000  0.4577040000000  0.5216250000000 1.0
C      1  0.5258550000000  0.5180170000000  0.4275640000000 1.0
C      1  0.4561150000000  0.5103950000000  0.5278850000000 1.0
C      1  0.4187080000000  0.5414520000000  0.4177360000000 1.0
C      1  0.5131350000000  0.5287010000000  0.6216300000000 1.0
C      1  0.4577700000000  0.5283570000000  0.4469820000000 1.0
C      1  0.4967860000000  0.4828080000000  0.5256080000000 1.0
C      1  0.5908610000000  0.4422790000000  0.5818500000000 1.0
C      1  0.4109230000000  0.5144450000000  0.4202570000000 1.0
C      1  0.5584670000000  0.4694150000000  0.6106420000000 1.0
C      1  0.3913830000000  0.5784530000000  0.3890660000000 1.0
C      1  0.4422290000000  0.4218410000000  0.5039480000000 1.0
C      1  0.5570450000000  0.4524890000000  0.4443040000000 1.0
C      1  0.4882790000000  0.5420900000000  0.4829830000000 1.0
C      1  0.5935030000000  0.4554710000000  0.5323540000000 1.0
C      1  0.5123010000000  0.5349280000000  0.4955550000000 1.0
C      1  0.5967210000000  0.4436090000000  0.5559300000000 1.0
C      1  0.4541590000000  0.5357730000000  0.5193590000000 1.0
C      1  0.4492130000000  0.4467240000000  0.5006070000000 1.0
C      1  0.5833370000000  0.4742800000000  0.5165940000000 1.0
C      1  0.5293880000000  0.5073040000000  0.6239690000000 1.0
C      1  0.5401000000000  0.4895290000000  0.6048300000000 1.0
C      1  0.5695020000000  0.4960090000000  0.5102410000000 1.0
C      1  0.5513620000000  0.4371040000000  0.4652190000000 1.0
C      1  0.4459930000000  0.5024390000000  0.4515150000000 1.0
C      1  0.5555260000000  0.5201150000000  0.5127840000000 1.0
C      1  0.4239870000000  0.4940990000000  0.4349600000000 1.0
C      1  0.5430020000000  0.4980260000000  0.4241460000000 1.0
C      1  0.3782390000000  0.5962510000000  0.3752770000000 1.0
C      1  0.5271390000000  0.5199400000000  0.5139670000000 1.0
C      1  0.5691540000000  0.5437950000000  0.5145650000000 1.0
C      1  0.5389060000000  0.4325400000000  0.4882520000000 1.0
C      1  0.5541070000000  0.4745640000000  0.4298040000000 1.0
C      1  0.4424670000000  0.5468290000000  0.4319820000000 1.0
C      1  0.4162210000000  0.4679770000000  0.4332090000000 1.0
C      1  0.4838510000000  0.5349120000000  0.4558640000000 1.0
C      1  0.5163550000000  0.5102660000000  0.5611780000000 1.0
C      1  0.5055550000000  0.5310640000000  0.4386240000000 1.0
C      1  0.5233540000000  0.4400960000000  0.5084300000000 1.0
C      1  0.5031900000000  0.5318310000000  0.5738590000000 1.0
C      1  0.5319120000000  0.4939030000000  0.5781050000000 1.0
C      1  0.4668570000000  0.5492030000000  0.4998630000000 1.0
C      1  0.5134510000000  0.5045260000000  0.5336830000000 1.0
C      1  0.4577720000000  0.4730320000000  0.4970950000000 1.0
C      1  0.5017580000000  0.5394990000000  0.5996750000000 1.0
C      1  0.4544750000000  0.4860330000000  0.4725080000000 1.0
C      1  0.4695850000000  0.4874560000000  0.5186410000000 1.0
C      1  0.5767740000000  0.4520620000000  0.6022000000000 1.0
END
