TITL C-627110-360-2011 5082.92431750442 125000 -1118.43039827981 0 0 182 (C1) n - 1
REM
REM in /home/nfs/bkarasulu/CARBON/AIRSS/Generating-Clusters/LCBOP/Only-C1/SD-CG/FIRE-CG
REM
REM
REM
REM
REM
REM ./C.cell (11c1c37f851c82e70ff6c80c92926a4b)
REM AIRSS Version 0.9.1 bugfix July 2018 build 013d7b7c2542+ Fri, 06 Jul 2018 19:26:36 +0100
REM compiler GCC version 9.2.1 20190827 (Red Hat 9.2.1-1)
REM options -cpp -mtune=generic -march=x86-64 -g -O0 -fpre-include=/usr/include/finclude/math-vector-fortran.h
REM seed 1885481558 -1299341179 -547777886 -2047429068 -242941922 -1973303559 -221650567 763248045 44803367 -2000924038 -1151264108 213776760 148115935 1553195869 -414308772 -1805043120 -574794348 -2114600797 1790527502 251789008 42974931 -1986179507 -1683272007 -147607270 -1488405939 -1203867077 -289170060 -1636089907 1187703402 1916800958 -1717706070 -1792536753 702015927
REM
CELL 1.54180   50.00000   50.00000   50.00000   90.00000   90.00000   90.00000
LATT -1
SFAC C  
C      1  0.5828930000000  0.4689270000000  0.5653450000000 1.0
C      1  0.4257700000000  0.5330900000000  0.4067610000000 1.0
C      1  0.5587650000000  0.4008990000000  0.5507340000000 1.0
C      1  0.4786050000000  0.5613930000000  0.4041020000000 1.0
C      1  0.4501140000000  0.5441610000000  0.6028400000000 1.0
C      1  0.4503080000000  0.4628350000000  0.5620930000000 1.0
C      1  0.5018260000000  0.4162070000000  0.5055060000000 1.0
C      1  0.4700550000000  0.5435060000000  0.5275650000000 1.0
C      1  0.4516300000000  0.5577560000000  0.4843420000000 1.0
C      1  0.4504660000000  0.5096180000000  0.5570700000000 1.0
C      1  0.4418810000000  0.3960050000000  0.5445950000000 1.0
C      1  0.5502140000000  0.3980340000000  0.4745840000000 1.0
C      1  0.3847070000000  0.4896350000000  0.4780430000000 1.0
C      1  0.5211520000000  0.4928890000000  0.5470700000000 1.0
C      1  0.4000590000000  0.5230680000000  0.5203210000000 1.0
C      1  0.6203190000000  0.4710110000000  0.4866090000000 1.0
C      1  0.4940690000000  0.4615800000000  0.5943280000000 1.0
C      1  0.5169560000000  0.5518890000000  0.5224820000000 1.0
C      1  0.4066170000000  0.4792120000000  0.5414140000000 1.0
C      1  0.4726790000000  0.4858690000000  0.5239200000000 1.0
C      1  0.5997090000000  0.5542730000000  0.4955900000000 1.0
C      1  0.5648770000000  0.4176280000000  0.5736760000000 1.0
C      1  0.5280590000000  0.5965580000000  0.6069010000000 1.0
C      1  0.5331830000000  0.5518490000000  0.4493370000000 1.0
C      1  0.5801080000000  0.4997610000000  0.4223980000000 1.0
C      1  0.5392200000000  0.4912510000000  0.4772810000000 1.0
C      1  0.4164960000000  0.4687240000000  0.4465260000000 1.0
C      1  0.3896250000000  0.5452560000000  0.5343100000000 1.0
C      1  0.4850890000000  0.5437260000000  0.3845930000000 1.0
C      1  0.4195770000000  0.5758140000000  0.5141590000000 1.0
C      1  0.4605590000000  0.5605020000000  0.4255080000000 1.0
C      1  0.3975400000000  0.5708380000000  0.5308690000000 1.0
C      1  0.5476810000000  0.4717550000000  0.3981150000000 1.0
C      1  0.5347000000000  0.4680060000000  0.4623910000000 1.0
C      1  0.5445560000000  0.4596540000000  0.5991350000000 1.0
C      1  0.5908160000000  0.5172290000000  0.4030840000000 1.0
C      1  0.5690310000000  0.5672920000000  0.5303440000000 1.0
C      1  0.4979450000000  0.5226310000000  0.5749740000000 1.0
C      1  0.4026110000000  0.3934820000000  0.5164110000000 1.0
C      1  0.4557370000000  0.6499110000000  0.4887450000000 1.0
C      1  0.4803380000000  0.6162020000000  0.5144900000000 1.0
C      1  0.5411000000000  0.5961170000000  0.5604360000000 1.0
C      1  0.5324500000000  0.3889650000000  0.5518560000000 1.0
C      1  0.5240490000000  0.4563490000000  0.3980450000000 1.0
C      1  0.4458800000000  0.5846680000000  0.5232980000000 1.0
C      1  0.5314510000000  0.5989060000000  0.4397790000000 1.0
C      1  0.4349500000000  0.4993130000000  0.6186550000000 1.0
C      1  0.5187810000000  0.4212050000000  0.4350970000000 1.0
C      1  0.5503720000000  0.5416740000000  0.5639780000000 1.0
C      1  0.5290520000000  0.5638030000000  0.4746780000000 1.0
C      1  0.5264020000000  0.5556140000000  0.4203960000000 1.0
C      1  0.4420050000000  0.3800590000000  0.4980610000000 1.0
C      1  0.4784560000000  0.5426680000000  0.6100620000000 1.0
C      1  0.5221880000000  0.4144730000000  0.5924920000000 1.0
C      1  0.5706060000000  0.5052340000000  0.5895070000000 1.0
C      1  0.4158940000000  0.4873860000000  0.4229270000000 1.0
C      1  0.4525280000000  0.5372320000000  0.5503150000000 1.0
C      1  0.4928720000000  0.5199750000000  0.6241410000000 1.0
C      1  0.4287560000000  0.5928690000000  0.4658930000000 1.0
C      1  0.4238360000000  0.5546650000000  0.4924830000000 1.0
C      1  0.5202630000000  0.5286460000000  0.4081980000000 1.0
C      1  0.6048600000000  0.4875960000000  0.5605530000000 1.0
C      1  0.4922260000000  0.5499780000000  0.5848410000000 1.0
C      1  0.4298920000000  0.4125990000000  0.5641140000000 1.0
C      1  0.4021550000000  0.4520160000000  0.5325900000000 1.0
C      1  0.5652700000000  0.5236640000000  0.4962880000000 1.0
C      1  0.5701630000000  0.4743600000000  0.4151020000000 1.0
C      1  0.6031200000000  0.5087390000000  0.5188690000000 1.0
C      1  0.4362810000000  0.4380160000000  0.5705280000000 1.0
C      1  0.5223500000000  0.5899620000000  0.5809000000000 1.0
C      1  0.4357240000000  0.5170210000000  0.4514400000000 1.0
C      1  0.5228270000000  0.4355660000000  0.5116030000000 1.0
C      1  0.5411130000000  0.4527260000000  0.5517690000000 1.0
C      1  0.5248610000000  0.5702280000000  0.5018460000000 1.0
C      1  0.4403780000000  0.5195530000000  0.3864630000000 1.0
C      1  0.6084550000000  0.5375170000000  0.4033110000000 1.0
C      1  0.4501480000000  0.4798940000000  0.6081300000000 1.0
C      1  0.4688350000000  0.4921650000000  0.4984310000000 1.0
C      1  0.4687010000000  0.4042120000000  0.5394130000000 1.0
C      1  0.5729400000000  0.5510930000000  0.5063050000000 1.0
C      1  0.5973730000000  0.5383720000000  0.5647300000000 1.0
C      1  0.4104260000000  0.4407030000000  0.5078000000000 1.0
C      1  0.6198140000000  0.5490200000000  0.4248980000000 1.0
C      1  0.4549600000000  0.4954250000000  0.3903790000000 1.0
C      1  0.3937880000000  0.5353140000000  0.4473820000000 1.0
C      1  0.5100300000000  0.4684020000000  0.4501140000000 1.0
C      1  0.5668000000000  0.4762380000000  0.5895110000000 1.0
C      1  0.5080460000000  0.3878030000000  0.5054730000000 1.0
C      1  0.5958560000000  0.5118710000000  0.5751360000000 1.0
C      1  0.4152460000000  0.4798820000000  0.4752330000000 1.0
C      1  0.4281300000000  0.3817290000000  0.5241260000000 1.0
C      1  0.5201330000000  0.4435120000000  0.5385680000000 1.0
C      1  0.3791910000000  0.5150780000000  0.4633230000000 1.0
C      1  0.4324050000000  0.4554830000000  0.4969520000000 1.0
C      1  0.4543930000000  0.4178310000000  0.4682690000000 1.0
C      1  0.5011600000000  0.5233110000000  0.4916820000000 1.0
C      1  0.5211620000000  0.4923550000000  0.5212890000000 1.0
C      1  0.4274260000000  0.5080190000000  0.4774530000000 1.0
C      1  0.5587140000000  0.5120520000000  0.4683220000000 1.0
C      1  0.5307650000000  0.5956390000000  0.5133930000000 1.0
C      1  0.4094380000000  0.4143740000000  0.4973990000000 1.0
C      1  0.5137230000000  0.5007430000000  0.6135470000000 1.0
C      1  0.5379030000000  0.4188640000000  0.4583010000000 1.0
C      1  0.4321240000000  0.4462040000000  0.4373290000000 1.0
C      1  0.4596420000000  0.5129240000000  0.4382290000000 1.0
C      1  0.4310270000000  0.4870230000000  0.5557040000000 1.0
C      1  0.4764220000000  0.4332070000000  0.4590530000000 1.0
C      1  0.5583840000000  0.5966880000000  0.4516460000000 1.0
C      1  0.4386650000000  0.4771390000000  0.4050730000000 1.0
C      1  0.4131470000000  0.5748960000000  0.4242560000000 1.0
C      1  0.5790950000000  0.4476740000000  0.4590660000000 1.0
C      1  0.4714280000000  0.5588680000000  0.4589830000000 1.0
C      1  0.5196170000000  0.5014940000000  0.4951730000000 1.0
C      1  0.4959880000000  0.4654450000000  0.3980390000000 1.0
C      1  0.5458930000000  0.4306520000000  0.5920910000000 1.0
C      1  0.5811680000000  0.5828730000000  0.4588950000000 1.0
C      1  0.4639990000000  0.6239100000000  0.4915400000000 1.0
C      1  0.3749670000000  0.4868110000000  0.5045960000000 1.0
C      1  0.5292140000000  0.5468570000000  0.5466640000000 1.0
C      1  0.4746810000000  0.4211350000000  0.5162130000000 1.0
C      1  0.5480740000000  0.5216580000000  0.5835530000000 1.0
C      1  0.4846870000000  0.4931020000000  0.3908490000000 1.0
C      1  0.5130180000000  0.3989020000000  0.5705630000000 1.0
C      1  0.6018840000000  0.4525520000000  0.4751950000000 1.0
C      1  0.4340400000000  0.4042390000000  0.4829260000000 1.0
C      1  0.5699350000000  0.3993920000000  0.5243260000000 1.0
C      1  0.5509130000000  0.4447630000000  0.4696230000000 1.0
C      1  0.4895460000000  0.4276810000000  0.4337690000000 1.0
C      1  0.5642380000000  0.3953930000000  0.4979360000000 1.0
C      1  0.4830830000000  0.5066360000000  0.4527640000000 1.0
C      1  0.5797640000000  0.4531220000000  0.4311460000000 1.0
C      1  0.4990500000000  0.5195210000000  0.3905900000000 1.0
C      1  0.6089220000000  0.5153240000000  0.4585900000000 1.0
C      1  0.5226680000000  0.3781550000000  0.5276470000000 1.0
C      1  0.5658650000000  0.4706720000000  0.5155080000000 1.0
C      1  0.5828360000000  0.5064260000000  0.4505400000000 1.0
C      1  0.5056350000000  0.4939990000000  0.4385750000000 1.0
C      1  0.5749770000000  0.5523750000000  0.5546360000000 1.0
C      1  0.4911950000000  0.3701880000000  0.4915910000000 1.0
C      1  0.5412690000000  0.5251700000000  0.4491160000000 1.0
C      1  0.4972150000000  0.5768290000000  0.5748760000000 1.0
C      1  0.4801720000000  0.5890990000000  0.4611910000000 1.0
C      1  0.4499880000000  0.4523120000000  0.4152660000000 1.0
C      1  0.4566220000000  0.6040490000000  0.4716600000000 1.0
C      1  0.4648140000000  0.3656230000000  0.4912100000000 1.0
C      1  0.6163510000000  0.4888720000000  0.5344380000000 1.0
C      1  0.4331560000000  0.5260420000000  0.6161740000000 1.0
C      1  0.6134480000000  0.5434290000000  0.4517650000000 1.0
C      1  0.5660840000000  0.4624480000000  0.5436180000000 1.0
C      1  0.3910000000000  0.4972110000000  0.5258690000000 1.0
C      1  0.6268100000000  0.4704900000000  0.5148380000000 1.0
C      1  0.5285780000000  0.4302760000000  0.4095540000000 1.0
C      1  0.5289150000000  0.5833650000000  0.4154850000000 1.0
C      1  0.5056610000000  0.6005660000000  0.4535250000000 1.0
C      1  0.4568060000000  0.4445940000000  0.5127700000000 1.0
C      1  0.4789300000000  0.5920440000000  0.5587460000000 1.0
C      1  0.6144290000000  0.5331270000000  0.5087110000000 1.0
C      1  0.5088880000000  0.6139520000000  0.5136910000000 1.0
C      1  0.4690960000000  0.4750910000000  0.5848010000000 1.0
C      1  0.4780800000000  0.4460500000000  0.4126150000000 1.0
C      1  0.4140800000000  0.5178960000000  0.4303630000000 1.0
C      1  0.4893330000000  0.5323510000000  0.4669560000000 1.0
C      1  0.5262390000000  0.5106640000000  0.4296730000000 1.0
C      1  0.5483870000000  0.4476180000000  0.5001380000000 1.0
C      1  0.6003230000000  0.5628880000000  0.4684550000000 1.0
C      1  0.5217500000000  0.5141470000000  0.5891900000000 1.0
C      1  0.4870080000000  0.4005690000000  0.5604530000000 1.0
C      1  0.4950040000000  0.5359050000000  0.5162690000000 1.0
C      1  0.4623280000000  0.5643780000000  0.5102470000000 1.0
C      1  0.4862370000000  0.4595200000000  0.4649980000000 1.0
C      1  0.4452070000000  0.5515130000000  0.5748630000000 1.0
C      1  0.5179520000000  0.4720540000000  0.6067470000000 1.0
C      1  0.4637550000000  0.4618120000000  0.5350430000000 1.0
C      1  0.4658210000000  0.6016220000000  0.5351590000000 1.0
C      1  0.5761400000000  0.4999150000000  0.5109270000000 1.0
C      1  0.5507080000000  0.5907230000000  0.5340830000000 1.0
C      1  0.4167250000000  0.5273280000000  0.4970060000000 1.0
C      1  0.4750470000000  0.4846660000000  0.4726480000000 1.0
C      1  0.4062150000000  0.5700640000000  0.4506030000000 1.0
C      1  0.4756390000000  0.5028900000000  0.5717180000000 1.0
C      1  0.4340840000000  0.5589080000000  0.4152970000000 1.0
C      1  0.6242990000000  0.4953600000000  0.4717360000000 1.0
END
