TITL C-627108-131-2134 -1.17348849282705e-06 125000 -985.617806678404 0 0 160 (C1) n - 1
REM
REM in /home/nfs/bkarasulu/CARBON/AIRSS/Generating-Clusters/LCBOP/Only-C1/SD-CG/FIRE-CG
REM
REM
REM
REM
REM
REM ./C.cell (11c1c37f851c82e70ff6c80c92926a4b)
REM AIRSS Version 0.9.1 bugfix July 2018 build 013d7b7c2542+ Fri, 06 Jul 2018 19:26:36 +0100
REM compiler GCC version 9.2.1 20190827 (Red Hat 9.2.1-1)
REM options -cpp -mtune=generic -march=x86-64 -g -O0 -fpre-include=/usr/include/finclude/math-vector-fortran.h
REM seed 1366461248 2036931983 -1096599965 -688347632 -212496893 -458136726 -317251379 -1816191384 220495851 -273637494 -786567543 801980994 -202011201 1535968853 -1032737874 -1175691661 1430302513 906939598 1963933153 -1702815722 -866140486 -1172410638 96478625 599973336 1287512425 1811045591 1901289913 1793066686 98548398 2008616349 957100765 547287094 1683524599
REM
CELL 1.54180   50.00000   50.00000   50.00000   90.00000   90.00000   90.00000
LATT -1
SFAC C  
C      1  0.4214810000000  0.4747750000000  0.4729410000000 1.0
C      1  0.5101540000000  0.5529450000000  0.5396420000000 1.0
C      1  0.4809360000000  0.4421650000000  0.5857260000000 1.0
C      1  0.4329970000000  0.5796450000000  0.4584300000000 1.0
C      1  0.5583950000000  0.4981150000000  0.5290120000000 1.0
C      1  0.5475060000000  0.5977450000000  0.5174290000000 1.0
C      1  0.5216350000000  0.4191600000000  0.4223350000000 1.0
C      1  0.5300570000000  0.5224310000000  0.4939170000000 1.0
C      1  0.5400360000000  0.5942270000000  0.4885040000000 1.0
C      1  0.5660900000000  0.5584170000000  0.5439610000000 1.0
C      1  0.4412450000000  0.5086940000000  0.3988810000000 1.0
C      1  0.4980450000000  0.4105350000000  0.4350290000000 1.0
C      1  0.3874590000000  0.4456310000000  0.4946300000000 1.0
C      1  0.4893790000000  0.5181870000000  0.4029510000000 1.0
C      1  0.5143180000000  0.4215860000000  0.5499660000000 1.0
C      1  0.4765500000000  0.5976110000000  0.5175370000000 1.0
C      1  0.5589190000000  0.5151270000000  0.3988400000000 1.0
C      1  0.5904510000000  0.4689650000000  0.5537980000000 1.0
C      1  0.4610910000000  0.5284290000000  0.4037830000000 1.0
C      1  0.4711640000000  0.5243840000000  0.5594060000000 1.0
C      1  0.4133830000000  0.5682760000000  0.4788410000000 1.0
C      1  0.5856690000000  0.4340350000000  0.5174150000000 1.0
C      1  0.5544770000000  0.4482890000000  0.5779050000000 1.0
C      1  0.5018310000000  0.6111510000000  0.5127810000000 1.0
C      1  0.4640930000000  0.5852290000000  0.4951170000000 1.0
C      1  0.4668930000000  0.4678740000000  0.5861730000000 1.0
C      1  0.4781930000000  0.4240230000000  0.4963880000000 1.0
C      1  0.4591770000000  0.5524890000000  0.4214020000000 1.0
C      1  0.5843040000000  0.4387410000000  0.5467070000000 1.0
C      1  0.5947890000000  0.5353870000000  0.4717960000000 1.0
C      1  0.4693770000000  0.4759470000000  0.4984930000000 1.0
C      1  0.5676060000000  0.5845480000000  0.5326240000000 1.0
C      1  0.5916670000000  0.5180220000000  0.5671130000000 1.0
C      1  0.4269440000000  0.5006970000000  0.5102770000000 1.0
C      1  0.5747390000000  0.4115720000000  0.4725340000000 1.0
C      1  0.5848860000000  0.4817360000000  0.5269050000000 1.0
C      1  0.5505120000000  0.5445150000000  0.6038400000000 1.0
C      1  0.4502440000000  0.5056930000000  0.5246940000000 1.0
C      1  0.5431810000000  0.4718830000000  0.5681990000000 1.0
C      1  0.3913410000000  0.4777600000000  0.6143300000000 1.0
C      1  0.5267590000000  0.5186260000000  0.5685110000000 1.0
C      1  0.3998210000000  0.4957930000000  0.5192740000000 1.0
C      1  0.4262970000000  0.5638470000000  0.5035930000000 1.0
C      1  0.4493630000000  0.4594780000000  0.5104430000000 1.0
C      1  0.5624100000000  0.4269050000000  0.5617430000000 1.0
C      1  0.5422690000000  0.5125800000000  0.4209430000000 1.0
C      1  0.5012270000000  0.6207880000000  0.4626640000000 1.0
C      1  0.5850270000000  0.4764830000000  0.4422400000000 1.0
C      1  0.5694550000000  0.4936830000000  0.4599610000000 1.0
C      1  0.4321630000000  0.4196240000000  0.4568660000000 1.0
C      1  0.4665700000000  0.4264750000000  0.5424920000000 1.0
C      1  0.5190940000000  0.4463390000000  0.4123370000000 1.0
C      1  0.4541820000000  0.5584590000000  0.5003160000000 1.0
C      1  0.4304830000000  0.4536460000000  0.4903280000000 1.0
C      1  0.3978540000000  0.4677750000000  0.4324750000000 1.0
C      1  0.3840110000000  0.4764030000000  0.5023090000000 1.0
C      1  0.4696860000000  0.4468410000000  0.4272820000000 1.0
C      1  0.3803170000000  0.4944150000000  0.4773490000000 1.0
C      1  0.4201930000000  0.5643780000000  0.5306670000000 1.0
C      1  0.5477640000000  0.4817280000000  0.6117650000000 1.0
C      1  0.5728820000000  0.4856670000000  0.6005200000000 1.0
C      1  0.5687360000000  0.4624300000000  0.4231050000000 1.0
C      1  0.5358320000000  0.5679240000000  0.4757780000000 1.0
C      1  0.4674500000000  0.5340900000000  0.4941660000000 1.0
C      1  0.5387890000000  0.4785400000000  0.5181260000000 1.0
C      1  0.4882270000000  0.4266050000000  0.5622160000000 1.0
C      1  0.4743740000000  0.6125140000000  0.4578920000000 1.0
C      1  0.5426880000000  0.5380910000000  0.4666730000000 1.0
C      1  0.5794440000000  0.5235830000000  0.3842610000000 1.0
C      1  0.4322350000000  0.4836780000000  0.4033220000000 1.0
C      1  0.5469890000000  0.4991450000000  0.5579450000000 1.0
C      1  0.4758140000000  0.5340990000000  0.4677270000000 1.0
C      1  0.4875820000000  0.5631810000000  0.5866000000000 1.0
C      1  0.5301180000000  0.4886720000000  0.4296030000000 1.0
C      1  0.6082170000000  0.4630810000000  0.4834460000000 1.0
C      1  0.4876900000000  0.4655110000000  0.4805420000000 1.0
C      1  0.5156530000000  0.4729650000000  0.5758020000000 1.0
C      1  0.4636860000000  0.5146100000000  0.4522110000000 1.0
C      1  0.4200120000000  0.5354080000000  0.4488690000000 1.0
C      1  0.6069530000000  0.4657250000000  0.4565360000000 1.0
C      1  0.5121520000000  0.4861290000000  0.5246590000000 1.0
C      1  0.4912500000000  0.4598040000000  0.4094760000000 1.0
C      1  0.4736270000000  0.3830370000000  0.4803940000000 1.0
C      1  0.4228180000000  0.4624530000000  0.4198390000000 1.0
C      1  0.4126480000000  0.4329720000000  0.4831560000000 1.0
C      1  0.4828070000000  0.4304740000000  0.4472220000000 1.0
C      1  0.4534020000000  0.4523380000000  0.5385820000000 1.0
C      1  0.5029610000000  0.5585100000000  0.5101140000000 1.0
C      1  0.5042180000000  0.3828450000000  0.4779730000000 1.0
C      1  0.5932900000000  0.4609520000000  0.5072160000000 1.0
C      1  0.4956430000000  0.5750520000000  0.5587760000000 1.0
C      1  0.4844540000000  0.4389160000000  0.4738830000000 1.0
C      1  0.5080800000000  0.4904680000000  0.4473860000000 1.0
C      1  0.5295040000000  0.5295390000000  0.5951500000000 1.0
C      1  0.4868880000000  0.5577680000000  0.4317520000000 1.0
C      1  0.6027250000000  0.5365610000000  0.3842730000000 1.0
C      1  0.5330590000000  0.3896200000000  0.4819530000000 1.0
C      1  0.6209160000000  0.5521960000000  0.4280900000000 1.0
C      1  0.5536480000000  0.4753480000000  0.4748420000000 1.0
C      1  0.4811430000000  0.4967890000000  0.4404830000000 1.0
C      1  0.4364780000000  0.5143090000000  0.4581850000000 1.0
C      1  0.3965470000000  0.4788500000000  0.4580210000000 1.0
C      1  0.5158500000000  0.4298110000000  0.5223420000000 1.0
C      1  0.5009220000000  0.5275350000000  0.5551930000000 1.0
C      1  0.5302320000000  0.5343750000000  0.4337260000000 1.0
C      1  0.5072630000000  0.5639060000000  0.4819470000000 1.0
C      1  0.4731610000000  0.5061660000000  0.5055950000000 1.0
C      1  0.3899030000000  0.5241610000000  0.5175330000000 1.0
C      1  0.4994000000000  0.4961900000000  0.6137850000000 1.0
C      1  0.4558880000000  0.4732750000000  0.5596630000000 1.0
C      1  0.6048720000000  0.5379690000000  0.5248000000000 1.0
C      1  0.4082510000000  0.5151920000000  0.5815990000000 1.0
C      1  0.4406290000000  0.4429200000000  0.4317140000000 1.0
C      1  0.4700100000000  0.5836360000000  0.5428740000000 1.0
C      1  0.5053510000000  0.5390860000000  0.4192580000000 1.0
C      1  0.5193170000000  0.4790600000000  0.6042060000000 1.0
C      1  0.5702720000000  0.5223370000000  0.4648140000000 1.0
C      1  0.4453240000000  0.5682490000000  0.5474130000000 1.0
C      1  0.5139250000000  0.6373620000000  0.4449980000000 1.0
C      1  0.4555950000000  0.5949420000000  0.4693700000000 1.0
C      1  0.4192480000000  0.5313770000000  0.5618630000000 1.0
C      1  0.4914140000000  0.4882880000000  0.3991490000000 1.0
C      1  0.5403660000000  0.4643340000000  0.4195770000000 1.0
C      1  0.5471710000000  0.5241600000000  0.5173200000000 1.0
C      1  0.5461560000000  0.3891530000000  0.5347290000000 1.0
C      1  0.4825570000000  0.5403150000000  0.6038130000000 1.0
C      1  0.6042190000000  0.5356280000000  0.4982390000000 1.0
C      1  0.4683960000000  0.4100170000000  0.5194070000000 1.0
C      1  0.6104290000000  0.5475230000000  0.4520370000000 1.0
C      1  0.5062740000000  0.5245310000000  0.6109540000000 1.0
C      1  0.5443550000000  0.4073130000000  0.4338840000000 1.0
C      1  0.5026560000000  0.4783850000000  0.5504440000000 1.0
C      1  0.4039240000000  0.5412450000000  0.5383420000000 1.0
C      1  0.4657450000000  0.3836730000000  0.5087970000000 1.0
C      1  0.4517350000000  0.3966660000000  0.4634910000000 1.0
C      1  0.5509560000000  0.4006020000000  0.4603740000000 1.0
C      1  0.5418510000000  0.5457920000000  0.5357270000000 1.0
C      1  0.5289530000000  0.4380430000000  0.5003690000000 1.0
C      1  0.5147070000000  0.6115410000000  0.4860750000000 1.0
C      1  0.5052470000000  0.5047820000000  0.5004150000000 1.0
C      1  0.4584560000000  0.4999380000000  0.5506530000000 1.0
C      1  0.4359560000000  0.5583300000000  0.4378240000000 1.0
C      1  0.5067270000000  0.4847360000000  0.4746160000000 1.0
C      1  0.4300360000000  0.4998330000000  0.4814870000000 1.0
C      1  0.6191360000000  0.5482370000000  0.4017960000000 1.0
C      1  0.5425220000000  0.4619680000000  0.4963120000000 1.0
C      1  0.4905290000000  0.5565230000000  0.4602250000000 1.0
C      1  0.5737940000000  0.4128580000000  0.5014550000000 1.0
C      1  0.5408160000000  0.4093030000000  0.5541730000000 1.0
C      1  0.4613160000000  0.5191130000000  0.6048920000000 1.0
C      1  0.4718610000000  0.4911450000000  0.6043830000000 1.0
C      1  0.5887330000000  0.5399660000000  0.5481180000000 1.0
C      1  0.5236660000000  0.6072160000000  0.5319170000000 1.0
C      1  0.3850710000000  0.5248070000000  0.4862210000000 1.0
C      1  0.4472810000000  0.5426740000000  0.5616950000000 1.0
C      1  0.5506750000000  0.3941310000000  0.5072270000000 1.0
C      1  0.3988470000000  0.4968190000000  0.5982070000000 1.0
C      1  0.4000980000000  0.5439290000000  0.4689790000000 1.0
C      1  0.5156230000000  0.5977730000000  0.5574860000000 1.0
C      1  0.5885450000000  0.4898100000000  0.5759200000000 1.0
END
