TITL C-627113-6568-1776 1.86828382648165e-05 125000 -688.74229397425 0 0 113 (C1) n - 1
REM
REM in /home/nfs/bkarasulu/CARBON/AIRSS/Generating-Clusters/LCBOP/Only-C1/SD-CG/FIRE-CG
REM
REM
REM
REM
REM
REM ./C.cell (11c1c37f851c82e70ff6c80c92926a4b)
REM AIRSS Version 0.9.1 bugfix July 2018 build 013d7b7c2542+ Fri, 06 Jul 2018 19:26:36 +0100
REM compiler GCC version 9.2.1 20190827 (Red Hat 9.2.1-1)
REM options -cpp -mtune=generic -march=x86-64 -g -O0 -fpre-include=/usr/include/finclude/math-vector-fortran.h
REM seed -1022160222 -744045203 1259958869 -1331981515 -279886747 -306682459 -591083257 684613581 1861825693 530350188 -326689926 -1879488335 -1223745665 482396496 -1755219104 1345971609 -2128214027 1386459065 1247900965 196863589 -653570588 -311343013 -1178166444 349777691 -1137536539 65472547 912533535 -478791651 -966513548 -656356555 1763327710 146568685 -343121839
REM
CELL 1.54180   50.00000   50.00000   50.00000   90.00000   90.00000   90.00000
LATT -1
SFAC C  
C      1  0.5059680000000  0.4066530000000  0.5473350000000 1.0
C      1  0.4039180000000  0.4801820000000  0.4837860000000 1.0
C      1  0.4690300000000  0.4441780000000  0.5851120000000 1.0
C      1  0.5616160000000  0.4565260000000  0.5349900000000 1.0
C      1  0.4636350000000  0.4961790000000  0.4559300000000 1.0
C      1  0.4952910000000  0.4659700000000  0.4986860000000 1.0
C      1  0.4040540000000  0.5524130000000  0.5452230000000 1.0
C      1  0.4265340000000  0.4110940000000  0.5028080000000 1.0
C      1  0.5538850000000  0.5864220000000  0.5173080000000 1.0
C      1  0.4284010000000  0.5807810000000  0.4502430000000 1.0
C      1  0.5641530000000  0.5427290000000  0.4879780000000 1.0
C      1  0.5185140000000  0.5460100000000  0.4312600000000 1.0
C      1  0.4786240000000  0.5309820000000  0.5528030000000 1.0
C      1  0.5989790000000  0.4660020000000  0.4707440000000 1.0
C      1  0.4609680000000  0.5988910000000  0.5553360000000 1.0
C      1  0.5116530000000  0.3838440000000  0.4382450000000 1.0
C      1  0.5295840000000  0.4185630000000  0.5499740000000 1.0
C      1  0.4444120000000  0.4261980000000  0.5180500000000 1.0
C      1  0.4868200000000  0.5086980000000  0.4666050000000 1.0
C      1  0.5106290000000  0.4612070000000  0.4155440000000 1.0
C      1  0.5730230000000  0.5818570000000  0.5695420000000 1.0
C      1  0.6283950000000  0.5095550000000  0.5326350000000 1.0
C      1  0.5787670000000  0.5720120000000  0.5231830000000 1.0
C      1  0.6102160000000  0.4805800000000  0.4900340000000 1.0
C      1  0.5524680000000  0.5114590000000  0.5485280000000 1.0
C      1  0.4752640000000  0.4486110000000  0.4572180000000 1.0
C      1  0.5045640000000  0.5280230000000  0.4166950000000 1.0
C      1  0.5877980000000  0.5677570000000  0.5499560000000 1.0
C      1  0.4197760000000  0.4030320000000  0.4767200000000 1.0
C      1  0.5214820000000  0.5310510000000  0.5044540000000 1.0
C      1  0.4686100000000  0.5096370000000  0.3885310000000 1.0
C      1  0.5487140000000  0.5929070000000  0.5647940000000 1.0
C      1  0.4501600000000  0.6265440000000  0.4523100000000 1.0
C      1  0.5042860000000  0.5190460000000  0.5617570000000 1.0
C      1  0.5077600000000  0.5865410000000  0.5367770000000 1.0
C      1  0.4383020000000  0.5839790000000  0.5666180000000 1.0
C      1  0.5089890000000  0.3578330000000  0.4303810000000 1.0
C      1  0.5431430000000  0.4690340000000  0.4930540000000 1.0
C      1  0.4560260000000  0.5113630000000  0.5564050000000 1.0
C      1  0.4564930000000  0.4309080000000  0.5657050000000 1.0
C      1  0.6124190000000  0.5190800000000  0.5542850000000 1.0
C      1  0.4570470000000  0.4738840000000  0.5257230000000 1.0
C      1  0.4049440000000  0.5264420000000  0.5388630000000 1.0
C      1  0.4585300000000  0.4171500000000  0.5412670000000 1.0
C      1  0.5488090000000  0.5630630000000  0.4737490000000 1.0
C      1  0.4300190000000  0.5560340000000  0.4647510000000 1.0
C      1  0.5497830000000  0.4355210000000  0.5464160000000 1.0
C      1  0.4727660000000  0.3658020000000  0.4774960000000 1.0
C      1  0.5404410000000  0.4684300000000  0.6050660000000 1.0
C      1  0.4533610000000  0.5441390000000  0.5087670000000 1.0
C      1  0.4732780000000  0.4515340000000  0.4857230000000 1.0
C      1  0.5153510000000  0.4386820000000  0.4315720000000 1.0
C      1  0.4862400000000  0.5833670000000  0.5553590000000 1.0
C      1  0.4284900000000  0.5302410000000  0.4552500000000 1.0
C      1  0.4890030000000  0.5059650000000  0.4075580000000 1.0
C      1  0.5131640000000  0.4974470000000  0.4672340000000 1.0
C      1  0.4769430000000  0.3738820000000  0.5268180000000 1.0
C      1  0.5485520000000  0.5237650000000  0.5024930000000 1.0
C      1  0.4593650000000  0.5872690000000  0.4832270000000 1.0
C      1  0.5573230000000  0.5044130000000  0.5217400000000 1.0
C      1  0.5365450000000  0.3972640000000  0.4368430000000 1.0
C      1  0.6174460000000  0.4947620000000  0.5114050000000 1.0
C      1  0.4364620000000  0.5035670000000  0.4568600000000 1.0
C      1  0.4157410000000  0.5017870000000  0.5303270000000 1.0
C      1  0.6034250000000  0.5013060000000  0.5740330000000 1.0
C      1  0.6045970000000  0.5460730000000  0.5554510000000 1.0
C      1  0.5339220000000  0.5574400000000  0.4502610000000 1.0
C      1  0.4754150000000  0.3610500000000  0.5035660000000 1.0
C      1  0.5653620000000  0.4763860000000  0.6003230000000 1.0
C      1  0.5356620000000  0.5915480000000  0.5396980000000 1.0
C      1  0.6558110000000  0.5151230000000  0.5326870000000 1.0
C      1  0.4772060000000  0.5574730000000  0.5677520000000 1.0
C      1  0.5412620000000  0.6117500000000  0.4770010000000 1.0
C      1  0.4546050000000  0.6513980000000  0.4442820000000 1.0
C      1  0.4082070000000  0.4768200000000  0.4080370000000 1.0
C      1  0.4523720000000  0.5631130000000  0.5812450000000 1.0
C      1  0.4849580000000  0.5907590000000  0.4935520000000 1.0
C      1  0.5009520000000  0.5760430000000  0.5111400000000 1.0
C      1  0.4440960000000  0.5017770000000  0.3815020000000 1.0
C      1  0.3938490000000  0.4016980000000  0.4683620000000 1.0
C      1  0.5637790000000  0.4382700000000  0.4424160000000 1.0
C      1  0.4674470000000  0.3868580000000  0.4596280000000 1.0
C      1  0.5576840000000  0.4765710000000  0.5157930000000 1.0
C      1  0.4412000000000  0.3966510000000  0.4596510000000 1.0
C      1  0.5833410000000  0.4516730000000  0.4545830000000 1.0
C      1  0.5871900000000  0.4872690000000  0.5897260000000 1.0
C      1  0.4526660000000  0.4511630000000  0.5071970000000 1.0
C      1  0.4898280000000  0.4797180000000  0.4194660000000 1.0
C      1  0.4461580000000  0.5615920000000  0.4881520000000 1.0
C      1  0.4154400000000  0.4842320000000  0.4586510000000 1.0
C      1  0.4899200000000  0.4547190000000  0.5977640000000 1.0
C      1  0.5173860000000  0.4758070000000  0.4850530000000 1.0
C      1  0.5146320000000  0.4621300000000  0.6041790000000 1.0
C      1  0.4590920000000  0.6758490000000  0.4364310000000 1.0
C      1  0.4463600000000  0.6006810000000  0.4610840000000 1.0
C      1  0.5004430000000  0.5476420000000  0.5108930000000 1.0
C      1  0.4058160000000  0.4739070000000  0.4344750000000 1.0
C      1  0.5305820000000  0.5159240000000  0.5630470000000 1.0
C      1  0.4768730000000  0.5375090000000  0.5229310000000 1.0
C      1  0.5858580000000  0.5537840000000  0.5025740000000 1.0
C      1  0.4856760000000  0.4775130000000  0.5229000000000 1.0
C      1  0.4036220000000  0.4876060000000  0.5093800000000 1.0
C      1  0.4147000000000  0.5753530000000  0.5542650000000 1.0
C      1  0.6812810000000  0.5206340000000  0.5329250000000 1.0
C      1  0.5471050000000  0.5878530000000  0.4890160000000 1.0
C      1  0.5399830000000  0.4252450000000  0.4357740000000 1.0
C      1  0.4920400000000  0.4283370000000  0.4456160000000 1.0
C      1  0.4803070000000  0.3987170000000  0.5391250000000 1.0
C      1  0.4893170000000  0.3998560000000  0.4471300000000 1.0
C      1  0.4418240000000  0.4937690000000  0.5390570000000 1.0
C      1  0.4220880000000  0.4883940000000  0.3884160000000 1.0
C      1  0.4718100000000  0.4729670000000  0.4413310000000 1.0
C      1  0.5339230000000  0.5033090000000  0.4504310000000 1.0
END
