TITL C-627106-156-869 60661.4641048667 125000 -1009.2312825048 0 0 163 (C1) n - 1
REM
REM in /home/nfs/bkarasulu/CARBON/AIRSS/Generating-Clusters/LCBOP/Only-C1/SD-CG/FIRE-CG
REM
REM
REM
REM
REM
REM ./C.cell (11c1c37f851c82e70ff6c80c92926a4b)
REM AIRSS Version 0.9.1 bugfix July 2018 build 013d7b7c2542+ Fri, 06 Jul 2018 19:26:36 +0100
REM compiler GCC version 9.2.1 20190827 (Red Hat 9.2.1-1)
REM options -cpp -mtune=generic -march=x86-64 -g -O0 -fpre-include=/usr/include/finclude/math-vector-fortran.h
REM seed -319400287 436992704 -322176336 500696793 1632468160 1126296601 278574168 -321386034 -711419025 1028984476 -2072283170 -2085775033 -1921494262 -2467251 -2006584912 893999705 551287218 527588298 250416144 1117436515 -1137219146 -2037496269 -106599078 -990659030 -456153194 -1957794237 -1644889475 153948118 -724073736 -397529545 -729249468 1356105873 -972945664
REM
CELL 1.54180   50.00000   50.00000   50.00000   90.00000   90.00000   90.00000
LATT -1
SFAC C  
C      1  0.4916670000000  0.5568470000000  0.4324130000000 1.0
C      1  0.4826020000000  0.4709180000000  0.4120050000000 1.0
C      1  0.4845450000000  0.4231680000000  0.6341900000000 1.0
C      1  0.5591280000000  0.4731720000000  0.4642880000000 1.0
C      1  0.3985730000000  0.4544920000000  0.4907440000000 1.0
C      1  0.3839940000000  0.4574420000000  0.5147120000000 1.0
C      1  0.5164110000000  0.5861210000000  0.5289590000000 1.0
C      1  0.4841360000000  0.5387630000000  0.5258770000000 1.0
C      1  0.4668670000000  0.4952480000000  0.4740110000000 1.0
C      1  0.5130420000000  0.6003430000000  0.4385740000000 1.0
C      1  0.4894390000000  0.6063950000000  0.4520680000000 1.0
C      1  0.4883490000000  0.5022350000000  0.4958170000000 1.0
C      1  0.4469130000000  0.5485370000000  0.4255220000000 1.0
C      1  0.5814320000000  0.4623430000000  0.4765640000000 1.0
C      1  0.5065070000000  0.5756700000000  0.5524230000000 1.0
C      1  0.5736860000000  0.4394130000000  0.5985260000000 1.0
C      1  0.5717790000000  0.5743480000000  0.5133620000000 1.0
C      1  0.5637340000000  0.5893090000000  0.5609590000000 1.0
C      1  0.4655940000000  0.4878870000000  0.4276310000000 1.0
C      1  0.5988160000000  0.5034470000000  0.5681860000000 1.0
C      1  0.4281040000000  0.4268870000000  0.5448400000000 1.0
C      1  0.5757070000000  0.5795460000000  0.4613110000000 1.0
C      1  0.4913720000000  0.4215690000000  0.6081100000000 1.0
C      1  0.5175440000000  0.4877890000000  0.4483480000000 1.0
C      1  0.5888730000000  0.5239700000000  0.4494450000000 1.0
C      1  0.4359630000000  0.4889160000000  0.4226400000000 1.0
C      1  0.5863820000000  0.5685750000000  0.4873830000000 1.0
C      1  0.5631930000000  0.6232880000000  0.5263800000000 1.0
C      1  0.5259480000000  0.4945390000000  0.5489260000000 1.0
C      1  0.5685300000000  0.5965230000000  0.5331420000000 1.0
C      1  0.3817200000000  0.4794450000000  0.5588470000000 1.0
C      1  0.4835820000000  0.5715970000000  0.5914250000000 1.0
C      1  0.5006010000000  0.4855090000000  0.3941080000000 1.0
C      1  0.5218240000000  0.3909910000000  0.5269720000000 1.0
C      1  0.5385640000000  0.4061380000000  0.4574760000000 1.0
C      1  0.4578410000000  0.5843660000000  0.5902060000000 1.0
C      1  0.5857770000000  0.4663950000000  0.5409500000000 1.0
C      1  0.5456300000000  0.6070720000000  0.4034280000000 1.0
C      1  0.4225460000000  0.5107530000000  0.4967290000000 1.0
C      1  0.4452630000000  0.4501810000000  0.5095540000000 1.0
C      1  0.4646270000000  0.5245410000000  0.5812580000000 1.0
C      1  0.5540450000000  0.4920810000000  0.3909130000000 1.0
C      1  0.4871720000000  0.4499700000000  0.4853570000000 1.0
C      1  0.5392940000000  0.5931080000000  0.4265810000000 1.0
C      1  0.4300860000000  0.5618030000000  0.5265040000000 1.0
C      1  0.5278490000000  0.4588590000000  0.5920120000000 1.0
C      1  0.4692120000000  0.5253350000000  0.3938090000000 1.0
C      1  0.4546870000000  0.5840910000000  0.4864410000000 1.0
C      1  0.6121950000000  0.5034880000000  0.5183340000000 1.0
C      1  0.5727490000000  0.5246630000000  0.4709000000000 1.0
C      1  0.4304820000000  0.5721640000000  0.4985610000000 1.0
C      1  0.4240320000000  0.5351820000000  0.4157790000000 1.0
C      1  0.5878470000000  0.5484660000000  0.5482580000000 1.0
C      1  0.5667690000000  0.5498940000000  0.5286940000000 1.0
C      1  0.5600510000000  0.5672490000000  0.5794400000000 1.0
C      1  0.4367460000000  0.5125320000000  0.4016940000000 1.0
C      1  0.5133700000000  0.5096640000000  0.5950750000000 1.0
C      1  0.4945800000000  0.5132250000000  0.3883210000000 1.0
C      1  0.4579060000000  0.5349290000000  0.4491140000000 1.0
C      1  0.5290840000000  0.4350080000000  0.5060660000000 1.0
C      1  0.5209090000000  0.4298770000000  0.4561800000000 1.0
C      1  0.5086640000000  0.4021700000000  0.5937660000000 1.0
C      1  0.4902010000000  0.5555460000000  0.5037400000000 1.0
C      1  0.5110750000000  0.5769910000000  0.5818490000000 1.0
C      1  0.4141430000000  0.4011240000000  0.5018680000000 1.0
C      1  0.4435960000000  0.4804100000000  0.5468460000000 1.0
C      1  0.5411470000000  0.3974470000000  0.4302690000000 1.0
C      1  0.3988920000000  0.5157030000000  0.5079660000000 1.0
C      1  0.5176770000000  0.5306880000000  0.3918300000000 1.0
C      1  0.4092480000000  0.5286780000000  0.4399210000000 1.0
C      1  0.4486210000000  0.4102300000000  0.5557260000000 1.0
C      1  0.5306650000000  0.5516320000000  0.4654150000000 1.0
C      1  0.5451730000000  0.5311720000000  0.5280030000000 1.0
C      1  0.5777470000000  0.5245210000000  0.4235360000000 1.0
C      1  0.4324070000000  0.4024550000000  0.4795280000000 1.0
C      1  0.4392860000000  0.4369860000000  0.4391600000000 1.0
C      1  0.4764820000000  0.5546900000000  0.4575160000000 1.0
C      1  0.6075880000000  0.5488090000000  0.4915080000000 1.0
C      1  0.5611720000000  0.5725510000000  0.4352500000000 1.0
C      1  0.4727090000000  0.4181260000000  0.5676820000000 1.0
C      1  0.4672800000000  0.6045560000000  0.4690540000000 1.0
C      1  0.5325800000000  0.5395820000000  0.4145260000000 1.0
C      1  0.5061170000000  0.4527480000000  0.5740150000000 1.0
C      1  0.4702740000000  0.4878360000000  0.5374930000000 1.0
C      1  0.5944870000000  0.4386530000000  0.5817780000000 1.0
C      1  0.5287190000000  0.4764870000000  0.4746930000000 1.0
C      1  0.4264000000000  0.4473150000000  0.4880820000000 1.0
C      1  0.4741670000000  0.4488450000000  0.5101320000000 1.0
C      1  0.3863410000000  0.4644410000000  0.4675400000000 1.0
C      1  0.3978120000000  0.5477300000000  0.4582500000000 1.0
C      1  0.4377310000000  0.5746600000000  0.5739340000000 1.0
C      1  0.4745690000000  0.3775250000000  0.5288830000000 1.0
C      1  0.5283190000000  0.4809970000000  0.3991020000000 1.0
C      1  0.5329400000000  0.4504080000000  0.5298460000000 1.0
C      1  0.5889620000000  0.5221840000000  0.5852500000000 1.0
C      1  0.4620640000000  0.4263310000000  0.4253410000000 1.0
C      1  0.4710290000000  0.3758480000000  0.5009700000000 1.0
C      1  0.5986990000000  0.4922020000000  0.5419170000000 1.0
C      1  0.4281180000000  0.4995090000000  0.5613880000000 1.0
C      1  0.5179760000000  0.4982000000000  0.4945950000000 1.0
C      1  0.5608140000000  0.4796410000000  0.4354090000000 1.0
C      1  0.6137980000000  0.5461460000000  0.5382210000000 1.0
C      1  0.5278500000000  0.5301330000000  0.5791250000000 1.0
C      1  0.5340230000000  0.5204600000000  0.5522430000000 1.0
C      1  0.4728010000000  0.4665220000000  0.4680610000000 1.0
C      1  0.4949840000000  0.3975800000000  0.5678430000000 1.0
C      1  0.4732100000000  0.5625130000000  0.4834130000000 1.0
C      1  0.5438180000000  0.6363480000000  0.5130660000000 1.0
C      1  0.5265030000000  0.5767790000000  0.4805900000000 1.0
C      1  0.5293630000000  0.6263430000000  0.4925710000000 1.0
C      1  0.3709920000000  0.5532760000000  0.4556000000000 1.0
C      1  0.4512450000000  0.3842270000000  0.5439430000000 1.0
C      1  0.4740880000000  0.5088980000000  0.4476250000000 1.0
C      1  0.4990300000000  0.3852370000000  0.5422770000000 1.0
C      1  0.5168890000000  0.4476750000000  0.4808300000000 1.0
C      1  0.5248750000000  0.4124210000000  0.4136530000000 1.0
C      1  0.5588660000000  0.4613200000000  0.5338390000000 1.0
C      1  0.4615310000000  0.4006530000000  0.4157800000000 1.0
C      1  0.5327990000000  0.4771240000000  0.4270550000000 1.0
C      1  0.3761800000000  0.4788660000000  0.5312700000000 1.0
C      1  0.4890810000000  0.5521600000000  0.5497380000000 1.0
C      1  0.4850160000000  0.4432590000000  0.4206180000000 1.0
C      1  0.5435830000000  0.3958310000000  0.4828410000000 1.0
C      1  0.6197240000000  0.4849280000000  0.4987150000000 1.0
C      1  0.5162050000000  0.5403050000000  0.4398070000000 1.0
C      1  0.5597210000000  0.5470350000000  0.4200910000000 1.0
C      1  0.3942500000000  0.4839400000000  0.4512420000000 1.0
C      1  0.4350450000000  0.4541900000000  0.5367050000000 1.0
C      1  0.5334040000000  0.5582760000000  0.5858040000000 1.0
C      1  0.4717400000000  0.5504100000000  0.4098940000000 1.0
C      1  0.5711120000000  0.4981670000000  0.4140960000000 1.0
C      1  0.4550410000000  0.3857250000000  0.4816800000000 1.0
C      1  0.4783760000000  0.5479230000000  0.5753130000000 1.0
C      1  0.4836410000000  0.4383740000000  0.5852370000000 1.0
C      1  0.3772660000000  0.5041810000000  0.5187200000000 1.0
C      1  0.5374240000000  0.6035840000000  0.4780440000000 1.0
C      1  0.5125520000000  0.5728470000000  0.5047870000000 1.0
C      1  0.4121100000000  0.5613060000000  0.4791160000000 1.0
C      1  0.4328760000000  0.4285700000000  0.4663790000000 1.0
C      1  0.5355850000000  0.4102540000000  0.5958740000000 1.0
C      1  0.5636150000000  0.6049910000000  0.4676520000000 1.0
C      1  0.4395140000000  0.5252420000000  0.5662340000000 1.0
C      1  0.4280290000000  0.4593180000000  0.4248190000000 1.0
C      1  0.5332830000000  0.4065930000000  0.5067260000000 1.0
C      1  0.5037490000000  0.5124240000000  0.4459440000000 1.0
C      1  0.5458810000000  0.4369160000000  0.5975230000000 1.0
C      1  0.5473190000000  0.5324300000000  0.4793830000000 1.0
C      1  0.4330200000000  0.5529520000000  0.5547240000000 1.0
C      1  0.5985240000000  0.4465560000000  0.5565120000000 1.0
C      1  0.4842770000000  0.5081130000000  0.5941380000000 1.0
C      1  0.5096570000000  0.4320130000000  0.4288010000000 1.0
C      1  0.5363480000000  0.5196560000000  0.5023670000000 1.0
C      1  0.4028780000000  0.4912840000000  0.5705560000000 1.0
C      1  0.4786260000000  0.5108610000000  0.5216900000000 1.0
C      1  0.6154930000000  0.5319370000000  0.5137670000000 1.0
C      1  0.4857790000000  0.4637570000000  0.5317240000000 1.0
C      1  0.6064500000000  0.4667370000000  0.4844300000000 1.0
C      1  0.4363040000000  0.5010390000000  0.4744050000000 1.0
C      1  0.4111900000000  0.4123550000000  0.5264910000000 1.0
C      1  0.5801100000000  0.5471270000000  0.5755120000000 1.0
C      1  0.5092720000000  0.4559420000000  0.5456640000000 1.0
C      1  0.5273230000000  0.4855170000000  0.6016730000000 1.0
C      1  0.4190020000000  0.5005520000000  0.4476380000000 1.0
END
