TITL C-627112-676-1599 2.94357573184176 125000 -511.027636893899 0 0 84 (C1) n - 1
REM
REM in /home/nfs/bkarasulu/CARBON/AIRSS/Generating-Clusters/LCBOP/Only-C1/SD-CG/FIRE-CG
REM
REM
REM
REM
REM
REM ./C.cell (11c1c37f851c82e70ff6c80c92926a4b)
REM AIRSS Version 0.9.1 bugfix July 2018 build 013d7b7c2542+ Fri, 06 Jul 2018 19:26:36 +0100
REM compiler GCC version 9.2.1 20190827 (Red Hat 9.2.1-1)
REM options -cpp -mtune=generic -march=x86-64 -g -O0 -fpre-include=/usr/include/finclude/math-vector-fortran.h
REM seed 521696970 130039328 -819322852 809648489 261487108 237416404 765032807 345509815 522572761 -246566552 1944072233 -925043238 1828600382 -1077904687 -235227166 -1046018893 -915621002 613432345 -1909033777 -1326986797 1484652120 1418494530 1143844900 -1502997954 -821199223 -966104075 -757536861 1270244337 1857264405 -1124067796 957756041 488707123 -812802327
REM
CELL 1.54180   50.00000   50.00000   50.00000   90.00000   90.00000   90.00000
LATT -1
SFAC C  
C      1  0.4731270000000  0.5112960000000  0.5794730000000 1.0
C      1  0.5346800000000  0.4839110000000  0.5497520000000 1.0
C      1  0.5521460000000  0.5756810000000  0.5107060000000 1.0
C      1  0.4359650000000  0.3061740000000  0.4387160000000 1.0
C      1  0.5229830000000  0.6067670000000  0.4508850000000 1.0
C      1  0.5514880000000  0.6035000000000  0.5122450000000 1.0
C      1  0.5291660000000  0.4943830000000  0.4404660000000 1.0
C      1  0.5477380000000  0.5955570000000  0.4500600000000 1.0
C      1  0.4515280000000  0.5249760000000  0.5693250000000 1.0
C      1  0.5849810000000  0.4455380000000  0.4302440000000 1.0
C      1  0.4847030000000  0.4439900000000  0.4113500000000 1.0
C      1  0.4495580000000  0.3733900000000  0.5052430000000 1.0
C      1  0.4454040000000  0.5403890000000  0.4778470000000 1.0
C      1  0.5158590000000  0.5400520000000  0.4553820000000 1.0
C      1  0.4667740000000  0.5674800000000  0.5250550000000 1.0
C      1  0.4891490000000  0.6174120000000  0.5398960000000 1.0
C      1  0.5411800000000  0.4615460000000  0.4755840000000 1.0
C      1  0.4757160000000  0.4190600000000  0.4123090000000 1.0
C      1  0.5691640000000  0.5813770000000  0.4588600000000 1.0
C      1  0.5039420000000  0.4300210000000  0.4805770000000 1.0
C      1  0.4679040000000  0.3796240000000  0.5987990000000 1.0
C      1  0.5341150000000  0.5220000000000  0.4436510000000 1.0
C      1  0.4537500000000  0.4020440000000  0.5512790000000 1.0
C      1  0.5259560000000  0.5366990000000  0.5195010000000 1.0
C      1  0.4447070000000  0.5208540000000  0.4966270000000 1.0
C      1  0.5016890000000  0.4887650000000  0.4350220000000 1.0
C      1  0.4695020000000  0.5509410000000  0.4671560000000 1.0
C      1  0.4512640000000  0.3864660000000  0.5282260000000 1.0
C      1  0.4501180000000  0.3560590000000  0.4537590000000 1.0
C      1  0.5354450000000  0.6228910000000  0.5026630000000 1.0
C      1  0.4747610000000  0.3692460000000  0.6217090000000 1.0
C      1  0.5485620000000  0.4136150000000  0.4702870000000 1.0
C      1  0.5854290000000  0.5098360000000  0.5081510000000 1.0
C      1  0.4739600000000  0.6020600000000  0.4665530000000 1.0
C      1  0.4668230000000  0.3954880000000  0.4205720000000 1.0
C      1  0.5003850000000  0.4782730000000  0.5208930000000 1.0
C      1  0.4427980000000  0.3302550000000  0.4459720000000 1.0
C      1  0.5310190000000  0.4348240000000  0.4759730000000 1.0
C      1  0.4881700000000  0.5035960000000  0.5150950000000 1.0
C      1  0.5734360000000  0.4865800000000  0.5020490000000 1.0
C      1  0.5003470000000  0.5271990000000  0.5268610000000 1.0
C      1  0.5434650000000  0.5112090000000  0.5563610000000 1.0
C      1  0.4247750000000  0.5818610000000  0.5167740000000 1.0
C      1  0.4780810000000  0.4273980000000  0.4823560000000 1.0
C      1  0.5087540000000  0.4779600000000  0.5649380000000 1.0
C      1  0.4916790000000  0.5411640000000  0.5497280000000 1.0
C      1  0.4659070000000  0.5023560000000  0.4975480000000 1.0
C      1  0.4777040000000  0.5755310000000  0.4785260000000 1.0
C      1  0.5689840000000  0.4663390000000  0.4355290000000 1.0
C      1  0.5466090000000  0.4745120000000  0.4504220000000 1.0
C      1  0.5753080000000  0.5590970000000  0.5045080000000 1.0
C      1  0.4708800000000  0.4909870000000  0.4721100000000 1.0
C      1  0.4705730000000  0.4476240000000  0.5490140000000 1.0
C      1  0.5298640000000  0.5592510000000  0.5030930000000 1.0
C      1  0.5823790000000  0.5663700000000  0.4775380000000 1.0
C      1  0.4835790000000  0.5043060000000  0.4507510000000 1.0
C      1  0.5007650000000  0.6143890000000  0.4673380000000 1.0
C      1  0.4908040000000  0.4659500000000  0.5455720000000 1.0
C      1  0.4492010000000  0.3633390000000  0.4807270000000 1.0
C      1  0.4473680000000  0.6092480000000  0.4764800000000 1.0
C      1  0.4401260000000  0.5636900000000  0.5336090000000 1.0
C      1  0.5235810000000  0.5567560000000  0.4761310000000 1.0
C      1  0.5739690000000  0.5334440000000  0.5184180000000 1.0
C      1  0.5004670000000  0.5019750000000  0.5797470000000 1.0
C      1  0.4930170000000  0.5852280000000  0.5768490000000 1.0
C      1  0.4381110000000  0.5433560000000  0.5538710000000 1.0
C      1  0.4583760000000  0.3746550000000  0.4346040000000 1.0
C      1  0.4488870000000  0.4300330000000  0.5501150000000 1.0
C      1  0.5297160000000  0.4772130000000  0.5214620000000 1.0
C      1  0.5252850000000  0.5182660000000  0.5786000000000 1.0
C      1  0.4818700000000  0.5813670000000  0.5066360000000 1.0
C      1  0.5480700000000  0.4743320000000  0.5001600000000 1.0
C      1  0.5085690000000  0.6201310000000  0.4946710000000 1.0
C      1  0.4880870000000  0.5328610000000  0.4543570000000 1.0
C      1  0.4905140000000  0.6092310000000  0.5653070000000 1.0
C      1  0.4304860000000  0.5989000000000  0.4957910000000 1.0
C      1  0.5859020000000  0.4200320000000  0.4386400000000 1.0
C      1  0.4609350000000  0.3902300000000  0.5755430000000 1.0
C      1  0.5700670000000  0.4068150000000  0.4558600000000 1.0
C      1  0.4921130000000  0.6072240000000  0.5140390000000 1.0
C      1  0.4933550000000  0.4679820000000  0.4185860000000 1.0
C      1  0.4232370000000  0.4395610000000  0.5501520000000 1.0
C      1  0.5494910000000  0.5281920000000  0.5339470000000 1.0
C      1  0.4936980000000  0.5598200000000  0.5688180000000 1.0
END
