TITL C-627110-360-1266 0.00239568793104616 125000 -293.744838462805 0 0 49 (C1) n - 1
REM
REM in /home/nfs/bkarasulu/CARBON/AIRSS/Generating-Clusters/LCBOP/Only-C1/SD-CG/FIRE-CG
REM
REM
REM
REM
REM
REM ./C.cell (11c1c37f851c82e70ff6c80c92926a4b)
REM AIRSS Version 0.9.1 bugfix July 2018 build 013d7b7c2542+ Fri, 06 Jul 2018 19:26:36 +0100
REM compiler GCC version 9.2.1 20190827 (Red Hat 9.2.1-1)
REM options -cpp -mtune=generic -march=x86-64 -g -O0 -fpre-include=/usr/include/finclude/math-vector-fortran.h
REM seed -1154366284 464119972 107760729 925258840 -1090845480 484495013 289108298 -1851021843 -248475397 1888291954 -900062124 -1526135942 940924624 441250865 1342447426 -830783927 1415588482 1186974894 817500984 2097102095 740500759 -386091695 -1004686313 -1561336208 -1843356421 -266046420 718235757 -2009870026 1150378986 -1907178548 1372041467 364650437 261022534
REM
CELL 1.54180   50.00000   50.00000   50.00000   90.00000   90.00000   90.00000
LATT -1
SFAC C  
C      1  0.5171410000000  0.5403760000000  0.5472710000000 1.0
C      1  0.5602150000000  0.5123020000000  0.5408910000000 1.0
C      1  0.5371280000000  0.5073540000000  0.4900760000000 1.0
C      1  0.5634350000000  0.5190670000000  0.4932480000000 1.0
C      1  0.4802850000000  0.4562520000000  0.5120670000000 1.0
C      1  0.5572210000000  0.5560620000000  0.5246740000000 1.0
C      1  0.4221660000000  0.4962970000000  0.5087130000000 1.0
C      1  0.5158580000000  0.5760040000000  0.5113630000000 1.0
C      1  0.5043720000000  0.4512250000000  0.4978710000000 1.0
C      1  0.4491350000000  0.5060340000000  0.5518090000000 1.0
C      1  0.5150830000000  0.5723020000000  0.4845420000000 1.0
C      1  0.3448560000000  0.4994130000000  0.5323840000000 1.0
C      1  0.5670510000000  0.5298120000000  0.5194610000000 1.0
C      1  0.5559010000000  0.4752780000000  0.4589740000000 1.0
C      1  0.5294230000000  0.4410240000000  0.5082620000000 1.0
C      1  0.3701170000000  0.4983420000000  0.5244260000000 1.0
C      1  0.5082300000000  0.4311020000000  0.4292770000000 1.0
C      1  0.5345000000000  0.4470340000000  0.5353920000000 1.0
C      1  0.3200120000000  0.5004660000000  0.5402120000000 1.0
C      1  0.5636550000000  0.4493900000000  0.4685220000000 1.0
C      1  0.4804330000000  0.5036420000000  0.5094150000000 1.0
C      1  0.4755470000000  0.5129700000000  0.5607800000000 1.0
C      1  0.5510690000000  0.4367150000000  0.4895530000000 1.0
C      1  0.4940830000000  0.4918170000000  0.5668020000000 1.0
C      1  0.4914460000000  0.5105920000000  0.4854270000000 1.0
C      1  0.4666610000000  0.4801870000000  0.5173420000000 1.0
C      1  0.5399650000000  0.4699920000000  0.5504320000000 1.0
C      1  0.5200850000000  0.5485770000000  0.4703560000000 1.0
C      1  0.5117280000000  0.5045060000000  0.4262090000000 1.0
C      1  0.5647010000000  0.4842840000000  0.5447190000000 1.0
C      1  0.4289800000000  0.5007580000000  0.4811590000000 1.0
C      1  0.4906320000000  0.4899140000000  0.4659250000000 1.0
C      1  0.5343130000000  0.4819250000000  0.4773660000000 1.0
C      1  0.4424720000000  0.4906820000000  0.5283780000000 1.0
C      1  0.5153610000000  0.5248370000000  0.4854270000000 1.0
C      1  0.5211630000000  0.4907800000000  0.5589530000000 1.0
C      1  0.5082120000000  0.4666050000000  0.4720700000000 1.0
C      1  0.5294860000000  0.5607630000000  0.5308610000000 1.0
C      1  0.4586410000000  0.5045500000000  0.4371220000000 1.0
C      1  0.4865550000000  0.4986790000000  0.4391020000000 1.0
C      1  0.5369890000000  0.5162550000000  0.4350290000000 1.0
C      1  0.4895270000000  0.5373100000000  0.5543630000000 1.0
C      1  0.5608770000000  0.5018290000000  0.4469350000000 1.0
C      1  0.4391900000000  0.5040520000000  0.4563070000000 1.0
C      1  0.5090030000000  0.4478270000000  0.4492320000000 1.0
C      1  0.5327600000000  0.5430410000000  0.4455300000000 1.0
C      1  0.5332050000000  0.5168500000000  0.5521160000000 1.0
C      1  0.3953760000000  0.4972820000000  0.5165250000000 1.0
C      1  0.5757560000000  0.5176410000000  0.4671260000000 1.0
END
