TITL C-627108-131-917 10274.2874401672 125000 -829.372022521418 0 0 136 (C1) n - 1
REM
REM in /home/nfs/bkarasulu/CARBON/AIRSS/Generating-Clusters/LCBOP/Only-C1/SD-CG/FIRE-CG
REM
REM
REM
REM
REM
REM ./C.cell (11c1c37f851c82e70ff6c80c92926a4b)
REM AIRSS Version 0.9.1 bugfix July 2018 build 013d7b7c2542+ Fri, 06 Jul 2018 19:26:36 +0100
REM compiler GCC version 9.2.1 20190827 (Red Hat 9.2.1-1)
REM options -cpp -mtune=generic -march=x86-64 -g -O0 -fpre-include=/usr/include/finclude/math-vector-fortran.h
REM seed 1488401062 -358809067 -1953566862 920753002 -623023994 2101013651 -1827415559 1881249863 1400776097 68058499 1319805496 -255058311 755054831 283945515 -150729265 135287899 78969585 628929641 879254909 1628380165 -2106240803 1706774247 1511321475 217218951 -994285327 -757728007 -1020706631 682438301 -498985229 -1064989861 -264313978 577736766 -308460666
REM
CELL 1.54180   50.00000   50.00000   50.00000   90.00000   90.00000   90.00000
LATT -1
SFAC C  
C      1  0.4613420000000  0.4172330000000  0.4524680000000 1.0
C      1  0.5606990000000  0.5023600000000  0.5020800000000 1.0
C      1  0.5336600000000  0.4769120000000  0.5273970000000 1.0
C      1  0.5737480000000  0.4755940000000  0.4126200000000 1.0
C      1  0.4253590000000  0.5413850000000  0.5615620000000 1.0
C      1  0.5446130000000  0.4515320000000  0.5184380000000 1.0
C      1  0.5069470000000  0.4057430000000  0.5363450000000 1.0
C      1  0.4123720000000  0.5729020000000  0.4973020000000 1.0
C      1  0.4460270000000  0.4758670000000  0.5144320000000 1.0
C      1  0.5272890000000  0.5965570000000  0.5604890000000 1.0
C      1  0.4357580000000  0.4705590000000  0.4128780000000 1.0
C      1  0.6055220000000  0.4445210000000  0.5414270000000 1.0
C      1  0.4754410000000  0.5207830000000  0.5087750000000 1.0
C      1  0.5372920000000  0.4452500000000  0.4282300000000 1.0
C      1  0.5069890000000  0.6025840000000  0.5089760000000 1.0
C      1  0.5095150000000  0.5721020000000  0.4212950000000 1.0
C      1  0.4490580000000  0.5825850000000  0.4661900000000 1.0
C      1  0.5829060000000  0.4304730000000  0.5389370000000 1.0
C      1  0.4131430000000  0.5139330000000  0.4285270000000 1.0
C      1  0.5811660000000  0.5277710000000  0.5534080000000 1.0
C      1  0.3968290000000  0.4719190000000  0.4644480000000 1.0
C      1  0.5429730000000  0.5474160000000  0.4457000000000 1.0
C      1  0.4029730000000  0.5147180000000  0.5273050000000 1.0
C      1  0.4525000000000  0.5254290000000  0.4930040000000 1.0
C      1  0.4292480000000  0.4487950000000  0.4319190000000 1.0
C      1  0.5912170000000  0.5779270000000  0.4982390000000 1.0
C      1  0.5310670000000  0.5205710000000  0.5564380000000 1.0
C      1  0.5576530000000  0.4931250000000  0.5293490000000 1.0
C      1  0.5822520000000  0.4457090000000  0.4502790000000 1.0
C      1  0.6049250000000  0.5533760000000  0.4970610000000 1.0
C      1  0.5134590000000  0.4241960000000  0.5611160000000 1.0
C      1  0.5013900000000  0.3988820000000  0.4805180000000 1.0
C      1  0.5450300000000  0.5922870000000  0.5393290000000 1.0
C      1  0.4466930000000  0.4260960000000  0.5478310000000 1.0
C      1  0.5485670000000  0.4598470000000  0.5772520000000 1.0
C      1  0.4599660000000  0.5700970000000  0.5776700000000 1.0
C      1  0.4800410000000  0.3980830000000  0.4609340000000 1.0
C      1  0.4618150000000  0.4775440000000  0.5953450000000 1.0
C      1  0.3905370000000  0.4924400000000  0.4805600000000 1.0
C      1  0.5229490000000  0.4947290000000  0.4527490000000 1.0
C      1  0.5496200000000  0.3922480000000  0.4777460000000 1.0
C      1  0.5210960000000  0.5844570000000  0.4691150000000 1.0
C      1  0.5403040000000  0.5346740000000  0.4721540000000 1.0
C      1  0.5220160000000  0.4593960000000  0.4085300000000 1.0
C      1  0.5749330000000  0.5553920000000  0.5559850000000 1.0
C      1  0.4405290000000  0.4151270000000  0.5221060000000 1.0
C      1  0.5857360000000  0.4883820000000  0.3927680000000 1.0
C      1  0.4351560000000  0.4771650000000  0.5855690000000 1.0
C      1  0.5014870000000  0.5925010000000  0.5655640000000 1.0
C      1  0.4958780000000  0.5896240000000  0.4852420000000 1.0
C      1  0.4773730000000  0.5636240000000  0.5334500000000 1.0
C      1  0.4704160000000  0.4576450000000  0.4767810000000 1.0
C      1  0.4898440000000  0.4384850000000  0.5736510000000 1.0
C      1  0.5208620000000  0.5138640000000  0.4057170000000 1.0
C      1  0.4837950000000  0.5193500000000  0.5561790000000 1.0
C      1  0.5110970000000  0.4846070000000  0.4008080000000 1.0
C      1  0.5066630000000  0.5020680000000  0.5611400000000 1.0
C      1  0.5263150000000  0.5713650000000  0.4441040000000 1.0
C      1  0.4905280000000  0.5529180000000  0.4123450000000 1.0
C      1  0.4627340000000  0.3993940000000  0.5122930000000 1.0
C      1  0.4182220000000  0.5391090000000  0.5341460000000 1.0
C      1  0.5432990000000  0.4553860000000  0.4904400000000 1.0
C      1  0.4266550000000  0.4368140000000  0.4795610000000 1.0
C      1  0.4200450000000  0.4295210000000  0.5065810000000 1.0
C      1  0.4552950000000  0.5722340000000  0.4408320000000 1.0
C      1  0.5232000000000  0.5208720000000  0.6070890000000 1.0
C      1  0.4674620000000  0.4763390000000  0.4971820000000 1.0
C      1  0.3935710000000  0.5096790000000  0.5009290000000 1.0
C      1  0.5400740000000  0.5287850000000  0.4222320000000 1.0
C      1  0.4779450000000  0.5125210000000  0.3851560000000 1.0
C      1  0.4768720000000  0.4973420000000  0.4397260000000 1.0
C      1  0.5723180000000  0.5880260000000  0.4793460000000 1.0
C      1  0.5613260000000  0.4626000000000  0.4362490000000 1.0
C      1  0.5054690000000  0.4733160000000  0.6086900000000 1.0
C      1  0.5552330000000  0.4347930000000  0.5380750000000 1.0
C      1  0.5475360000000  0.5119960000000  0.6189420000000 1.0
C      1  0.4849690000000  0.4581560000000  0.5943110000000 1.0
C      1  0.5650420000000  0.4967340000000  0.6049330000000 1.0
C      1  0.4220020000000  0.5842890000000  0.4746340000000 1.0
C      1  0.5008900000000  0.5025650000000  0.6094140000000 1.0
C      1  0.4682840000000  0.5811790000000  0.4877580000000 1.0
C      1  0.4922570000000  0.3988690000000  0.5098580000000 1.0
C      1  0.4673050000000  0.4379680000000  0.4063280000000 1.0
C      1  0.5592000000000  0.5068650000000  0.5558010000000 1.0
C      1  0.4822350000000  0.4846780000000  0.3919800000000 1.0
C      1  0.5350910000000  0.5974550000000  0.5131670000000 1.0
C      1  0.4889560000000  0.5364110000000  0.5307030000000 1.0
C      1  0.5281860000000  0.5361300000000  0.5825920000000 1.0
C      1  0.5897700000000  0.5885720000000  0.5243820000000 1.0
C      1  0.5175850000000  0.5186130000000  0.4665200000000 1.0
C      1  0.5810010000000  0.5971960000000  0.4550440000000 1.0
C      1  0.4974590000000  0.5301730000000  0.3968110000000 1.0
C      1  0.4511080000000  0.4280860000000  0.4281480000000 1.0
C      1  0.5012290000000  0.4431800000000  0.5077900000000 1.0
C      1  0.5123750000000  0.4922890000000  0.5172630000000 1.0
C      1  0.5154640000000  0.4504090000000  0.4839600000000 1.0
C      1  0.4620940000000  0.4658680000000  0.3996860000000 1.0
C      1  0.4447980000000  0.4818240000000  0.5401770000000 1.0
C      1  0.4683750000000  0.5495730000000  0.4300170000000 1.0
C      1  0.3996240000000  0.4441560000000  0.5202390000000 1.0
C      1  0.4254670000000  0.4848520000000  0.5603110000000 1.0
C      1  0.6044180000000  0.5196740000000  0.5382270000000 1.0
C      1  0.5492010000000  0.4835130000000  0.4549020000000 1.0
C      1  0.6172000000000  0.4683950000000  0.5436390000000 1.0
C      1  0.5302580000000  0.4223930000000  0.4447040000000 1.0
C      1  0.4669960000000  0.5231660000000  0.5788150000000 1.0
C      1  0.4712240000000  0.4392900000000  0.5517610000000 1.0
C      1  0.4990560000000  0.4807700000000  0.4477510000000 1.0
C      1  0.5224280000000  0.5269300000000  0.5248490000000 1.0
C      1  0.4731050000000  0.5046830000000  0.5995820000000 1.0
C      1  0.3910340000000  0.4663620000000  0.5332520000000 1.0
C      1  0.4694490000000  0.5254730000000  0.4484010000000 1.0
C      1  0.4293100000000  0.5603700000000  0.5165700000000 1.0
C      1  0.5704060000000  0.5801750000000  0.5430840000000 1.0
C      1  0.5566540000000  0.4803730000000  0.4822460000000 1.0
C      1  0.4482960000000  0.5443640000000  0.5774930000000 1.0
C      1  0.5968810000000  0.5021960000000  0.3736760000000 1.0
C      1  0.5399460000000  0.4368710000000  0.5623540000000 1.0
C      1  0.4204800000000  0.4939230000000  0.4123720000000 1.0
C      1  0.5467900000000  0.5279660000000  0.4991060000000 1.0
C      1  0.4873090000000  0.4948520000000  0.5055520000000 1.0
C      1  0.4932340000000  0.5316090000000  0.4654800000000 1.0
C      1  0.4790560000000  0.5777300000000  0.5583510000000 1.0
C      1  0.5271560000000  0.4047040000000  0.4678140000000 1.0
C      1  0.4542300000000  0.4352870000000  0.4733230000000 1.0
C      1  0.4016930000000  0.4905600000000  0.5447760000000 1.0
C      1  0.4142630000000  0.4509370000000  0.4572710000000 1.0
C      1  0.4454040000000  0.5250520000000  0.4658500000000 1.0
C      1  0.6167420000000  0.4950390000000  0.5435270000000 1.0
C      1  0.5447620000000  0.5899250000000  0.4866550000000 1.0
C      1  0.4844440000000  0.4467440000000  0.5280670000000 1.0
C      1  0.6105200000000  0.5337820000000  0.5145390000000 1.0
C      1  0.4212030000000  0.5244210000000  0.4518430000000 1.0
C      1  0.4577700000000  0.5698970000000  0.5134590000000 1.0
C      1  0.4959730000000  0.4588880000000  0.4647750000000 1.0
C      1  0.5605130000000  0.4861470000000  0.5788640000000 1.0
END
