TITL C-627109-622-991 308.548042051845 125000 -905.701375623556 0 0 150 (C1) n - 1
REM
REM in /home/nfs/bkarasulu/CARBON/AIRSS/Generating-Clusters/LCBOP/Only-C1/SD-CG/FIRE-CG
REM
REM
REM
REM
REM
REM ./C.cell (11c1c37f851c82e70ff6c80c92926a4b)
REM AIRSS Version 0.9.1 bugfix July 2018 build 013d7b7c2542+ Fri, 06 Jul 2018 19:26:36 +0100
REM compiler GCC version 9.2.1 20190827 (Red Hat 9.2.1-1)
REM options -cpp -mtune=generic -march=x86-64 -g -O0 -fpre-include=/usr/include/finclude/math-vector-fortran.h
REM seed 1687787429 1692711877 -1716429260 1389764891 954932449 -305755957 -778391579 1861170969 2144291384 -1864124337 1129749196 -459663420 372692039 -299373726 1118157825 22750649 473920885 905726299 409191799 1427059412 1631105504 -1638075503 -1587121009 2133987057 -1125382432 257264789 -392648653 -1753337672 -780265128 1238375349 -1276909471 -569949859 1212146759
REM
CELL 1.54180   50.00000   50.00000   50.00000   90.00000   90.00000   90.00000
LATT -1
SFAC C  
C      1  0.5393400000000  0.4925290000000  0.5380200000000 1.0
C      1  0.4904450000000  0.5351960000000  0.4318350000000 1.0
C      1  0.5151940000000  0.4934300000000  0.4557580000000 1.0
C      1  0.4085490000000  0.4894230000000  0.4325100000000 1.0
C      1  0.5221850000000  0.3781260000000  0.4724950000000 1.0
C      1  0.6146460000000  0.4604310000000  0.4818170000000 1.0
C      1  0.5681610000000  0.4637060000000  0.3761690000000 1.0
C      1  0.4417330000000  0.5689680000000  0.4285570000000 1.0
C      1  0.4463230000000  0.4072380000000  0.5108630000000 1.0
C      1  0.5183530000000  0.5128160000000  0.5412950000000 1.0
C      1  0.4304270000000  0.4900250000000  0.4147900000000 1.0
C      1  0.4737740000000  0.3827750000000  0.4790150000000 1.0
C      1  0.5361890000000  0.5685540000000  0.5222270000000 1.0
C      1  0.5027020000000  0.5471800000000  0.4069220000000 1.0
C      1  0.5359360000000  0.4529510000000  0.4456730000000 1.0
C      1  0.4074210000000  0.4384360000000  0.4338880000000 1.0
C      1  0.4379680000000  0.5415320000000  0.4344130000000 1.0
C      1  0.5084530000000  0.4446510000000  0.4907880000000 1.0
C      1  0.6002960000000  0.4534180000000  0.5270370000000 1.0
C      1  0.4954500000000  0.5419390000000  0.3813700000000 1.0
C      1  0.5637970000000  0.5611860000000  0.4424100000000 1.0
C      1  0.5640930000000  0.5059930000000  0.5437800000000 1.0
C      1  0.4051270000000  0.4979690000000  0.5048350000000 1.0
C      1  0.4603500000000  0.5524900000000  0.5976130000000 1.0
C      1  0.5038310000000  0.5994170000000  0.5216910000000 1.0
C      1  0.5974270000000  0.5316130000000  0.5191250000000 1.0
C      1  0.4268580000000  0.5791070000000  0.4808290000000 1.0
C      1  0.5717790000000  0.5374130000000  0.5960190000000 1.0
C      1  0.4659130000000  0.3996530000000  0.5303770000000 1.0
C      1  0.4663110000000  0.5848180000000  0.5603700000000 1.0
C      1  0.5887190000000  0.5479060000000  0.4506370000000 1.0
C      1  0.5506360000000  0.5237900000000  0.4131810000000 1.0
C      1  0.4561220000000  0.5207620000000  0.5198030000000 1.0
C      1  0.4521910000000  0.5110660000000  0.5739910000000 1.0
C      1  0.4603380000000  0.6099530000000  0.5116450000000 1.0
C      1  0.5437310000000  0.3913630000000  0.4641610000000 1.0
C      1  0.5874880000000  0.4298870000000  0.3408590000000 1.0
C      1  0.4786450000000  0.4486970000000  0.5357300000000 1.0
C      1  0.5602160000000  0.4385930000000  0.4475150000000 1.0
C      1  0.4962520000000  0.6063600000000  0.4598350000000 1.0
C      1  0.4211830000000  0.4779300000000  0.5216240000000 1.0
C      1  0.4529270000000  0.3799250000000  0.6035700000000 1.0
C      1  0.5544320000000  0.5274230000000  0.4859910000000 1.0
C      1  0.4693600000000  0.5258660000000  0.5921070000000 1.0
C      1  0.4249700000000  0.4236560000000  0.5207460000000 1.0
C      1  0.5226770000000  0.5766710000000  0.5837840000000 1.0
C      1  0.4493610000000  0.5487880000000  0.5173000000000 1.0
C      1  0.4672980000000  0.4835800000000  0.4458080000000 1.0
C      1  0.4972250000000  0.3673520000000  0.4794890000000 1.0
C      1  0.4507150000000  0.3981890000000  0.4841490000000 1.0
C      1  0.6249240000000  0.5614550000000  0.5522950000000 1.0
C      1  0.5307820000000  0.5955860000000  0.5301460000000 1.0
C      1  0.4777120000000  0.5492520000000  0.4755530000000 1.0
C      1  0.4956830000000  0.3405580000000  0.4873710000000 1.0
C      1  0.5342960000000  0.6169270000000  0.4840450000000 1.0
C      1  0.5397460000000  0.5689600000000  0.4618950000000 1.0
C      1  0.6025970000000  0.5465950000000  0.5483290000000 1.0
C      1  0.5926700000000  0.4409410000000  0.5498390000000 1.0
C      1  0.4691050000000  0.5652520000000  0.4993470000000 1.0
C      1  0.5584750000000  0.4799760000000  0.3946880000000 1.0
C      1  0.5843060000000  0.4533190000000  0.4450400000000 1.0
C      1  0.4681210000000  0.6000860000000  0.4610180000000 1.0
C      1  0.4053210000000  0.5117970000000  0.5497130000000 1.0
C      1  0.4640980000000  0.5803520000000  0.4404550000000 1.0
C      1  0.5309700000000  0.4638700000000  0.4965230000000 1.0
C      1  0.6035560000000  0.4701640000000  0.4567760000000 1.0
C      1  0.4648240000000  0.3582120000000  0.5629590000000 1.0
C      1  0.4948140000000  0.4214240000000  0.4456140000000 1.0
C      1  0.4822140000000  0.5138170000000  0.5067310000000 1.0
C      1  0.5227900000000  0.5646170000000  0.4163770000000 1.0
C      1  0.4007420000000  0.5441830000000  0.5032180000000 1.0
C      1  0.4854860000000  0.5601090000000  0.4488010000000 1.0
C      1  0.4178300000000  0.4495480000000  0.5108420000000 1.0
C      1  0.5573850000000  0.5528420000000  0.5283200000000 1.0
C      1  0.4004040000000  0.5218240000000  0.5211130000000 1.0
C      1  0.6135560000000  0.5333010000000  0.4933120000000 1.0
C      1  0.4136400000000  0.5534800000000  0.4787640000000 1.0
C      1  0.4908980000000  0.5719450000000  0.5204630000000 1.0
C      1  0.4891190000000  0.6183950000000  0.5063300000000 1.0
C      1  0.6045620000000  0.5534880000000  0.4742290000000 1.0
C      1  0.3989500000000  0.4482680000000  0.4894980000000 1.0
C      1  0.4570090000000  0.5765830000000  0.5857310000000 1.0
C      1  0.3929740000000  0.4671370000000  0.4700210000000 1.0
C      1  0.5697140000000  0.5400720000000  0.5069480000000 1.0
C      1  0.5060060000000  0.6204580000000  0.4819640000000 1.0
C      1  0.4878370000000  0.5678840000000  0.5509450000000 1.0
C      1  0.4612950000000  0.5250510000000  0.4261190000000 1.0
C      1  0.4619720000000  0.3089090000000  0.6163390000000 1.0
C      1  0.5134520000000  0.5228420000000  0.4513570000000 1.0
C      1  0.4565010000000  0.4968960000000  0.4228320000000 1.0
C      1  0.4161800000000  0.4628770000000  0.5685760000000 1.0
C      1  0.4936100000000  0.3160660000000  0.4960330000000 1.0
C      1  0.4466380000000  0.4957600000000  0.5290980000000 1.0
C      1  0.4955830000000  0.5190160000000  0.6017480000000 1.0
C      1  0.5107230000000  0.5576890000000  0.5663260000000 1.0
C      1  0.6193100000000  0.5077630000000  0.4816720000000 1.0
C      1  0.4633240000000  0.4622250000000  0.5570140000000 1.0
C      1  0.5415830000000  0.6071820000000  0.5531090000000 1.0
C      1  0.4418020000000  0.4502050000000  0.5724020000000 1.0
C      1  0.4484240000000  0.4060920000000  0.6024790000000 1.0
C      1  0.4205510000000  0.4172340000000  0.4434900000000 1.0
C      1  0.4601360000000  0.5007080000000  0.4673690000000 1.0
C      1  0.3982140000000  0.4944010000000  0.4778930000000 1.0
C      1  0.4922830000000  0.4721730000000  0.4494090000000 1.0
C      1  0.5810270000000  0.5423850000000  0.5692230000000 1.0
C      1  0.5130850000000  0.5531230000000  0.5149690000000 1.0
C      1  0.4184130000000  0.5353800000000  0.4554380000000 1.0
C      1  0.5327240000000  0.5394400000000  0.4698680000000 1.0
C      1  0.5487790000000  0.5518380000000  0.4188340000000 1.0
C      1  0.4348450000000  0.5701750000000  0.5308520000000 1.0
C      1  0.6056110000000  0.4412940000000  0.5012420000000 1.0
C      1  0.5383550000000  0.5998630000000  0.5802080000000 1.0
C      1  0.5403890000000  0.4689220000000  0.5226140000000 1.0
C      1  0.4081900000000  0.4122110000000  0.5393960000000 1.0
C      1  0.5268940000000  0.5343720000000  0.5595490000000 1.0
C      1  0.5584050000000  0.4116540000000  0.4549840000000 1.0
C      1  0.4919930000000  0.4862270000000  0.5020170000000 1.0
C      1  0.4064230000000  0.5094450000000  0.4544580000000 1.0
C      1  0.5570140000000  0.5355040000000  0.5524710000000 1.0
C      1  0.6204930000000  0.4846580000000  0.4982240000000 1.0
C      1  0.5070710000000  0.4456880000000  0.4582570000000 1.0
C      1  0.5779390000000  0.4466930000000  0.3583530000000 1.0
C      1  0.6057400000000  0.4816990000000  0.5231120000000 1.0
C      1  0.5219300000000  0.5218340000000  0.6081650000000 1.0
C      1  0.5897320000000  0.5035650000000  0.5304780000000 1.0
C      1  0.5482840000000  0.5288340000000  0.6072960000000 1.0
C      1  0.6075590000000  0.4996570000000  0.4554840000000 1.0
C      1  0.4455540000000  0.4297820000000  0.5908910000000 1.0
C      1  0.4251330000000  0.5216720000000  0.5684630000000 1.0
C      1  0.5469470000000  0.5936320000000  0.4776610000000 1.0
C      1  0.4067420000000  0.4815930000000  0.5492400000000 1.0
C      1  0.4595450000000  0.3560810000000  0.5904040000000 1.0
C      1  0.5626060000000  0.5020330000000  0.4794370000000 1.0
C      1  0.5494160000000  0.6137250000000  0.6008420000000 1.0
C      1  0.5369240000000  0.4814040000000  0.4380700000000 1.0
C      1  0.5176420000000  0.4876230000000  0.4857740000000 1.0
C      1  0.3991410000000  0.4637640000000  0.4421890000000 1.0
C      1  0.4668490000000  0.3743510000000  0.5419360000000 1.0
C      1  0.5124450000000  0.5779380000000  0.4462460000000 1.0
C      1  0.5057720000000  0.5261460000000  0.5194010000000 1.0
C      1  0.4544260000000  0.5911080000000  0.4872990000000 1.0
C      1  0.4337110000000  0.4045240000000  0.4628290000000 1.0
C      1  0.4503680000000  0.5947090000000  0.5372810000000 1.0
C      1  0.4745170000000  0.5215930000000  0.4792960000000 1.0
C      1  0.4587530000000  0.4901050000000  0.5548240000000 1.0
C      1  0.5486480000000  0.4954100000000  0.4159620000000 1.0
C      1  0.4872910000000  0.4579560000000  0.5092740000000 1.0
C      1  0.5958720000000  0.5213300000000  0.4409780000000 1.0
C      1  0.4817910000000  0.4208330000000  0.5395200000000 1.0
C      1  0.4607990000000  0.3317230000000  0.6037940000000 1.0
END
