TITL C-627113-6568-139 0.00372459211117183 125000 -675.177736133717 0 0 112 (C1) n - 1
REM
REM in /home/nfs/bkarasulu/CARBON/AIRSS/Generating-Clusters/LCBOP/Only-C1/SD-CG/FIRE-CG
REM
REM
REM
REM
REM
REM ./C.cell (11c1c37f851c82e70ff6c80c92926a4b)
REM AIRSS Version 0.9.1 bugfix July 2018 build 013d7b7c2542+ Fri, 06 Jul 2018 19:26:36 +0100
REM compiler GCC version 9.2.1 20190827 (Red Hat 9.2.1-1)
REM options -cpp -mtune=generic -march=x86-64 -g -O0 -fpre-include=/usr/include/finclude/math-vector-fortran.h
REM seed 603438569 -994814461 -32491108 -1483333483 -634252071 -1211016378 -980394239 525066000 569361271 927951104 1641485321 -785041400 -1462327146 1191248458 419839308 974482820 -204743800 -170509490 -537574799 -1920895314 -694623471 1360836345 -1762358424 875203247 -116451711 1696182621 -165490937 -332425247 563512365 914740028 823547538 354119228 63106564
REM
CELL 1.54180   50.00000   50.00000   50.00000   90.00000   90.00000   90.00000
LATT -1
SFAC C  
C      1  0.4952480000000  0.5981430000000  0.4833130000000 1.0
C      1  0.5090980000000  0.4712500000000  0.5350010000000 1.0
C      1  0.4799010000000  0.4019760000000  0.4645100000000 1.0
C      1  0.4472320000000  0.4110260000000  0.5153300000000 1.0
C      1  0.4030620000000  0.4590790000000  0.4765840000000 1.0
C      1  0.4330180000000  0.5713800000000  0.4201240000000 1.0
C      1  0.5165490000000  0.4925060000000  0.5520550000000 1.0
C      1  0.4680360000000  0.4862050000000  0.5868630000000 1.0
C      1  0.4629240000000  0.4849720000000  0.5102580000000 1.0
C      1  0.5306150000000  0.5900140000000  0.5326810000000 1.0
C      1  0.5138790000000  0.4552490000000  0.4024400000000 1.0
C      1  0.5064540000000  0.4228330000000  0.5205550000000 1.0
C      1  0.5250790000000  0.5405500000000  0.6192610000000 1.0
C      1  0.4987780000000  0.5140890000000  0.5542920000000 1.0
C      1  0.4468740000000  0.4517710000000  0.4649520000000 1.0
C      1  0.5139390000000  0.5314150000000  0.4043780000000 1.0
C      1  0.5245510000000  0.4565540000000  0.5989630000000 1.0
C      1  0.4936730000000  0.4483730000000  0.4642900000000 1.0
C      1  0.5262140000000  0.5474800000000  0.5138500000000 1.0
C      1  0.4652260000000  0.4609780000000  0.5736440000000 1.0
C      1  0.4957170000000  0.5065080000000  0.4028360000000 1.0
C      1  0.4681630000000  0.5833120000000  0.5748750000000 1.0
C      1  0.4346280000000  0.4155670000000  0.4879650000000 1.0
C      1  0.4706660000000  0.4519950000000  0.4786680000000 1.0
C      1  0.4109270000000  0.4863840000000  0.4656970000000 1.0
C      1  0.3962820000000  0.4892410000000  0.5123870000000 1.0
C      1  0.5626540000000  0.4759290000000  0.4519680000000 1.0
C      1  0.4553690000000  0.5718410000000  0.4913470000000 1.0
C      1  0.4276250000000  0.4939020000000  0.4438500000000 1.0
C      1  0.4729450000000  0.5442360000000  0.4235850000000 1.0
C      1  0.5103160000000  0.4706620000000  0.4653880000000 1.0
C      1  0.5227980000000  0.4816960000000  0.4880620000000 1.0
C      1  0.5477100000000  0.4946050000000  0.4908300000000 1.0
C      1  0.6129840000000  0.5417380000000  0.4524890000000 1.0
C      1  0.6247150000000  0.5382660000000  0.5089040000000 1.0
C      1  0.4513220000000  0.4255750000000  0.5416130000000 1.0
C      1  0.4694240000000  0.5979660000000  0.5523810000000 1.0
C      1  0.6495800000000  0.5396610000000  0.5179440000000 1.0
C      1  0.5671630000000  0.5288070000000  0.4625140000000 1.0
C      1  0.4972180000000  0.4506600000000  0.5197800000000 1.0
C      1  0.4237600000000  0.4400560000000  0.4764780000000 1.0
C      1  0.3885410000000  0.4637720000000  0.5010090000000 1.0
C      1  0.5597890000000  0.5014640000000  0.4659560000000 1.0
C      1  0.5244880000000  0.4344190000000  0.4160690000000 1.0
C      1  0.5365850000000  0.4804780000000  0.5942580000000 1.0
C      1  0.4144670000000  0.5813780000000  0.4047920000000 1.0
C      1  0.4704220000000  0.6025950000000  0.5259540000000 1.0
C      1  0.4678370000000  0.3903110000000  0.5095880000000 1.0
C      1  0.4624890000000  0.5583290000000  0.5870230000000 1.0
C      1  0.5370670000000  0.4070200000000  0.4848840000000 1.0
C      1  0.4864640000000  0.5270300000000  0.4921530000000 1.0
C      1  0.5936100000000  0.5359300000000  0.4708860000000 1.0
C      1  0.5142890000000  0.5989530000000  0.4215450000000 1.0
C      1  0.5005740000000  0.5527460000000  0.4187710000000 1.0
C      1  0.5129850000000  0.4057260000000  0.4990990000000 1.0
C      1  0.4479740000000  0.5012140000000  0.4273910000000 1.0
C      1  0.5606290000000  0.4729340000000  0.5534130000000 1.0
C      1  0.5654510000000  0.4814220000000  0.5079350000000 1.0
C      1  0.5621330000000  0.4773820000000  0.4232320000000 1.0
C      1  0.5281240000000  0.5697960000000  0.4579060000000 1.0
C      1  0.5986950000000  0.5366620000000  0.4990140000000 1.0
C      1  0.5428040000000  0.4933680000000  0.4089790000000 1.0
C      1  0.5075040000000  0.4895390000000  0.4455680000000 1.0
C      1  0.4568390000000  0.5397350000000  0.5356000000000 1.0
C      1  0.4742430000000  0.4598530000000  0.5052060000000 1.0
C      1  0.4049450000000  0.5039210000000  0.4885460000000 1.0
C      1  0.5587040000000  0.4480280000000  0.4725860000000 1.0
C      1  0.4958590000000  0.5318270000000  0.4669870000000 1.0
C      1  0.4973720000000  0.4223220000000  0.4531540000000 1.0
C      1  0.5768100000000  0.5354110000000  0.5165630000000 1.0
C      1  0.4855220000000  0.4397240000000  0.5741450000000 1.0
C      1  0.5504830000000  0.5355330000000  0.5208410000000 1.0
C      1  0.4440640000000  0.4517050000000  0.5543340000000 1.0
C      1  0.5194970000000  0.5834380000000  0.4823140000000 1.0
C      1  0.4217990000000  0.4672860000000  0.5477070000000 1.0
C      1  0.4163850000000  0.5148930000000  0.5484510000000 1.0
C      1  0.5393500000000  0.5329190000000  0.6396890000000 1.0
C      1  0.5202120000000  0.5675700000000  0.5791550000000 1.0
C      1  0.5487240000000  0.5500540000000  0.4583530000000 1.0
C      1  0.5243000000000  0.4233660000000  0.4420450000000 1.0
C      1  0.5273700000000  0.5834340000000  0.5587060000000 1.0
C      1  0.4758740000000  0.4182800000000  0.5571160000000 1.0
C      1  0.4893230000000  0.3924590000000  0.4901110000000 1.0
C      1  0.4752840000000  0.5110460000000  0.5955990000000 1.0
C      1  0.5410810000000  0.5219140000000  0.4052920000000 1.0
C      1  0.4508650000000  0.4025220000000  0.4662500000000 1.0
C      1  0.5440570000000  0.4249320000000  0.4637730000000 1.0
C      1  0.5153960000000  0.4834650000000  0.4020740000000 1.0
C      1  0.6740850000000  0.5410420000000  0.5267300000000 1.0
C      1  0.4970270000000  0.4074510000000  0.5425850000000 1.0
C      1  0.5000140000000  0.5371790000000  0.5144070000000 1.0
C      1  0.5140890000000  0.5738480000000  0.4327400000000 1.0
C      1  0.5281890000000  0.5754290000000  0.5085140000000 1.0
C      1  0.4529160000000  0.5600680000000  0.4362800000000 1.0
C      1  0.5406280000000  0.4881270000000  0.5671980000000 1.0
C      1  0.5067100000000  0.5157350000000  0.4491990000000 1.0
C      1  0.4518920000000  0.5651510000000  0.4641270000000 1.0
C      1  0.4093920000000  0.4903350000000  0.5372690000000 1.0
C      1  0.5350470000000  0.4346480000000  0.5561240000000 1.0
C      1  0.5093810000000  0.5490250000000  0.5977490000000 1.0
C      1  0.4381060000000  0.5466250000000  0.5789170000000 1.0
C      1  0.4721070000000  0.5938930000000  0.4990340000000 1.0
C      1  0.5811900000000  0.4637350000000  0.4089390000000 1.0
C      1  0.4486950000000  0.5544710000000  0.5125920000000 1.0
C      1  0.5544350000000  0.4484070000000  0.5378090000000 1.0
C      1  0.4665330000000  0.5080360000000  0.4972670000000 1.0
C      1  0.4850520000000  0.5325070000000  0.5381630000000 1.0
C      1  0.4361930000000  0.5334180000000  0.5542590000000 1.0
C      1  0.4824510000000  0.5392600000000  0.5953710000000 1.0
C      1  0.5146700000000  0.4405740000000  0.5774490000000 1.0
C      1  0.5616630000000  0.4529650000000  0.5084610000000 1.0
C      1  0.4699380000000  0.5155150000000  0.4158910000000 1.0
END
