TITL C-627110-360-772 18139.1936822082 125000 -601.88735432349 0 0 102 (C1) n - 1
REM
REM in /home/nfs/bkarasulu/CARBON/AIRSS/Generating-Clusters/LCBOP/Only-C1/SD-CG/FIRE-CG
REM
REM
REM
REM
REM
REM ./C.cell (11c1c37f851c82e70ff6c80c92926a4b)
REM AIRSS Version 0.9.1 bugfix July 2018 build 013d7b7c2542+ Fri, 06 Jul 2018 19:26:36 +0100
REM compiler GCC version 9.2.1 20190827 (Red Hat 9.2.1-1)
REM options -cpp -mtune=generic -march=x86-64 -g -O0 -fpre-include=/usr/include/finclude/math-vector-fortran.h
REM seed 1344968787 -1417576490 222695660 -978927178 -397268029 735686513 -101567324 791091210 -1282683573 -1987539300 412214412 -397586067 1412274408 465473933 2068004922 941264281 -367823348 708494994 242904747 6358559 1762934873 1733200069 -1269515905 502326904 -825985011 -1027823305 199769267 1255157689 123114889 247760285 -1148373764 -267473171 -425398888
REM
CELL 1.54180   50.00000   50.00000   50.00000   90.00000   90.00000   90.00000
LATT -1
SFAC C  
C      1  0.5716890000000  0.4248030000000  0.4656700000000 1.0
C      1  0.4805180000000  0.5230230000000  0.4530610000000 1.0
C      1  0.4425550000000  0.4856460000000  0.5524590000000 1.0
C      1  0.5086470000000  0.5612230000000  0.5438160000000 1.0
C      1  0.5177270000000  0.5413730000000  0.5645610000000 1.0
C      1  0.5217710000000  0.4171980000000  0.4476390000000 1.0
C      1  0.5291960000000  0.4329320000000  0.5194930000000 1.0
C      1  0.4571940000000  0.4736700000000  0.5738820000000 1.0
C      1  0.5158990000000  0.5003430000000  0.6123070000000 1.0
C      1  0.4658560000000  0.4922400000000  0.5943570000000 1.0
C      1  0.5370130000000  0.5076560000000  0.5960820000000 1.0
C      1  0.5072340000000  0.4149700000000  0.5192100000000 1.0
C      1  0.5175800000000  0.4928750000000  0.4304200000000 1.0
C      1  0.5073590000000  0.4707070000000  0.5400840000000 1.0
C      1  0.4838130000000  0.5690640000000  0.5051830000000 1.0
C      1  0.5244260000000  0.5646200000000  0.4548910000000 1.0
C      1  0.4584650000000  0.5312610000000  0.4688960000000 1.0
C      1  0.4247940000000  0.4677620000000  0.4555020000000 1.0
C      1  0.4023070000000  0.4974940000000  0.4953360000000 1.0
C      1  0.5395850000000  0.4707720000000  0.4711850000000 1.0
C      1  0.5738090000000  0.5177030000000  0.5284200000000 1.0
C      1  0.5735140000000  0.4963160000000  0.4527140000000 1.0
C      1  0.4624080000000  0.5128610000000  0.5162740000000 1.0
C      1  0.4970790000000  0.4746310000000  0.4898990000000 1.0
C      1  0.4858430000000  0.4447700000000  0.4192340000000 1.0
C      1  0.5532270000000  0.5816910000000  0.4915700000000 1.0
C      1  0.5080320000000  0.5493620000000  0.5898360000000 1.0
C      1  0.4508190000000  0.5249540000000  0.4937090000000 1.0
C      1  0.4026310000000  0.5484430000000  0.5050310000000 1.0
C      1  0.4523980000000  0.5174200000000  0.5937700000000 1.0
C      1  0.4985530000000  0.4772960000000  0.4462010000000 1.0
C      1  0.5179470000000  0.4597290000000  0.5834890000000 1.0
C      1  0.5534530000000  0.5009580000000  0.5388530000000 1.0
C      1  0.4028860000000  0.5203060000000  0.5128420000000 1.0
C      1  0.4083520000000  0.4781060000000  0.4768430000000 1.0
C      1  0.5186860000000  0.5432790000000  0.4732410000000 1.0
C      1  0.4375980000000  0.4428490000000  0.4459780000000 1.0
C      1  0.5766320000000  0.5276220000000  0.4147200000000 1.0
C      1  0.5451780000000  0.4820590000000  0.5190300000000 1.0
C      1  0.5696140000000  0.5463140000000  0.4594220000000 1.0
C      1  0.4726920000000  0.5716710000000  0.5489560000000 1.0
C      1  0.5155390000000  0.4381970000000  0.4275320000000 1.0
C      1  0.4543760000000  0.5588060000000  0.4233660000000 1.0
C      1  0.5293940000000  0.4598670000000  0.5260700000000 1.0
C      1  0.4682960000000  0.4312890000000  0.5451040000000 1.0
C      1  0.5057560000000  0.4103620000000  0.5685180000000 1.0
C      1  0.4688870000000  0.5844980000000  0.5242240000000 1.0
C      1  0.5035310000000  0.5729060000000  0.4378500000000 1.0
C      1  0.5406440000000  0.4565690000000  0.4261640000000 1.0
C      1  0.4373480000000  0.5376050000000  0.4245890000000 1.0
C      1  0.5266530000000  0.5454920000000  0.5006570000000 1.0
C      1  0.5039640000000  0.5200860000000  0.4694600000000 1.0
C      1  0.5105040000000  0.5004310000000  0.4899060000000 1.0
C      1  0.6230710000000  0.4671700000000  0.4988630000000 1.0
C      1  0.5671000000000  0.5458420000000  0.5313940000000 1.0
C      1  0.4530440000000  0.4880130000000  0.5261870000000 1.0
C      1  0.5545150000000  0.4739720000000  0.4466200000000 1.0
C      1  0.4826480000000  0.5535450000000  0.5979130000000 1.0
C      1  0.4163850000000  0.5644400000000  0.5232180000000 1.0
C      1  0.5093830000000  0.3849350000000  0.5778090000000 1.0
C      1  0.4690760000000  0.4799050000000  0.4558740000000 1.0
C      1  0.5151490000000  0.4329470000000  0.5828430000000 1.0
C      1  0.5318860000000  0.5084610000000  0.5654740000000 1.0
C      1  0.5134500000000  0.5001560000000  0.4032910000000 1.0
C      1  0.4871180000000  0.5236300000000  0.5236270000000 1.0
C      1  0.4844730000000  0.4970610000000  0.4026470000000 1.0
C      1  0.4560300000000  0.6078020000000  0.5192380000000 1.0
C      1  0.5039520000000  0.4073060000000  0.4673040000000 1.0
C      1  0.4773580000000  0.5151230000000  0.4249610000000 1.0
C      1  0.5520880000000  0.5714240000000  0.4622320000000 1.0
C      1  0.4630030000000  0.4464580000000  0.5688190000000 1.0
C      1  0.4694740000000  0.4719000000000  0.4847730000000 1.0
C      1  0.5727160000000  0.5235940000000  0.4415560000000 1.0
C      1  0.4189390000000  0.5000390000000  0.5564000000000 1.0
C      1  0.5028790000000  0.5480090000000  0.5176750000000 1.0
C      1  0.5386250000000  0.4908360000000  0.4927880000000 1.0
C      1  0.5827670000000  0.5139450000000  0.4992490000000 1.0
C      1  0.4336450000000  0.5116960000000  0.4322410000000 1.0
C      1  0.5878000000000  0.4434610000000  0.4762010000000 1.0
C      1  0.5139970000000  0.4810370000000  0.5648500000000 1.0
C      1  0.5994650000000  0.4677680000000  0.4849570000000 1.0
C      1  0.4615560000000  0.4357080000000  0.4336800000000 1.0
C      1  0.5384510000000  0.5960630000000  0.5124030000000 1.0
C      1  0.5553990000000  0.5542090000000  0.5053930000000 1.0
C      1  0.5741440000000  0.5388700000000  0.4868280000000 1.0
C      1  0.4998150000000  0.4051480000000  0.4938340000000 1.0
C      1  0.5495150000000  0.4147310000000  0.4543630000000 1.0
C      1  0.4900400000000  0.4922100000000  0.6095840000000 1.0
C      1  0.5120570000000  0.4628260000000  0.4681250000000 1.0
C      1  0.5301540000000  0.5073690000000  0.3834030000000 1.0
C      1  0.4796390000000  0.4683610000000  0.4024120000000 1.0
C      1  0.4519070000000  0.5554040000000  0.5604980000000 1.0
C      1  0.4588950000000  0.5436140000000  0.5858480000000 1.0
C      1  0.4783820000000  0.5705320000000  0.4280710000000 1.0
C      1  0.4920590000000  0.4153500000000  0.5436830000000 1.0
C      1  0.4138420000000  0.5225570000000  0.5407870000000 1.0
C      1  0.5870240000000  0.4929930000000  0.4793750000000 1.0
C      1  0.4560350000000  0.4404960000000  0.5211380000000 1.0
C      1  0.5251900000000  0.5860890000000  0.5348730000000 1.0
C      1  0.4430940000000  0.4882100000000  0.4454380000000 1.0
C      1  0.4276630000000  0.5489450000000  0.5453330000000 1.0
C      1  0.4552310000000  0.4657550000000  0.5084270000000 1.0
END
