TITL C-627106-156-559 0.000115156141418778 125000 -420.562772229394 0 0 71 (C1) n - 1
REM
REM in /home/nfs/bkarasulu/CARBON/AIRSS/Generating-Clusters/LCBOP/Only-C1/SD-CG/FIRE-CG
REM
REM
REM
REM
REM
REM ./C.cell (11c1c37f851c82e70ff6c80c92926a4b)
REM AIRSS Version 0.9.1 bugfix July 2018 build 013d7b7c2542+ Fri, 06 Jul 2018 19:26:36 +0100
REM compiler GCC version 9.2.1 20190827 (Red Hat 9.2.1-1)
REM options -cpp -mtune=generic -march=x86-64 -g -O0 -fpre-include=/usr/include/finclude/math-vector-fortran.h
REM seed -856997088 -1429595008 -895854590 201163846 -319666335 701045999 1273003988 1952060926 1074253986 -981463351 1217512568 1835895283 -1918980193 -1606487528 -149297108 444206983 1397943090 1388391279 2005777744 -1565632044 1473227454 -1973446561 1015045666 1804121547 302785916 -73408142 -318363188 -680853182 496509930 632299263 2067702366 -651901509 -1551932264
REM
CELL 1.54180   50.00000   50.00000   50.00000   90.00000   90.00000   90.00000
LATT -1
SFAC C  
C      1  0.4495430000000  0.5413540000000  0.5421970000000 1.0
C      1  0.4750750000000  0.4277770000000  0.5394350000000 1.0
C      1  0.4453600000000  0.4138530000000  0.4845930000000 1.0
C      1  0.4309350000000  0.4812850000000  0.5060110000000 1.0
C      1  0.5058950000000  0.4586950000000  0.5040080000000 1.0
C      1  0.4294020000000  0.5323760000000  0.4682650000000 1.0
C      1  0.5726300000000  0.4653120000000  0.5058640000000 1.0
C      1  0.4458340000000  0.4787750000000  0.4804430000000 1.0
C      1  0.5548250000000  0.4500490000000  0.4578740000000 1.0
C      1  0.4374360000000  0.4215760000000  0.5092100000000 1.0
C      1  0.4933030000000  0.5327570000000  0.4671610000000 1.0
C      1  0.5895310000000  0.5148510000000  0.5771350000000 1.0
C      1  0.4968340000000  0.5422170000000  0.5617610000000 1.0
C      1  0.5265550000000  0.4777170000000  0.5046450000000 1.0
C      1  0.6014950000000  0.4988840000000  0.5269830000000 1.0
C      1  0.6525530000000  0.4934530000000  0.5103590000000 1.0
C      1  0.5302170000000  0.4486850000000  0.4442810000000 1.0
C      1  0.4940280000000  0.4350820000000  0.5595530000000 1.0
C      1  0.4778750000000  0.5886480000000  0.5668800000000 1.0
C      1  0.4686990000000  0.4810890000000  0.5304790000000 1.0
C      1  0.5011480000000  0.4315030000000  0.4974620000000 1.0
C      1  0.4831540000000  0.4756410000000  0.5061890000000 1.0
C      1  0.4670890000000  0.4145260000000  0.4686360000000 1.0
C      1  0.4815730000000  0.5569000000000  0.4566460000000 1.0
C      1  0.4743360000000  0.4852730000000  0.4803020000000 1.0
C      1  0.4348940000000  0.5177290000000  0.4449120000000 1.0
C      1  0.4951360000000  0.5364280000000  0.4962190000000 1.0
C      1  0.4902910000000  0.4157810000000  0.5182300000000 1.0
C      1  0.4523310000000  0.5683200000000  0.5297320000000 1.0
C      1  0.5953930000000  0.5074330000000  0.5528510000000 1.0
C      1  0.5693220000000  0.4548440000000  0.4798240000000 1.0
C      1  0.5861770000000  0.5337730000000  0.4817880000000 1.0
C      1  0.5688210000000  0.5156220000000  0.4941970000000 1.0
C      1  0.4417310000000  0.5256340000000  0.4930440000000 1.0
C      1  0.3928880000000  0.5721650000000  0.4675060000000 1.0
C      1  0.4583730000000  0.5889790000000  0.5482720000000 1.0
C      1  0.4103440000000  0.5528160000000  0.4674250000000 1.0
C      1  0.4978900000000  0.5017100000000  0.4645320000000 1.0
C      1  0.5220590000000  0.5291590000000  0.5582500000000 1.0
C      1  0.4938580000000  0.4232410000000  0.4710890000000 1.0
C      1  0.4944840000000  0.5681720000000  0.5721560000000 1.0
C      1  0.4441550000000  0.4659950000000  0.5276360000000 1.0
C      1  0.5191900000000  0.4711380000000  0.4315480000000 1.0
C      1  0.5010040000000  0.4942110000000  0.4345930000000 1.0
C      1  0.5238380000000  0.5010700000000  0.5539610000000 1.0
C      1  0.5225070000000  0.5384180000000  0.5034900000000 1.0
C      1  0.5034290000000  0.5440740000000  0.4162960000000 1.0
C      1  0.5000950000000  0.4893490000000  0.5645670000000 1.0
C      1  0.5450500000000  0.4410510000000  0.5462050000000 1.0
C      1  0.4271090000000  0.5242260000000  0.5361840000000 1.0
C      1  0.4682690000000  0.5308520000000  0.5029980000000 1.0
C      1  0.4488780000000  0.4375690000000  0.5298970000000 1.0
C      1  0.4880030000000  0.5634810000000  0.4298270000000 1.0
C      1  0.4726480000000  0.4894550000000  0.4251240000000 1.0
C      1  0.5122200000000  0.4280130000000  0.4506690000000 1.0
C      1  0.4265100000000  0.5092910000000  0.5118000000000 1.0
C      1  0.4670880000000  0.5726290000000  0.4763480000000 1.0
C      1  0.6030260000000  0.5502810000000  0.4707120000000 1.0
C      1  0.4728980000000  0.5275230000000  0.5531290000000 1.0
C      1  0.5407080000000  0.5197710000000  0.4914520000000 1.0
C      1  0.5633240000000  0.4500220000000  0.5283380000000 1.0
C      1  0.5254410000000  0.4967820000000  0.4829030000000 1.0
C      1  0.6280720000000  0.4959020000000  0.5189480000000 1.0
C      1  0.5211870000000  0.4375870000000  0.5585180000000 1.0
C      1  0.5103930000000  0.5183120000000  0.4191050000000 1.0
C      1  0.4489980000000  0.5013470000000  0.4292850000000 1.0
C      1  0.5332300000000  0.4888660000000  0.5303880000000 1.0
C      1  0.4763480000000  0.4983010000000  0.5515120000000 1.0
C      1  0.5804430000000  0.4931180000000  0.5085940000000 1.0
C      1  0.4798820000000  0.5865950000000  0.4178970000000 1.0
C      1  0.4567410000000  0.5746850000000  0.5016810000000 1.0
END
