TITL C-627112-676-760 -433588.578201335 125000 -1202.38130794796 0 0 194 (C1) n - 1
REM
REM in /home/nfs/bkarasulu/CARBON/AIRSS/Generating-Clusters/LCBOP/Only-C1/SD-CG/FIRE-CG
REM
REM
REM
REM
REM
REM ./C.cell (11c1c37f851c82e70ff6c80c92926a4b)
REM AIRSS Version 0.9.1 bugfix July 2018 build 013d7b7c2542+ Fri, 06 Jul 2018 19:26:36 +0100
REM compiler GCC version 9.2.1 20190827 (Red Hat 9.2.1-1)
REM options -cpp -mtune=generic -march=x86-64 -g -O0 -fpre-include=/usr/include/finclude/math-vector-fortran.h
REM seed -82924184 -871332753 -693060863 -579430383 -1110869704 1474205098 1261147372 -562561985 -880049335 1073679369 1043286588 -464788781 139292325 -1138086547 1022815252 1158306780 1017212471 -1742350386 -448071458 -2140110524 827635849 -1387824619 -134601177 -1823451099 1071570990 -299766932 95155245 1531474701 -1017486348 -938564780 -570748570 174353087 830468274
REM
CELL 1.54180   50.00000   50.00000   50.00000   90.00000   90.00000   90.00000
LATT -1
SFAC C  
C      1  0.4381370000000  0.5163100000000  0.4243430000000 1.0
C      1  0.3764860000000  0.4567590000000  0.4648340000000 1.0
C      1  0.5454600000000  0.4772510000000  0.4062360000000 1.0
C      1  0.4339310000000  0.5447720000000  0.5100080000000 1.0
C      1  0.4328660000000  0.6119190000000  0.5249350000000 1.0
C      1  0.5345110000000  0.3831300000000  0.4753520000000 1.0
C      1  0.5659420000000  0.5766110000000  0.5948240000000 1.0
C      1  0.5587530000000  0.4230160000000  0.4684220000000 1.0
C      1  0.4036450000000  0.4648350000000  0.5589860000000 1.0
C      1  0.5428600000000  0.4757870000000  0.5966000000000 1.0
C      1  0.4982840000000  0.6138180000000  0.4848310000000 1.0
C      1  0.5246940000000  0.4675250000000  0.3877740000000 1.0
C      1  0.5895600000000  0.4070390000000  0.5122140000000 1.0
C      1  0.5360600000000  0.4778460000000  0.5684110000000 1.0
C      1  0.5148480000000  0.4579230000000  0.5616620000000 1.0
C      1  0.4770020000000  0.4697010000000  0.5963170000000 1.0
C      1  0.5665250000000  0.5083900000000  0.5078590000000 1.0
C      1  0.4606910000000  0.5334900000000  0.4156490000000 1.0
C      1  0.5585170000000  0.4563500000000  0.4556930000000 1.0
C      1  0.5471350000000  0.5863190000000  0.4382980000000 1.0
C      1  0.5149290000000  0.3890190000000  0.5652290000000 1.0
C      1  0.6017090000000  0.5410460000000  0.5470950000000 1.0
C      1  0.4456340000000  0.5696160000000  0.5766130000000 1.0
C      1  0.4682390000000  0.5775290000000  0.4862410000000 1.0
C      1  0.5076670000000  0.4351010000000  0.4714700000000 1.0
C      1  0.4249360000000  0.4083970000000  0.6444590000000 1.0
C      1  0.4612270000000  0.3845950000000  0.4365280000000 1.0
C      1  0.4405350000000  0.5690050000000  0.4427850000000 1.0
C      1  0.3834190000000  0.5673350000000  0.4766300000000 1.0
C      1  0.4655040000000  0.4775860000000  0.4784340000000 1.0
C      1  0.4404540000000  0.4853430000000  0.5290890000000 1.0
C      1  0.5456080000000  0.5771300000000  0.5268140000000 1.0
C      1  0.5817840000000  0.4404700000000  0.4196620000000 1.0
C      1  0.5084330000000  0.5403110000000  0.4012180000000 1.0
C      1  0.6131880000000  0.5531610000000  0.5223810000000 1.0
C      1  0.4591050000000  0.5886490000000  0.5591730000000 1.0
C      1  0.4954570000000  0.5854980000000  0.4818100000000 1.0
C      1  0.4839400000000  0.5303030000000  0.5150650000000 1.0
C      1  0.6401590000000  0.5146290000000  0.5112120000000 1.0
C      1  0.4844950000000  0.4994610000000  0.3832950000000 1.0
C      1  0.4857160000000  0.4358200000000  0.3970530000000 1.0
C      1  0.4307280000000  0.4536770000000  0.4436590000000 1.0
C      1  0.4291130000000  0.5485720000000  0.5660920000000 1.0
C      1  0.4038010000000  0.4248840000000  0.5261700000000 1.0
C      1  0.5656970000000  0.5031890000000  0.4799780000000 1.0
C      1  0.5698240000000  0.4913390000000  0.5307950000000 1.0
C      1  0.5126840000000  0.5851040000000  0.3817170000000 1.0
C      1  0.4615540000000  0.3781660000000  0.4881600000000 1.0
C      1  0.4662970000000  0.4448560000000  0.5296480000000 1.0
C      1  0.5546760000000  0.4577650000000  0.5008580000000 1.0
C      1  0.5604980000000  0.6210250000000  0.4916580000000 1.0
C      1  0.4964290000000  0.6238500000000  0.5133340000000 1.0
C      1  0.4474910000000  0.5057880000000  0.5877050000000 1.0
C      1  0.4879170000000  0.6043920000000  0.4352900000000 1.0
C      1  0.5582170000000  0.5524360000000  0.5296520000000 1.0
C      1  0.5589960000000  0.5467020000000  0.4072260000000 1.0
C      1  0.4816240000000  0.6483330000000  0.5151600000000 1.0
C      1  0.5303400000000  0.6146210000000  0.5501110000000 1.0
C      1  0.4084140000000  0.5564050000000  0.5487460000000 1.0
C      1  0.4174700000000  0.5232540000000  0.4723580000000 1.0
C      1  0.6122260000000  0.5144420000000  0.5557290000000 1.0
C      1  0.5125810000000  0.4503660000000  0.4479960000000 1.0
C      1  0.4254630000000  0.4134440000000  0.5422720000000 1.0
C      1  0.5110790000000  0.5420110000000  0.4700050000000 1.0
C      1  0.5273300000000  0.4368810000000  0.4243480000000 1.0
C      1  0.4893890000000  0.5328120000000  0.4853480000000 1.0
C      1  0.4385590000000  0.5210790000000  0.5655420000000 1.0
C      1  0.5216980000000  0.4433330000000  0.5382200000000 1.0
C      1  0.4596670000000  0.4508530000000  0.4824740000000 1.0
C      1  0.4266580000000  0.4164640000000  0.4838110000000 1.0
C      1  0.5928560000000  0.5588290000000  0.4718650000000 1.0
C      1  0.4423620000000  0.3972170000000  0.4983310000000 1.0
C      1  0.4734660000000  0.4387090000000  0.5035520000000 1.0
C      1  0.4696880000000  0.3832350000000  0.5359820000000 1.0
C      1  0.4341920000000  0.6381780000000  0.5196420000000 1.0
C      1  0.4504020000000  0.5914520000000  0.5323400000000 1.0
C      1  0.5255170000000  0.5543610000000  0.6139210000000 1.0
C      1  0.4314640000000  0.5055000000000  0.4522870000000 1.0
C      1  0.4936130000000  0.6216110000000  0.4566890000000 1.0
C      1  0.4609270000000  0.4306150000000  0.4098400000000 1.0
C      1  0.4480370000000  0.5655680000000  0.4699890000000 1.0
C      1  0.6600970000000  0.5024890000000  0.4971350000000 1.0
C      1  0.4311560000000  0.4261330000000  0.5681170000000 1.0
C      1  0.5001750000000  0.4553200000000  0.5877840000000 1.0
C      1  0.4332340000000  0.4571290000000  0.5675610000000 1.0
C      1  0.5395910000000  0.3977500000000  0.5525520000000 1.0
C      1  0.4161410000000  0.4786250000000  0.4488590000000 1.0
C      1  0.3823220000000  0.5070620000000  0.5401440000000 1.0
C      1  0.5138470000000  0.4217030000000  0.5205890000000 1.0
C      1  0.4123740000000  0.5672260000000  0.4377900000000 1.0
C      1  0.5420820000000  0.5837940000000  0.4660170000000 1.0
C      1  0.5226520000000  0.5007090000000  0.4414380000000 1.0
C      1  0.4408990000000  0.4747510000000  0.3982920000000 1.0
C      1  0.6018700000000  0.4925550000000  0.5739410000000 1.0
C      1  0.4186070000000  0.4126660000000  0.6693980000000 1.0
C      1  0.5981040000000  0.4418130000000  0.4690450000000 1.0
C      1  0.4622410000000  0.4819970000000  0.3812690000000 1.0
C      1  0.4609130000000  0.5616160000000  0.4243920000000 1.0
C      1  0.4807640000000  0.4814740000000  0.4322770000000 1.0
C      1  0.4670890000000  0.5768580000000  0.5148910000000 1.0
C      1  0.3771490000000  0.5316590000000  0.4428870000000 1.0
C      1  0.5992350000000  0.4845600000000  0.4520540000000 1.0
C      1  0.5538460000000  0.5730050000000  0.4161830000000 1.0
C      1  0.5030580000000  0.5688840000000  0.4016470000000 1.0
C      1  0.5951620000000  0.4660740000000  0.5617940000000 1.0
C      1  0.4266240000000  0.4982500000000  0.4052590000000 1.0
C      1  0.4891410000000  0.3854780000000  0.5566140000000 1.0
C      1  0.4838020000000  0.5792310000000  0.4206050000000 1.0
C      1  0.5675310000000  0.5779130000000  0.5669180000000 1.0
C      1  0.5888010000000  0.4974060000000  0.5984800000000 1.0
C      1  0.5984420000000  0.4526620000000  0.5173040000000 1.0
C      1  0.5358590000000  0.5292490000000  0.4051150000000 1.0
C      1  0.5548000000000  0.4535070000000  0.4245480000000 1.0
C      1  0.5225450000000  0.4582550000000  0.6069810000000 1.0
C      1  0.5088010000000  0.4872060000000  0.3753460000000 1.0
C      1  0.4567610000000  0.4994340000000  0.4665800000000 1.0
C      1  0.5711700000000  0.5460550000000  0.4601680000000 1.0
C      1  0.5054440000000  0.4779700000000  0.4433460000000 1.0
C      1  0.4647060000000  0.3744960000000  0.4609020000000 1.0
C      1  0.5277620000000  0.5225400000000  0.4587230000000 1.0
C      1  0.6208140000000  0.5282120000000  0.4490060000000 1.0
C      1  0.5649360000000  0.4887710000000  0.6073390000000 1.0
C      1  0.3954060000000  0.5164360000000  0.4897850000000 1.0
C      1  0.5476260000000  0.4494390000000  0.5274440000000 1.0
C      1  0.4106160000000  0.5577550000000  0.5209400000000 1.0
C      1  0.4838240000000  0.4937940000000  0.6119970000000 1.0
C      1  0.5102090000000  0.4875180000000  0.5033800000000 1.0
C      1  0.5010390000000  0.5785860000000  0.5801380000000 1.0
C      1  0.5910120000000  0.4735220000000  0.5346250000000 1.0
C      1  0.6021790000000  0.5782060000000  0.5131920000000 1.0
C      1  0.5048980000000  0.5089010000000  0.5220840000000 1.0
C      1  0.5312800000000  0.4734790000000  0.4932510000000 1.0
C      1  0.5452210000000  0.3904740000000  0.5010820000000 1.0
C      1  0.6333490000000  0.5065990000000  0.5376910000000 1.0
C      1  0.4336130000000  0.5445280000000  0.4821650000000 1.0
C      1  0.4425010000000  0.4517960000000  0.4165490000000 1.0
C      1  0.5628620000000  0.4133180000000  0.5624950000000 1.0
C      1  0.6165660000000  0.5426470000000  0.4738060000000 1.0
C      1  0.3910670000000  0.4905110000000  0.5599850000000 1.0
C      1  0.5291310000000  0.5150630000000  0.5356640000000 1.0
C      1  0.4490870000000  0.4622710000000  0.5422220000000 1.0
C      1  0.5547900000000  0.5247160000000  0.4654860000000 1.0
C      1  0.5766760000000  0.5537590000000  0.5522740000000 1.0
C      1  0.6252520000000  0.5369200000000  0.5012560000000 1.0
C      1  0.5972940000000  0.4270180000000  0.5306600000000 1.0
C      1  0.4492440000000  0.4754080000000  0.5868040000000 1.0
C      1  0.5731860000000  0.4812680000000  0.4628370000000 1.0
C      1  0.4386820000000  0.4380710000000  0.4677890000000 1.0
C      1  0.5488870000000  0.5288490000000  0.5191880000000 1.0
C      1  0.5868640000000  0.5802580000000  0.4892880000000 1.0
C      1  0.3753450000000  0.5045210000000  0.4445440000000 1.0
C      1  0.3831890000000  0.5141930000000  0.5139690000000 1.0
C      1  0.5502790000000  0.5644780000000  0.6128270000000 1.0
C      1  0.5460260000000  0.4946010000000  0.5483890000000 1.0
C      1  0.4299380000000  0.4075360000000  0.6184170000000 1.0
C      1  0.5422770000000  0.4019640000000  0.4551890000000 1.0
C      1  0.5984040000000  0.4363280000000  0.4418600000000 1.0
C      1  0.4873590000000  0.5951620000000  0.5611900000000 1.0
C      1  0.4766010000000  0.5448630000000  0.6054580000000 1.0
C      1  0.5862300000000  0.5386900000000  0.4097320000000 1.0
C      1  0.5174640000000  0.5699280000000  0.4730210000000 1.0
C      1  0.5319340000000  0.3996200000000  0.5240860000000 1.0
C      1  0.6208740000000  0.5001650000000  0.4506340000000 1.0
C      1  0.3874370000000  0.4794830000000  0.4516200000000 1.0
C      1  0.5029230000000  0.6116840000000  0.5410130000000 1.0
C      1  0.5320380000000  0.4084300000000  0.4300910000000 1.0
C      1  0.5495380000000  0.5942030000000  0.5496860000000 1.0
C      1  0.4453270000000  0.5103020000000  0.5400540000000 1.0
C      1  0.3918750000000  0.5682470000000  0.5023070000000 1.0
C      1  0.4766030000000  0.3692900000000  0.5110130000000 1.0
C      1  0.4840400000000  0.5237580000000  0.3995690000000 1.0
C      1  0.5127090000000  0.4437050000000  0.3987550000000 1.0
C      1  0.5017160000000  0.5574330000000  0.5995790000000 1.0
C      1  0.4015770000000  0.4220700000000  0.4967460000000 1.0
C      1  0.4554510000000  0.6543180000000  0.5164120000000 1.0
C      1  0.3958970000000  0.4509740000000  0.5342950000000 1.0
C      1  0.5836990000000  0.4519980000000  0.4929390000000 1.0
C      1  0.6087780000000  0.5377800000000  0.4247090000000 1.0
C      1  0.4553750000000  0.5635210000000  0.6023290000000 1.0
C      1  0.5681710000000  0.4076000000000  0.4935940000000 1.0
C      1  0.3819710000000  0.4354360000000  0.4807130000000 1.0
C      1  0.3980620000000  0.4688350000000  0.5122730000000 1.0
C      1  0.4693060000000  0.5172590000000  0.6043760000000 1.0
C      1  0.4543650000000  0.5281690000000  0.5210580000000 1.0
C      1  0.4214190000000  0.4818580000000  0.5088360000000 1.0
C      1  0.5378400000000  0.5028350000000  0.4169380000000 1.0
C      1  0.4570130000000  0.4046040000000  0.4195360000000 1.0
C      1  0.4448470000000  0.3978770000000  0.5282030000000 1.0
C      1  0.4873720000000  0.5586250000000  0.5251680000000 1.0
C      1  0.4989170000000  0.4286580000000  0.4976200000000 1.0
C      1  0.3887210000000  0.5569070000000  0.4504770000000 1.0
C      1  0.5861580000000  0.4307780000000  0.5575390000000 1.0
C      1  0.4323300000000  0.4126810000000  0.5925050000000 1.0
C      1  0.5627150000000  0.5949240000000  0.4833550000000 1.0
END
