TITL C-627110-360-2044 1.90168689040564 125000 -754.498098547305 0 0 126 (C1) n - 1
REM
REM in /home/nfs/bkarasulu/CARBON/AIRSS/Generating-Clusters/LCBOP/Only-C1/SD-CG/FIRE-CG
REM
REM
REM
REM
REM
REM ./C.cell (11c1c37f851c82e70ff6c80c92926a4b)
REM AIRSS Version 0.9.1 bugfix July 2018 build 013d7b7c2542+ Fri, 06 Jul 2018 19:26:36 +0100
REM compiler GCC version 9.2.1 20190827 (Red Hat 9.2.1-1)
REM options -cpp -mtune=generic -march=x86-64 -g -O0 -fpre-include=/usr/include/finclude/math-vector-fortran.h
REM seed 1418769136 222763010 792205754 -1869779383 1983221378 -1273230970 406025038 -95959756 -258159309 953493907 -1256658779 1976642461 -929769568 -574057389 186923892 1767486402 -902954417 289945867 141324887 -597945166 -2006965090 -408505538 938495130 -1051587176 -416402030 1029487304 -2044100904 1101503060 506615081 989077058 -425565989 379430756 270329936
REM
CELL 1.54180   50.00000   50.00000   50.00000   90.00000   90.00000   90.00000
LATT -1
SFAC C  
C      1  0.4733830000000  0.4128820000000  0.5750340000000 1.0
C      1  0.4623870000000  0.5385980000000  0.5813860000000 1.0
C      1  0.5660590000000  0.6435730000000  0.5996380000000 1.0
C      1  0.5122260000000  0.5902400000000  0.5803350000000 1.0
C      1  0.4594950000000  0.5588850000000  0.4339670000000 1.0
C      1  0.5172980000000  0.4825840000000  0.4412820000000 1.0
C      1  0.4669220000000  0.5546580000000  0.4611740000000 1.0
C      1  0.4161470000000  0.4239060000000  0.4099050000000 1.0
C      1  0.4191050000000  0.4581970000000  0.5066460000000 1.0
C      1  0.4008080000000  0.4228330000000  0.3878100000000 1.0
C      1  0.4371350000000  0.4958860000000  0.6338280000000 1.0
C      1  0.5694660000000  0.4835500000000  0.5227960000000 1.0
C      1  0.5006360000000  0.4055460000000  0.5746030000000 1.0
C      1  0.4058030000000  0.4946000000000  0.5965000000000 1.0
C      1  0.5449600000000  0.5629610000000  0.4477380000000 1.0
C      1  0.4152870000000  0.5427010000000  0.4077400000000 1.0
C      1  0.5063350000000  0.5746850000000  0.5350570000000 1.0
C      1  0.5865640000000  0.6598620000000  0.5956380000000 1.0
C      1  0.3943300000000  0.4563790000000  0.4405990000000 1.0
C      1  0.4637020000000  0.4200570000000  0.4953180000000 1.0
C      1  0.4421830000000  0.5108800000000  0.4267430000000 1.0
C      1  0.5782440000000  0.4299280000000  0.4603920000000 1.0
C      1  0.3860950000000  0.4724270000000  0.4180120000000 1.0
C      1  0.6085440000000  0.6746750000000  0.5867460000000 1.0
C      1  0.5805570000000  0.4948520000000  0.4637050000000 1.0
C      1  0.5207500000000  0.4245190000000  0.5699700000000 1.0
C      1  0.4297120000000  0.5044300000000  0.6082980000000 1.0
C      1  0.4702420000000  0.5794900000000  0.4195770000000 1.0
C      1  0.6075860000000  0.4656920000000  0.4876550000000 1.0
C      1  0.4404830000000  0.4160600000000  0.5413730000000 1.0
C      1  0.4993430000000  0.5734590000000  0.5620820000000 1.0
C      1  0.5550860000000  0.5276670000000  0.5372840000000 1.0
C      1  0.6629460000000  0.6001460000000  0.4752890000000 1.0
C      1  0.6037370000000  0.5343900000000  0.5128120000000 1.0
C      1  0.5958830000000  0.5728330000000  0.4526170000000 1.0
C      1  0.5699020000000  0.5721560000000  0.4467510000000 1.0
C      1  0.4498710000000  0.5900130000000  0.4980960000000 1.0
C      1  0.5462980000000  0.6259350000000  0.5986890000000 1.0
C      1  0.6217820000000  0.5195620000000  0.4408600000000 1.0
C      1  0.5738110000000  0.4709950000000  0.5463010000000 1.0
C      1  0.4220230000000  0.5236620000000  0.3854890000000 1.0
C      1  0.6261590000000  0.5735230000000  0.4914990000000 1.0
C      1  0.5633420000000  0.4082890000000  0.4712680000000 1.0
C      1  0.5221660000000  0.3921250000000  0.5012270000000 1.0
C      1  0.6331100000000  0.6334360000000  0.5316460000000 1.0
C      1  0.3578400000000  0.5137060000000  0.6122400000000 1.0
C      1  0.3735070000000  0.4684200000000  0.4905670000000 1.0
C      1  0.5319180000000  0.4331040000000  0.5228480000000 1.0
C      1  0.4360080000000  0.4404240000000  0.5576760000000 1.0
C      1  0.5238300000000  0.5478570000000  0.4533740000000 1.0
C      1  0.3810310000000  0.5044510000000  0.6047760000000 1.0
C      1  0.5849860000000  0.4875480000000  0.4368130000000 1.0
C      1  0.3957870000000  0.5250450000000  0.4250290000000 1.0
C      1  0.4426310000000  0.4982480000000  0.4757910000000 1.0
C      1  0.4597000000000  0.5734570000000  0.4805330000000 1.0
C      1  0.4295150000000  0.5079930000000  0.4531170000000 1.0
C      1  0.4950550000000  0.4662070000000  0.4361760000000 1.0
C      1  0.6418680000000  0.5969130000000  0.4924420000000 1.0
C      1  0.4263170000000  0.4993420000000  0.4024450000000 1.0
C      1  0.3769260000000  0.4725840000000  0.5188790000000 1.0
C      1  0.4147850000000  0.4356830000000  0.4355270000000 1.0
C      1  0.4150830000000  0.4600210000000  0.5543190000000 1.0
C      1  0.3903170000000  0.5315920000000  0.4750020000000 1.0
C      1  0.4580710000000  0.4380200000000  0.5775070000000 1.0
C      1  0.5403070000000  0.4770790000000  0.4259260000000 1.0
C      1  0.6110390000000  0.5182240000000  0.4898860000000 1.0
C      1  0.4412240000000  0.5410780000000  0.4224530000000 1.0
C      1  0.6072720000000  0.5015330000000  0.4265060000000 1.0
C      1  0.5700510000000  0.4397260000000  0.4344140000000 1.0
C      1  0.5280400000000  0.6078180000000  0.5922930000000 1.0
C      1  0.4097060000000  0.4187450000000  0.4789070000000 1.0
C      1  0.4438330000000  0.4874700000000  0.6575650000000 1.0
C      1  0.5362230000000  0.4939850000000  0.4850410000000 1.0
C      1  0.4803200000000  0.5306790000000  0.4689080000000 1.0
C      1  0.5668360000000  0.4677250000000  0.4284170000000 1.0
C      1  0.4567070000000  0.3981580000000  0.5562880000000 1.0
C      1  0.4911610000000  0.4424050000000  0.4244340000000 1.0
C      1  0.4039960000000  0.5219500000000  0.4529840000000 1.0
C      1  0.4458140000000  0.5223590000000  0.5941740000000 1.0
C      1  0.5380650000000  0.4351340000000  0.5507250000000 1.0
C      1  0.3793120000000  0.5408910000000  0.4967150000000 1.0
C      1  0.3569860000000  0.4821600000000  0.5348090000000 1.0
C      1  0.4031190000000  0.4658680000000  0.5286250000000 1.0
C      1  0.5168790000000  0.5777910000000  0.5114280000000 1.0
C      1  0.5560920000000  0.4217520000000  0.4176330000000 1.0
C      1  0.4919500000000  0.4847940000000  0.5235390000000 1.0
C      1  0.4871580000000  0.4574530000000  0.5177050000000 1.0
C      1  0.4186920000000  0.4302700000000  0.5025480000000 1.0
C      1  0.6199560000000  0.5329230000000  0.4659290000000 1.0
C      1  0.5126370000000  0.4963000000000  0.5390030000000 1.0
C      1  0.6168700000000  0.5614450000000  0.4672990000000 1.0
C      1  0.5978630000000  0.4431940000000  0.4760500000000 1.0
C      1  0.6182740000000  0.5588070000000  0.5143830000000 1.0
C      1  0.6074940000000  0.7019940000000  0.5857190000000 1.0
C      1  0.5506280000000  0.4775270000000  0.5026300000000 1.0
C      1  0.4874390000000  0.4308770000000  0.5067100000000 1.0
C      1  0.3814520000000  0.4615880000000  0.4656110000000 1.0
C      1  0.6001440000000  0.4927600000000  0.4839510000000 1.0
C      1  0.5076320000000  0.5265070000000  0.4617310000000 1.0
C      1  0.4798090000000  0.5555150000000  0.5707940000000 1.0
C      1  0.4277180000000  0.4229140000000  0.4573020000000 1.0
C      1  0.6323410000000  0.6481330000000  0.5536750000000 1.0
C      1  0.3986840000000  0.4969890000000  0.4136210000000 1.0
C      1  0.4323920000000  0.4766450000000  0.4904450000000 1.0
C      1  0.6539210000000  0.6600050000000  0.5949540000000 1.0
C      1  0.4413420000000  0.4177680000000  0.5136020000000 1.0
C      1  0.5128310000000  0.3658070000000  0.5439910000000 1.0
C      1  0.5322540000000  0.5143920000000  0.5423370000000 1.0
C      1  0.5056200000000  0.4223960000000  0.4140390000000 1.0
C      1  0.4550310000000  0.4207470000000  0.4672790000000 1.0
C      1  0.5069170000000  0.3790450000000  0.5665870000000 1.0
C      1  0.5604490000000  0.4507220000000  0.5578810000000 1.0
C      1  0.4767220000000  0.5032110000000  0.5090060000000 1.0
C      1  0.6359220000000  0.6166980000000  0.5113030000000 1.0
C      1  0.5179870000000  0.3699040000000  0.5179590000000 1.0
C      1  0.5117880000000  0.4168140000000  0.5110550000000 1.0
C      1  0.3796240000000  0.4386000000000  0.3821170000000 1.0
C      1  0.5797150000000  0.5320300000000  0.5274780000000 1.0
C      1  0.3721470000000  0.4599970000000  0.3968060000000 1.0
C      1  0.4073680000000  0.4752630000000  0.5764420000000 1.0
C      1  0.6320340000000  0.6608880000000  0.5785560000000 1.0
C      1  0.5429130000000  0.4508670000000  0.5043490000000 1.0
C      1  0.5432170000000  0.3944590000000  0.4824310000000 1.0
C      1  0.5311140000000  0.4148770000000  0.4108790000000 1.0
C      1  0.5195800000000  0.5006520000000  0.4632160000000 1.0
C      1  0.4663120000000  0.5113510000000  0.4845230000000 1.0
END
