TITL C-627108-131-303 0.000430658979413649 125000 -745.379611976104 0 0 122 (C1) n - 1
REM
REM in /home/nfs/bkarasulu/CARBON/AIRSS/Generating-Clusters/LCBOP/Only-C1/SD-CG/FIRE-CG
REM
REM
REM
REM
REM
REM ./C.cell (11c1c37f851c82e70ff6c80c92926a4b)
REM AIRSS Version 0.9.1 bugfix July 2018 build 013d7b7c2542+ Fri, 06 Jul 2018 19:26:36 +0100
REM compiler GCC version 9.2.1 20190827 (Red Hat 9.2.1-1)
REM options -cpp -mtune=generic -march=x86-64 -g -O0 -fpre-include=/usr/include/finclude/math-vector-fortran.h
REM seed -18849799 2134086035 1158179469 1007622888 1385088665 -1095894655 -1063449465 816354245 -334534427 -823657912 1863071752 -999577231 2020037730 -442400000 -1901687993 -1082502053 -443011258 349276592 -79957261 -894325649 -666480945 1027749875 -1043061775 -595812068 584969529 756979574 -1602523906 -510768712 -432872247 26999192 1615278320 1963035466 136104751
REM
CELL 1.54180   50.00000   50.00000   50.00000   90.00000   90.00000   90.00000
LATT -1
SFAC C  
C      1  0.5878870000000  0.4910480000000  0.4297290000000 1.0
C      1  0.4663620000000  0.5003850000000  0.5664550000000 1.0
C      1  0.5704220000000  0.4788520000000  0.5402770000000 1.0
C      1  0.4400460000000  0.5177990000000  0.4015460000000 1.0
C      1  0.5057000000000  0.4287880000000  0.5657880000000 1.0
C      1  0.4241670000000  0.4299020000000  0.4859150000000 1.0
C      1  0.4983490000000  0.5938440000000  0.4595560000000 1.0
C      1  0.4184030000000  0.5183260000000  0.4541770000000 1.0
C      1  0.4878370000000  0.5497110000000  0.4889050000000 1.0
C      1  0.4637620000000  0.5007780000000  0.5387940000000 1.0
C      1  0.4248910000000  0.4671250000000  0.4550650000000 1.0
C      1  0.5060870000000  0.5268470000000  0.3991380000000 1.0
C      1  0.4718140000000  0.5277770000000  0.5012740000000 1.0
C      1  0.5765650000000  0.4805220000000  0.4754410000000 1.0
C      1  0.4262860000000  0.5229100000000  0.5178400000000 1.0
C      1  0.4763310000000  0.5072290000000  0.6103770000000 1.0
C      1  0.5332600000000  0.4407790000000  0.4283840000000 1.0
C      1  0.4900380000000  0.4249510000000  0.4493260000000 1.0
C      1  0.5613550000000  0.4633000000000  0.5858280000000 1.0
C      1  0.4888080000000  0.4337190000000  0.5139220000000 1.0
C      1  0.4452920000000  0.4453300000000  0.4472640000000 1.0
C      1  0.4717940000000  0.5908420000000  0.4468250000000 1.0
C      1  0.6016140000000  0.4762380000000  0.4880790000000 1.0
C      1  0.5478910000000  0.4747640000000  0.5191400000000 1.0
C      1  0.5727220000000  0.4764480000000  0.4473340000000 1.0
C      1  0.4275630000000  0.5678820000000  0.4561900000000 1.0
C      1  0.5963390000000  0.5951740000000  0.4132940000000 1.0
C      1  0.5912570000000  0.4962090000000  0.5305000000000 1.0
C      1  0.4670480000000  0.5850190000000  0.4195230000000 1.0
C      1  0.5197190000000  0.4380290000000  0.5868380000000 1.0
C      1  0.5095090000000  0.4811510000000  0.5584470000000 1.0
C      1  0.5701300000000  0.5775510000000  0.4571970000000 1.0
C      1  0.5415800000000  0.5430080000000  0.5080340000000 1.0
C      1  0.4824120000000  0.4752230000000  0.5749600000000 1.0
C      1  0.4710570000000  0.4414460000000  0.4342230000000 1.0
C      1  0.4109280000000  0.4993000000000  0.5146190000000 1.0
C      1  0.4746640000000  0.4138050000000  0.4725930000000 1.0
C      1  0.5083130000000  0.5068690000000  0.5228940000000 1.0
C      1  0.4848850000000  0.5285690000000  0.4440560000000 1.0
C      1  0.4682540000000  0.5213480000000  0.5866320000000 1.0
C      1  0.4251550000000  0.4571170000000  0.5321040000000 1.0
C      1  0.5031820000000  0.5833980000000  0.5367360000000 1.0
C      1  0.4975280000000  0.5882260000000  0.5640060000000 1.0
C      1  0.5068760000000  0.5546830000000  0.5328260000000 1.0
C      1  0.4552740000000  0.5668760000000  0.4009400000000 1.0
C      1  0.5846430000000  0.5751480000000  0.4813350000000 1.0
C      1  0.5553190000000  0.5559620000000  0.5326360000000 1.0
C      1  0.4441250000000  0.5272010000000  0.4960060000000 1.0
C      1  0.4468860000000  0.4242030000000  0.4693610000000 1.0
C      1  0.5536850000000  0.4913010000000  0.4926030000000 1.0
C      1  0.4623070000000  0.4540680000000  0.5689400000000 1.0
C      1  0.4842970000000  0.5311540000000  0.4159040000000 1.0
C      1  0.5146950000000  0.5702230000000  0.4544880000000 1.0
C      1  0.5645880000000  0.5308590000000  0.6087260000000 1.0
C      1  0.5837770000000  0.5867540000000  0.4345190000000 1.0
C      1  0.5045180000000  0.6003120000000  0.5133050000000 1.0
C      1  0.4591370000000  0.5386570000000  0.4045130000000 1.0
C      1  0.4683020000000  0.4695830000000  0.4855280000000 1.0
C      1  0.5535930000000  0.4584320000000  0.4371470000000 1.0
C      1  0.5506920000000  0.4447730000000  0.5152870000000 1.0
C      1  0.5185490000000  0.4266740000000  0.4483920000000 1.0
C      1  0.3723900000000  0.3594080000000  0.5469870000000 1.0
C      1  0.5477720000000  0.4297910000000  0.4919110000000 1.0
C      1  0.4526160000000  0.5789280000000  0.4648130000000 1.0
C      1  0.4325810000000  0.5360270000000  0.5429040000000 1.0
C      1  0.5200150000000  0.4838400000000  0.6057320000000 1.0
C      1  0.5824000000000  0.5215010000000  0.5206040000000 1.0
C      1  0.3970920000000  0.3934340000000  0.5154250000000 1.0
C      1  0.5562590000000  0.4324870000000  0.5413560000000 1.0
C      1  0.4411920000000  0.4504240000000  0.5525330000000 1.0
C      1  0.5023310000000  0.6048710000000  0.4862880000000 1.0
C      1  0.5163270000000  0.5095620000000  0.5669450000000 1.0
C      1  0.5458290000000  0.4058810000000  0.5415670000000 1.0
C      1  0.5835490000000  0.5501360000000  0.5260090000000 1.0
C      1  0.5292420000000  0.4468880000000  0.3763960000000 1.0
C      1  0.5259280000000  0.5097550000000  0.5934690000000 1.0
C      1  0.5934510000000  0.5667770000000  0.5053560000000 1.0
C      1  0.4945780000000  0.4310060000000  0.5413860000000 1.0
C      1  0.4661380000000  0.5112270000000  0.4565900000000 1.0
C      1  0.4907480000000  0.4824870000000  0.6042020000000 1.0
C      1  0.4421090000000  0.5201960000000  0.4691600000000 1.0
C      1  0.4978460000000  0.5637290000000  0.5800050000000 1.0
C      1  0.5293810000000  0.4692460000000  0.3619340000000 1.0
C      1  0.4157250000000  0.4718640000000  0.5094370000000 1.0
C      1  0.5779180000000  0.4826800000000  0.5983610000000 1.0
C      1  0.4882230000000  0.4095320000000  0.4980800000000 1.0
C      1  0.4986640000000  0.5469870000000  0.4606770000000 1.0
C      1  0.5661370000000  0.4555950000000  0.5583710000000 1.0
C      1  0.5450500000000  0.5612120000000  0.5590730000000 1.0
C      1  0.5125440000000  0.4661160000000  0.4847570000000 1.0
C      1  0.5192020000000  0.5162480000000  0.3786460000000 1.0
C      1  0.5275600000000  0.5555960000000  0.5825070000000 1.0
C      1  0.5279880000000  0.3915030000000  0.5265070000000 1.0
C      1  0.4714980000000  0.4851030000000  0.4637920000000 1.0
C      1  0.4187250000000  0.4924880000000  0.4403430000000 1.0
C      1  0.5380350000000  0.5344510000000  0.5995930000000 1.0
C      1  0.4652770000000  0.5721490000000  0.4897770000000 1.0
C      1  0.5139980000000  0.5504580000000  0.5050590000000 1.0
C      1  0.5265940000000  0.4956750000000  0.3635210000000 1.0
C      1  0.5292580000000  0.4369440000000  0.4010600000000 1.0
C      1  0.5793950000000  0.5082070000000  0.6068940000000 1.0
C      1  0.5285010000000  0.4864280000000  0.4778730000000 1.0
C      1  0.5119670000000  0.5275250000000  0.5443850000000 1.0
C      1  0.4807400000000  0.5078580000000  0.5177630000000 1.0
C      1  0.4510680000000  0.5547060000000  0.5556210000000 1.0
C      1  0.5346520000000  0.4602450000000  0.5965460000000 1.0
C      1  0.4558460000000  0.5825740000000  0.5140840000000 1.0
C      1  0.4405630000000  0.5763140000000  0.3798860000000 1.0
C      1  0.5205370000000  0.4821030000000  0.5313490000000 1.0
C      1  0.3846250000000  0.3762540000000  0.5312970000000 1.0
C      1  0.4716650000000  0.5479700000000  0.5764710000000 1.0
C      1  0.4896570000000  0.4568940000000  0.4980770000000 1.0
C      1  0.4119250000000  0.5461640000000  0.4497600000000 1.0
C      1  0.4171140000000  0.4585870000000  0.4836390000000 1.0
C      1  0.4524940000000  0.5785200000000  0.5403880000000 1.0
C      1  0.5583510000000  0.5194450000000  0.5027280000000 1.0
C      1  0.5427260000000  0.5712000000000  0.4544780000000 1.0
C      1  0.6095500000000  0.4832290000000  0.5130310000000 1.0
C      1  0.5342740000000  0.4202440000000  0.4709560000000 1.0
C      1  0.5072470000000  0.3907560000000  0.5085970000000 1.0
C      1  0.4266600000000  0.4972080000000  0.4131860000000 1.0
C      1  0.4098020000000  0.4109670000000  0.5001770000000 1.0
END
