TITL C-627107-135-1611 0.123795442046114 125000 -226.174796059715 0 0 39 (C1) n - 1
REM
REM in /home/nfs/bkarasulu/CARBON/AIRSS/Generating-Clusters/LCBOP/Only-C1/SD-CG/FIRE-CG
REM
REM
REM
REM
REM
REM ./C.cell (11c1c37f851c82e70ff6c80c92926a4b)
REM AIRSS Version 0.9.1 bugfix July 2018 build 013d7b7c2542+ Fri, 06 Jul 2018 19:26:36 +0100
REM compiler GCC version 9.2.1 20190827 (Red Hat 9.2.1-1)
REM options -cpp -mtune=generic -march=x86-64 -g -O0 -fpre-include=/usr/include/finclude/math-vector-fortran.h
REM seed -1782801582 -1412835274 -656433767 -1031789369 -1020904592 1631720585 1123638278 465317830 -1963439291 744321896 481991372 527478048 -1185169348 -516997105 -634190325 -1677681110 931667030 -1904708451 -1560369008 1428702700 1575913110 -73458216 -1790643029 551031620 -1501492686 183325606 -806622833 -2049681374 -1876794864 -2062829674 116246963 -159623297 -1092031342
REM
CELL 1.54180   50.00000   50.00000   50.00000   90.00000   90.00000   90.00000
LATT -1
SFAC C  
C      1  0.5414970000000  0.4862920000000  0.4253220000000 1.0
C      1  0.5163760000000  0.4599850000000  0.4904800000000 1.0
C      1  0.5026390000000  0.5772070000000  0.4698600000000 1.0
C      1  0.4864910000000  0.5192520000000  0.5054070000000 1.0
C      1  0.4719010000000  0.6059880000000  0.5042430000000 1.0
C      1  0.4693630000000  0.5018100000000  0.5563390000000 1.0
C      1  0.5333570000000  0.4598310000000  0.4680910000000 1.0
C      1  0.5086930000000  0.5854140000000  0.4444780000000 1.0
C      1  0.4567790000000  0.6178120000000  0.5225190000000 1.0
C      1  0.5552310000000  0.5337140000000  0.5025940000000 1.0
C      1  0.4706410000000  0.4822670000000  0.5358940000000 1.0
C      1  0.5381600000000  0.5493210000000  0.4894700000000 1.0
C      1  0.4687430000000  0.4471540000000  0.4890930000000 1.0
C      1  0.4842710000000  0.4863950000000  0.4629890000000 1.0
C      1  0.4879610000000  0.4702590000000  0.4880880000000 1.0
C      1  0.5121460000000  0.5523570000000  0.4795400000000 1.0
C      1  0.4591000000000  0.4178910000000  0.4448690000000 1.0
C      1  0.5374450000000  0.4667130000000  0.5346700000000 1.0
C      1  0.4510570000000  0.4460520000000  0.5622860000000 1.0
C      1  0.4819090000000  0.4908530000000  0.5104620000000 1.0
C      1  0.5048400000000  0.5181990000000  0.4328080000000 1.0
C      1  0.4576780000000  0.4419840000000  0.5144130000000 1.0
C      1  0.4869870000000  0.5931820000000  0.4866360000000 1.0
C      1  0.5188720000000  0.3969560000000  0.5253030000000 1.0
C      1  0.5435310000000  0.4682700000000  0.4449740000000 1.0
C      1  0.5255460000000  0.5071390000000  0.4197850000000 1.0
C      1  0.4747410000000  0.5280210000000  0.5521220000000 1.0
C      1  0.4923490000000  0.5128580000000  0.4573420000000 1.0
C      1  0.5319380000000  0.4629760000000  0.5618070000000 1.0
C      1  0.4954130000000  0.5293720000000  0.4802920000000 1.0
C      1  0.4419030000000  0.6293070000000  0.5405810000000 1.0
C      1  0.5244850000000  0.4595680000000  0.5865450000000 1.0
C      1  0.4631350000000  0.4318650000000  0.4664920000000 1.0
C      1  0.5231820000000  0.4221940000000  0.5204540000000 1.0
C      1  0.4825360000000  0.5364920000000  0.5276060000000 1.0
C      1  0.5538210000000  0.4878740000000  0.5265600000000 1.0
C      1  0.5603570000000  0.5112330000000  0.5157950000000 1.0
C      1  0.5256010000000  0.4495570000000  0.5153260000000 1.0
C      1  0.4593240000000  0.4563870000000  0.5384670000000 1.0
END
