TITL C-627112-676-666 219692.454661377 125000 -1195.74954639184 0 0 195 (C1) n - 1
REM
REM in /home/nfs/bkarasulu/CARBON/AIRSS/Generating-Clusters/LCBOP/Only-C1/SD-CG/FIRE-CG
REM
REM
REM
REM
REM
REM ./C.cell (11c1c37f851c82e70ff6c80c92926a4b)
REM AIRSS Version 0.9.1 bugfix July 2018 build 013d7b7c2542+ Fri, 06 Jul 2018 19:26:36 +0100
REM compiler GCC version 9.2.1 20190827 (Red Hat 9.2.1-1)
REM options -cpp -mtune=generic -march=x86-64 -g -O0 -fpre-include=/usr/include/finclude/math-vector-fortran.h
REM seed 81705280 -22102716 -732229649 -634248718 1886817556 1245494974 1874578860 2006703648 1810127977 -224735431 1829722415 -476273636 -918296395 1923787954 1256601175 1281269627 -1998007792 -732422507 148377874 -541081973 -724614319 1738404428 1200344524 109664724 1920218300 1029361173 -847402040 157772384 2107545210 18545804 -1702350808 612883142 -1762514178
REM
CELL 1.54180   50.00000   50.00000   50.00000   90.00000   90.00000   90.00000
LATT -1
SFAC C  
C      1  0.4833670000000  0.4320810000000  0.6095580000000 1.0
C      1  0.4789690000000  0.5617300000000  0.3897360000000 1.0
C      1  0.4206980000000  0.4894230000000  0.5319420000000 1.0
C      1  0.4750830000000  0.5664220000000  0.5893900000000 1.0
C      1  0.5320650000000  0.5115940000000  0.3928830000000 1.0
C      1  0.4064270000000  0.5027180000000  0.4308990000000 1.0
C      1  0.5281800000000  0.5561630000000  0.4145740000000 1.0
C      1  0.5175570000000  0.4873440000000  0.4816710000000 1.0
C      1  0.5009220000000  0.4264200000000  0.4137770000000 1.0
C      1  0.6225180000000  0.4588140000000  0.4758470000000 1.0
C      1  0.4025290000000  0.5273720000000  0.5072170000000 1.0
C      1  0.4499630000000  0.5466580000000  0.4575030000000 1.0
C      1  0.6067490000000  0.4540180000000  0.4544750000000 1.0
C      1  0.6340770000000  0.4844150000000  0.5211600000000 1.0
C      1  0.5506790000000  0.4433680000000  0.4100590000000 1.0
C      1  0.4916850000000  0.3739950000000  0.4956720000000 1.0
C      1  0.4975430000000  0.4224720000000  0.4895340000000 1.0
C      1  0.4705420000000  0.5349020000000  0.4414250000000 1.0
C      1  0.4703010000000  0.3879550000000  0.4710240000000 1.0
C      1  0.5934610000000  0.5061580000000  0.4611910000000 1.0
C      1  0.4435280000000  0.5588350000000  0.5099000000000 1.0
C      1  0.5246840000000  0.5805860000000  0.5981640000000 1.0
C      1  0.5773050000000  0.5667440000000  0.4548380000000 1.0
C      1  0.4005960000000  0.5715390000000  0.5291830000000 1.0
C      1  0.4372630000000  0.5095920000000  0.5924800000000 1.0
C      1  0.5477380000000  0.5277380000000  0.5503890000000 1.0
C      1  0.4527450000000  0.5456310000000  0.4860610000000 1.0
C      1  0.5144540000000  0.5527400000000  0.4387280000000 1.0
C      1  0.4867510000000  0.6256020000000  0.3578910000000 1.0
C      1  0.5079910000000  0.6006970000000  0.5882300000000 1.0
C      1  0.4975740000000  0.5415940000000  0.3791590000000 1.0
C      1  0.6432360000000  0.5613780000000  0.5616000000000 1.0
C      1  0.4517860000000  0.5567280000000  0.3969830000000 1.0
C      1  0.6165710000000  0.5611090000000  0.5721660000000 1.0
C      1  0.4015850000000  0.5222220000000  0.5602710000000 1.0
C      1  0.5556340000000  0.4894500000000  0.6083030000000 1.0
C      1  0.3708280000000  0.5059740000000  0.4633190000000 1.0
C      1  0.5561090000000  0.5427370000000  0.4957380000000 1.0
C      1  0.3782070000000  0.4833350000000  0.4786710000000 1.0
C      1  0.4707900000000  0.4644050000000  0.4708860000000 1.0
C      1  0.5653710000000  0.4425620000000  0.5009810000000 1.0
C      1  0.4582130000000  0.6075680000000  0.4926060000000 1.0
C      1  0.3449220000000  0.5146240000000  0.4623840000000 1.0
C      1  0.5294970000000  0.4626080000000  0.4683870000000 1.0
C      1  0.5596060000000  0.5489570000000  0.4683390000000 1.0
C      1  0.4839730000000  0.4594110000000  0.5183600000000 1.0
C      1  0.5748810000000  0.4610500000000  0.4118460000000 1.0
C      1  0.4714930000000  0.4222550000000  0.4246580000000 1.0
C      1  0.6236490000000  0.4935880000000  0.5458930000000 1.0
C      1  0.5539340000000  0.4664660000000  0.5405030000000 1.0
C      1  0.4000870000000  0.4719680000000  0.5215140000000 1.0
C      1  0.4912370000000  0.3414930000000  0.5326140000000 1.0
C      1  0.6297140000000  0.5170120000000  0.5603330000000 1.0
C      1  0.4263400000000  0.5531120000000  0.4428210000000 1.0
C      1  0.6006850000000  0.4802140000000  0.5548730000000 1.0
C      1  0.5382350000000  0.4955100000000  0.5033900000000 1.0
C      1  0.5943360000000  0.5773910000000  0.5667610000000 1.0
C      1  0.4085740000000  0.4686020000000  0.5832180000000 1.0
C      1  0.6509280000000  0.5357940000000  0.5546630000000 1.0
C      1  0.4010960000000  0.5461360000000  0.4550320000000 1.0
C      1  0.4682290000000  0.5211070000000  0.4950650000000 1.0
C      1  0.5807640000000  0.4731890000000  0.5366410000000 1.0
C      1  0.4356220000000  0.4809200000000  0.5787680000000 1.0
C      1  0.5933260000000  0.4752700000000  0.5819760000000 1.0
C      1  0.4846060000000  0.4864510000000  0.4233240000000 1.0
C      1  0.6016970000000  0.5230930000000  0.4379530000000 1.0
C      1  0.5473550000000  0.4490880000000  0.5617340000000 1.0
C      1  0.5608310000000  0.5141810000000  0.4995850000000 1.0
C      1  0.4482020000000  0.3449490000000  0.4737770000000 1.0
C      1  0.4476190000000  0.5703210000000  0.5869950000000 1.0
C      1  0.4195220000000  0.5314750000000  0.5806070000000 1.0
C      1  0.4788220000000  0.5117040000000  0.3423730000000 1.0
C      1  0.5150030000000  0.4916810000000  0.5469260000000 1.0
C      1  0.5688870000000  0.5653450000000  0.5660310000000 1.0
C      1  0.3914280000000  0.5193590000000  0.4484590000000 1.0
C      1  0.5567550000000  0.5539390000000  0.5430940000000 1.0
C      1  0.5350800000000  0.4983160000000  0.4178270000000 1.0
C      1  0.4420860000000  0.4790250000000  0.5480290000000 1.0
C      1  0.5236350000000  0.5392860000000  0.3926450000000 1.0
C      1  0.4359970000000  0.6017060000000  0.5552560000000 1.0
C      1  0.5199110000000  0.5207710000000  0.5503700000000 1.0
C      1  0.5069140000000  0.4165080000000  0.5379080000000 1.0
C      1  0.4190650000000  0.5132640000000  0.4886050000000 1.0
C      1  0.5026920000000  0.5740940000000  0.5407810000000 1.0
C      1  0.5848560000000  0.4636690000000  0.4394470000000 1.0
C      1  0.4168780000000  0.5784810000000  0.5530670000000 1.0
C      1  0.4726630000000  0.6249670000000  0.5096090000000 1.0
C      1  0.5184300000000  0.4213740000000  0.4399860000000 1.0
C      1  0.4720090000000  0.4126750000000  0.4535860000000 1.0
C      1  0.5359770000000  0.5527870000000  0.6002370000000 1.0
C      1  0.5527140000000  0.5038110000000  0.4385630000000 1.0
C      1  0.4227510000000  0.4825790000000  0.4241350000000 1.0
C      1  0.4317420000000  0.5577090000000  0.4151910000000 1.0
C      1  0.5101040000000  0.4470380000000  0.4542890000000 1.0
C      1  0.5477850000000  0.4250810000000  0.4333020000000 1.0
C      1  0.4452640000000  0.4365150000000  0.4233630000000 1.0
C      1  0.4608700000000  0.5075700000000  0.3239430000000 1.0
C      1  0.4898090000000  0.6098950000000  0.5664190000000 1.0
C      1  0.5345130000000  0.3892710000000  0.4803780000000 1.0
C      1  0.5633630000000  0.5480160000000  0.5896590000000 1.0
C      1  0.5662470000000  0.4141970000000  0.5065400000000 1.0
C      1  0.4103930000000  0.4092320000000  0.4809120000000 1.0
C      1  0.4926320000000  0.5603480000000  0.5662050000000 1.0
C      1  0.4442290000000  0.5868120000000  0.5058050000000 1.0
C      1  0.5146680000000  0.5663230000000  0.4637130000000 1.0
C      1  0.5603950000000  0.4244240000000  0.4592770000000 1.0
C      1  0.5026210000000  0.3406200000000  0.5565450000000 1.0
C      1  0.6319520000000  0.4707780000000  0.4980320000000 1.0
C      1  0.4828790000000  0.4936450000000  0.6149420000000 1.0
C      1  0.5987190000000  0.5082330000000  0.4121960000000 1.0
C      1  0.5979360000000  0.5516540000000  0.4413180000000 1.0
C      1  0.5549090000000  0.4034080000000  0.5305970000000 1.0
C      1  0.4777160000000  0.5224830000000  0.5229600000000 1.0
C      1  0.4592260000000  0.5113010000000  0.6131390000000 1.0
C      1  0.4945640000000  0.5288060000000  0.4835240000000 1.0
C      1  0.4690110000000  0.6063130000000  0.4663140000000 1.0
C      1  0.4772630000000  0.5144190000000  0.5658930000000 1.0
C      1  0.5538730000000  0.4490220000000  0.4754690000000 1.0
C      1  0.5060610000000  0.5122160000000  0.4639790000000 1.0
C      1  0.5263450000000  0.3969930000000  0.5279140000000 1.0
C      1  0.4903470000000  0.6071890000000  0.3759900000000 1.0
C      1  0.5221930000000  0.4448380000000  0.3969440000000 1.0
C      1  0.5841460000000  0.5254470000000  0.5898790000000 1.0
C      1  0.5162090000000  0.4030370000000  0.4649170000000 1.0
C      1  0.5161930000000  0.3433970000000  0.5786360000000 1.0
C      1  0.5685170000000  0.4081930000000  0.5553890000000 1.0
C      1  0.4218670000000  0.3852100000000  0.4791850000000 1.0
C      1  0.3759140000000  0.5850280000000  0.4712240000000 1.0
C      1  0.4642530000000  0.5362230000000  0.6259710000000 1.0
C      1  0.5120260000000  0.4843030000000  0.4248520000000 1.0
C      1  0.4676110000000  0.4741500000000  0.4416140000000 1.0
C      1  0.5502670000000  0.5286610000000  0.4511420000000 1.0
C      1  0.5222120000000  0.4464320000000  0.5735560000000 1.0
C      1  0.4835480000000  0.4376400000000  0.4682960000000 1.0
C      1  0.5340900000000  0.4818850000000  0.5286920000000 1.0
C      1  0.5100790000000  0.5064370000000  0.6124980000000 1.0
C      1  0.3848440000000  0.4589110000000  0.5412590000000 1.0
C      1  0.4787690000000  0.5569610000000  0.6161530000000 1.0
C      1  0.5450070000000  0.5582590000000  0.5171520000000 1.0
C      1  0.4233660000000  0.4269740000000  0.4391000000000 1.0
C      1  0.5058160000000  0.5552410000000  0.4881260000000 1.0
C      1  0.4984380000000  0.5286020000000  0.4403870000000 1.0
C      1  0.4918480000000  0.5984400000000  0.4235990000000 1.0
C      1  0.5686890000000  0.4322200000000  0.5706120000000 1.0
C      1  0.3904930000000  0.5625010000000  0.4770270000000 1.0
C      1  0.5136410000000  0.4638080000000  0.5943000000000 1.0
C      1  0.4244080000000  0.5600120000000  0.5753200000000 1.0
C      1  0.5869810000000  0.4856810000000  0.4000170000000 1.0
C      1  0.4899270000000  0.4751250000000  0.4934860000000 1.0
C      1  0.5162530000000  0.5308800000000  0.5985980000000 1.0
C      1  0.4200000000000  0.4573810000000  0.4798080000000 1.0
C      1  0.4993110000000  0.6179270000000  0.5165610000000 1.0
C      1  0.4879970000000  0.4884940000000  0.5558030000000 1.0
C      1  0.4603760000000  0.6113970000000  0.5646010000000 1.0
C      1  0.4880560000000  0.5886390000000  0.3969350000000 1.0
C      1  0.4931510000000  0.6072780000000  0.4508050000000 1.0
C      1  0.4444200000000  0.4649240000000  0.4275630000000 1.0
C      1  0.5023030000000  0.5317590000000  0.5720920000000 1.0
C      1  0.5665840000000  0.5927740000000  0.4515980000000 1.0
C      1  0.3952140000000  0.5549870000000  0.5047470000000 1.0
C      1  0.5187270000000  0.3823700000000  0.5036110000000 1.0
C      1  0.5143010000000  0.5580300000000  0.5172610000000 1.0
C      1  0.5596650000000  0.4026510000000  0.4802250000000 1.0
C      1  0.5182570000000  0.6128970000000  0.4655240000000 1.0
C      1  0.4385250000000  0.5391940000000  0.5331110000000 1.0
C      1  0.5874270000000  0.4471840000000  0.5862750000000 1.0
C      1  0.6094490000000  0.5322450000000  0.5766560000000 1.0
C      1  0.4721150000000  0.4984670000000  0.4020540000000 1.0
C      1  0.5010780000000  0.6026850000000  0.5404910000000 1.0
C      1  0.4830830000000  0.3491400000000  0.5071020000000 1.0
C      1  0.5156790000000  0.4957770000000  0.3739080000000 1.0
C      1  0.5049690000000  0.5307790000000  0.5265160000000 1.0
C      1  0.4443870000000  0.4726970000000  0.4819350000000 1.0
C      1  0.5868510000000  0.5077810000000  0.4887950000000 1.0
C      1  0.5442360000000  0.6077200000000  0.4547750000000 1.0
C      1  0.5283390000000  0.4850230000000  0.6065850000000 1.0
C      1  0.3888630000000  0.4585840000000  0.5679070000000 1.0
C      1  0.5743040000000  0.4884790000000  0.4485630000000 1.0
C      1  0.5055090000000  0.4242510000000  0.5657190000000 1.0
C      1  0.4141570000000  0.5195950000000  0.5334570000000 1.0
C      1  0.4612400000000  0.5269010000000  0.5452410000000 1.0
C      1  0.3973600000000  0.4688060000000  0.4934220000000 1.0
C      1  0.4699320000000  0.4725610000000  0.5404130000000 1.0
C      1  0.4836740000000  0.4629510000000  0.6046050000000 1.0
C      1  0.5793430000000  0.4971050000000  0.5953340000000 1.0
C      1  0.5165480000000  0.6177280000000  0.4938870000000 1.0
C      1  0.4450020000000  0.5004750000000  0.4891850000000 1.0
C      1  0.5162070000000  0.4670480000000  0.3786220000000 1.0
C      1  0.4894580000000  0.4157900000000  0.5879220000000 1.0
C      1  0.4163840000000  0.4323690000000  0.4662340000000 1.0
C      1  0.4960480000000  0.5159750000000  0.3637820000000 1.0
C      1  0.4946750000000  0.4320380000000  0.5165540000000 1.0
C      1  0.4456360000000  0.3729300000000  0.4712490000000 1.0
C      1  0.4572590000000  0.4639270000000  0.5900970000000 1.0
C      1  0.4650770000000  0.3339140000000  0.4917000000000 1.0
END
