TITL C-627107-135-471 3855.74052091752 125000 -945.165247482339 0 0 156 (C1) n - 1
REM
REM in /home/nfs/bkarasulu/CARBON/AIRSS/Generating-Clusters/LCBOP/Only-C1/SD-CG/FIRE-CG
REM
REM
REM
REM
REM
REM ./C.cell (11c1c37f851c82e70ff6c80c92926a4b)
REM AIRSS Version 0.9.1 bugfix July 2018 build 013d7b7c2542+ Fri, 06 Jul 2018 19:26:36 +0100
REM compiler GCC version 9.2.1 20190827 (Red Hat 9.2.1-1)
REM options -cpp -mtune=generic -march=x86-64 -g -O0 -fpre-include=/usr/include/finclude/math-vector-fortran.h
REM seed 1902659512 1329570499 80418666 2027613886 1230300802 -1645645726 1418372215 -2089920202 -1303401401 -1582322429 1308814657 1410812604 582384173 -1096166557 -959134221 -2128463326 1517442471 -49252337 -1810309034 -1111785858 1025447391 -711391081 936170749 1491300077 -1390716241 -1391940206 -623078274 659753193 476645446 169307804 -2022982524 1307153624 -854676149
REM
CELL 1.54180   50.00000   50.00000   50.00000   90.00000   90.00000   90.00000
LATT -1
SFAC C  
C      1  0.4809950000000  0.4378240000000  0.5873650000000 1.0
C      1  0.5694550000000  0.4494500000000  0.5578020000000 1.0
C      1  0.5611640000000  0.5898080000000  0.4891150000000 1.0
C      1  0.4555160000000  0.4912610000000  0.4726750000000 1.0
C      1  0.4820970000000  0.4750110000000  0.4421480000000 1.0
C      1  0.5440860000000  0.3693580000000  0.4761210000000 1.0
C      1  0.4392120000000  0.4327430000000  0.5577300000000 1.0
C      1  0.5634720000000  0.4114620000000  0.5281830000000 1.0
C      1  0.4925360000000  0.5326660000000  0.5021690000000 1.0
C      1  0.5568640000000  0.4791470000000  0.5953480000000 1.0
C      1  0.5415450000000  0.4622150000000  0.4419460000000 1.0
C      1  0.5253160000000  0.4834970000000  0.4278490000000 1.0
C      1  0.4736700000000  0.4035800000000  0.5081150000000 1.0
C      1  0.4843630000000  0.5658910000000  0.4021690000000 1.0
C      1  0.4440910000000  0.5119810000000  0.4251680000000 1.0
C      1  0.5231240000000  0.5682990000000  0.5019010000000 1.0
C      1  0.5104010000000  0.4279140000000  0.5036820000000 1.0
C      1  0.3915530000000  0.4384880000000  0.5599540000000 1.0
C      1  0.5052240000000  0.4324540000000  0.4315500000000 1.0
C      1  0.5324630000000  0.4809160000000  0.5575820000000 1.0
C      1  0.4829580000000  0.4890810000000  0.6070940000000 1.0
C      1  0.4948730000000  0.6077780000000  0.4527170000000 1.0
C      1  0.4820160000000  0.3854990000000  0.4864620000000 1.0
C      1  0.5273770000000  0.5183820000000  0.6104520000000 1.0
C      1  0.5435530000000  0.5276420000000  0.5142220000000 1.0
C      1  0.4144010000000  0.4341600000000  0.5441580000000 1.0
C      1  0.5569240000000  0.5556160000000  0.5815020000000 1.0
C      1  0.3952970000000  0.5208670000000  0.5019120000000 1.0
C      1  0.4033250000000  0.4067470000000  0.5046300000000 1.0
C      1  0.5133030000000  0.5411120000000  0.6064230000000 1.0
C      1  0.5299190000000  0.4348300000000  0.4449460000000 1.0
C      1  0.5962570000000  0.4885770000000  0.4907910000000 1.0
C      1  0.4210760000000  0.5536670000000  0.5804730000000 1.0
C      1  0.4907690000000  0.5607450000000  0.5467850000000 1.0
C      1  0.4456920000000  0.5081400000000  0.4944340000000 1.0
C      1  0.5488190000000  0.4137600000000  0.4515410000000 1.0
C      1  0.5451890000000  0.5187330000000  0.4070080000000 1.0
C      1  0.6050200000000  0.4663180000000  0.5059890000000 1.0
C      1  0.5478170000000  0.4764590000000  0.4679630000000 1.0
C      1  0.4753170000000  0.4851740000000  0.3885220000000 1.0
C      1  0.5131290000000  0.5991320000000  0.4321740000000 1.0
C      1  0.5620590000000  0.4543140000000  0.4193120000000 1.0
C      1  0.5381590000000  0.5427860000000  0.4888450000000 1.0
C      1  0.5214490000000  0.4824350000000  0.5078920000000 1.0
C      1  0.5648730000000  0.4876560000000  0.5253860000000 1.0
C      1  0.4545640000000  0.4434710000000  0.5788160000000 1.0
C      1  0.5225900000000  0.4134540000000  0.5673600000000 1.0
C      1  0.5129650000000  0.6426210000000  0.5058220000000 1.0
C      1  0.4521290000000  0.5832490000000  0.6010990000000 1.0
C      1  0.4346690000000  0.5487230000000  0.4540210000000 1.0
C      1  0.5896380000000  0.5362430000000  0.5443740000000 1.0
C      1  0.5378930000000  0.3875300000000  0.4552260000000 1.0
C      1  0.4503340000000  0.5927380000000  0.4830630000000 1.0
C      1  0.5076220000000  0.4747520000000  0.6062850000000 1.0
C      1  0.5936770000000  0.4688830000000  0.4485820000000 1.0
C      1  0.5454960000000  0.4622260000000  0.3958420000000 1.0
C      1  0.5044400000000  0.5484440000000  0.4562970000000 1.0
C      1  0.4812900000000  0.4321480000000  0.5012130000000 1.0
C      1  0.4677130000000  0.5180780000000  0.5519910000000 1.0
C      1  0.4163700000000  0.5059880000000  0.4912080000000 1.0
C      1  0.4576450000000  0.5007410000000  0.4023370000000 1.0
C      1  0.5858960000000  0.5170150000000  0.5641350000000 1.0
C      1  0.4102230000000  0.4317070000000  0.5161110000000 1.0
C      1  0.4881190000000  0.4993510000000  0.5427130000000 1.0
C      1  0.4137950000000  0.5665360000000  0.4622880000000 1.0
C      1  0.4996050000000  0.5902470000000  0.4079980000000 1.0
C      1  0.5563980000000  0.4184520000000  0.5013970000000 1.0
C      1  0.5726100000000  0.5333060000000  0.4470350000000 1.0
C      1  0.4176150000000  0.4447190000000  0.4274580000000 1.0
C      1  0.3706790000000  0.4433660000000  0.5747720000000 1.0
C      1  0.4712620000000  0.4684730000000  0.4678280000000 1.0
C      1  0.5013490000000  0.5438270000000  0.3964790000000 1.0
C      1  0.4292040000000  0.5282100000000  0.5797830000000 1.0
C      1  0.5355990000000  0.5819060000000  0.4407080000000 1.0
C      1  0.5815860000000  0.4324690000000  0.5376360000000 1.0
C      1  0.4985550000000  0.3635340000000  0.4944790000000 1.0
C      1  0.4880420000000  0.3955960000000  0.4593930000000 1.0
C      1  0.4927810000000  0.4641600000000  0.3874580000000 1.0
C      1  0.5213530000000  0.6182590000000  0.5019080000000 1.0
C      1  0.5432330000000  0.5005180000000  0.5136170000000 1.0
C      1  0.4235630000000  0.5912740000000  0.4723480000000 1.0
C      1  0.5712490000000  0.5667580000000  0.6002570000000 1.0
C      1  0.5806610000000  0.4266140000000  0.4870660000000 1.0
C      1  0.5314640000000  0.5399500000000  0.5367940000000 1.0
C      1  0.5299270000000  0.4353100000000  0.5846070000000 1.0
C      1  0.5752280000000  0.5817890000000  0.5151700000000 1.0
C      1  0.4421510000000  0.4495700000000  0.4183040000000 1.0
C      1  0.4430840000000  0.5412390000000  0.4272120000000 1.0
C      1  0.5948770000000  0.4404520000000  0.5105410000000 1.0
C      1  0.4112630000000  0.4903780000000  0.4658870000000 1.0
C      1  0.5246640000000  0.5546620000000  0.4367570000000 1.0
C      1  0.5030590000000  0.5734100000000  0.5690480000000 1.0
C      1  0.4803190000000  0.5618430000000  0.4622010000000 1.0
C      1  0.5125730000000  0.5287950000000  0.4775850000000 1.0
C      1  0.5659600000000  0.5985580000000  0.5369650000000 1.0
C      1  0.5559380000000  0.4499330000000  0.5843020000000 1.0
C      1  0.5220210000000  0.5939480000000  0.5643800000000 1.0
C      1  0.3815170000000  0.5411320000000  0.4909070000000 1.0
C      1  0.5175280000000  0.5023210000000  0.4660880000000 1.0
C      1  0.5428810000000  0.5449100000000  0.5615080000000 1.0
C      1  0.4585480000000  0.4912960000000  0.5930360000000 1.0
C      1  0.3918190000000  0.4175540000000  0.4582130000000 1.0
C      1  0.4941600000000  0.4814330000000  0.5200510000000 1.0
C      1  0.4666570000000  0.5459580000000  0.5432340000000 1.0
C      1  0.5355080000000  0.4634120000000  0.4908190000000 1.0
C      1  0.4358120000000  0.4966790000000  0.4502290000000 1.0
C      1  0.4657650000000  0.4609320000000  0.4236080000000 1.0
C      1  0.5783590000000  0.4820330000000  0.4693630000000 1.0
C      1  0.4762110000000  0.5740270000000  0.6084630000000 1.0
C      1  0.4612140000000  0.5339230000000  0.4973970000000 1.0
C      1  0.4711920000000  0.5907820000000  0.4596590000000 1.0
C      1  0.5383460000000  0.4905180000000  0.4033720000000 1.0
C      1  0.4021280000000  0.4427390000000  0.4506860000000 1.0
C      1  0.5125910000000  0.4480900000000  0.4001090000000 1.0
C      1  0.4045780000000  0.4628590000000  0.4710630000000 1.0
C      1  0.6099170000000  0.5128070000000  0.4917850000000 1.0
C      1  0.4986200000000  0.5628950000000  0.5955440000000 1.0
C      1  0.5571690000000  0.4723910000000  0.5466340000000 1.0
C      1  0.4781970000000  0.4577480000000  0.5173190000000 1.0
C      1  0.5756980000000  0.4247350000000  0.4575740000000 1.0
C      1  0.4514090000000  0.5825480000000  0.5109250000000 1.0
C      1  0.4336500000000  0.5788350000000  0.5802790000000 1.0
C      1  0.3887310000000  0.5577300000000  0.4710720000000 1.0
C      1  0.5046210000000  0.4916450000000  0.4440150000000 1.0
C      1  0.6271000000000  0.5321980000000  0.4888470000000 1.0
C      1  0.4554320000000  0.5882390000000  0.4324960000000 1.0
C      1  0.4517110000000  0.5120760000000  0.5750750000000 1.0
C      1  0.5250800000000  0.3584170000000  0.4922100000000 1.0
C      1  0.5246140000000  0.5387370000000  0.4120020000000 1.0
C      1  0.4587020000000  0.5640340000000  0.4157980000000 1.0
C      1  0.5756390000000  0.4989300000000  0.5825900000000 1.0
C      1  0.5073550000000  0.5531030000000  0.5232900000000 1.0
C      1  0.4748680000000  0.4406740000000  0.4729430000000 1.0
C      1  0.5838180000000  0.4447840000000  0.4370320000000 1.0
C      1  0.4578760000000  0.5464870000000  0.4707030000000 1.0
C      1  0.5572170000000  0.5880520000000  0.4596780000000 1.0
C      1  0.4443200000000  0.4671870000000  0.5902980000000 1.0
C      1  0.5688600000000  0.5243240000000  0.4218850000000 1.0
C      1  0.5609690000000  0.5407590000000  0.4700580000000 1.0
C      1  0.5033700000000  0.4013070000000  0.5524870000000 1.0
C      1  0.5451610000000  0.6023280000000  0.5536320000000 1.0
C      1  0.5334760000000  0.5936610000000  0.4982200000000 1.0
C      1  0.4536340000000  0.5540940000000  0.5187050000000 1.0
C      1  0.4352740000000  0.5934790000000  0.5564120000000 1.0
C      1  0.4533860000000  0.6278910000000  0.5283340000000 1.0
C      1  0.5320330000000  0.4903120000000  0.6070190000000 1.0
C      1  0.4830860000000  0.3972210000000  0.5348200000000 1.0
C      1  0.3940550000000  0.4016910000000  0.4798240000000 1.0
C      1  0.4846390000000  0.4231950000000  0.4513640000000 1.0
C      1  0.5865060000000  0.5566430000000  0.5257410000000 1.0
C      1  0.5103510000000  0.4956250000000  0.5598700000000 1.0
C      1  0.5065100000000  0.4482950000000  0.5954030000000 1.0
C      1  0.5352310000000  0.4364150000000  0.4975970000000 1.0
C      1  0.5107610000000  0.3838730000000  0.4464550000000 1.0
C      1  0.4465650000000  0.6015930000000  0.5319320000000 1.0
C      1  0.4079200000000  0.4534430000000  0.4979630000000 1.0
END
