TITL C-627107-135-1491 0.00639536762322702 125000 -155.574399608116 0 0 28 (C1) n - 1
REM
REM in /home/nfs/bkarasulu/CARBON/AIRSS/Generating-Clusters/LCBOP/Only-C1/SD-CG/FIRE-CG
REM
REM
REM
REM
REM
REM ./C.cell (11c1c37f851c82e70ff6c80c92926a4b)
REM AIRSS Version 0.9.1 bugfix July 2018 build 013d7b7c2542+ Fri, 06 Jul 2018 19:26:36 +0100
REM compiler GCC version 9.2.1 20190827 (Red Hat 9.2.1-1)
REM options -cpp -mtune=generic -march=x86-64 -g -O0 -fpre-include=/usr/include/finclude/math-vector-fortran.h
REM seed 2030881888 -1256726497 -211173415 1726244841 -1967333951 -1999804301 1336584163 553434122 -34935703 996204356 1903900010 1893854870 1403955221 -1932209606 -1014587699 900723801 -325541127 334161596 -2000013360 -155372064 964243189 1443996342 242754748 -632268087 620377163 -50637166 705353473 -1784946610 -1796917435 -1782564589 1935414730 -1289152620 1464368683
REM
CELL 1.54180   50.00000   50.00000   50.00000   90.00000   90.00000   90.00000
LATT -1
SFAC C  
C      1  0.5603620000000  0.5361990000000  0.5171500000000 1.0
C      1  0.4917150000000  0.4453180000000  0.4086330000000 1.0
C      1  0.4604990000000  0.4818340000000  0.4920420000000 1.0
C      1  0.5958610000000  0.4727440000000  0.4579720000000 1.0
C      1  0.5860580000000  0.5406520000000  0.4774170000000 1.0
C      1  0.5845250000000  0.5386870000000  0.5046370000000 1.0
C      1  0.4180760000000  0.5107030000000  0.5438380000000 1.0
C      1  0.3854130000000  0.4559010000000  0.5045930000000 1.0
C      1  0.5463920000000  0.4689020000000  0.5377680000000 1.0
C      1  0.4496610000000  0.5656330000000  0.5837840000000 1.0
C      1  0.4212610000000  0.4915860000000  0.5224920000000 1.0
C      1  0.4607010000000  0.5170480000000  0.5279230000000 1.0
C      1  0.4417740000000  0.5266440000000  0.5477770000000 1.0
C      1  0.5731140000000  0.4701390000000  0.4704220000000 1.0
C      1  0.5487460000000  0.4677700000000  0.4838580000000 1.0
C      1  0.4482640000000  0.4957580000000  0.5126050000000 1.0
C      1  0.5354530000000  0.5353030000000  0.5031160000000 1.0
C      1  0.4952850000000  0.4542140000000  0.4328680000000 1.0
C      1  0.5630650000000  0.5400540000000  0.4626480000000 1.0
C      1  0.4455550000000  0.5466550000000  0.5664010000000 1.0
C      1  0.4026290000000  0.4733290000000  0.5134840000000 1.0
C      1  0.4864120000000  0.5265120000000  0.5239370000000 1.0
C      1  0.5481060000000  0.4677980000000  0.5117870000000 1.0
C      1  0.5387120000000  0.5375230000000  0.4747780000000 1.0
C      1  0.5108580000000  0.5322400000000  0.5155280000000 1.0
C      1  0.4991920000000  0.4637490000000  0.4588220000000 1.0
C      1  0.5249740000000  0.4654330000000  0.4694100000000 1.0
C      1  0.4773370000000  0.4716730000000  0.4743100000000 1.0
END
