TITL C-627109-622-987 1.38328759153997e-06 125000 -1005.44751720454 0 0 166 (C1) n - 1
REM
REM in /home/nfs/bkarasulu/CARBON/AIRSS/Generating-Clusters/LCBOP/Only-C1/SD-CG/FIRE-CG
REM
REM
REM
REM
REM
REM ./C.cell (11c1c37f851c82e70ff6c80c92926a4b)
REM AIRSS Version 0.9.1 bugfix July 2018 build 013d7b7c2542+ Fri, 06 Jul 2018 19:26:36 +0100
REM compiler GCC version 9.2.1 20190827 (Red Hat 9.2.1-1)
REM options -cpp -mtune=generic -march=x86-64 -g -O0 -fpre-include=/usr/include/finclude/math-vector-fortran.h
REM seed -1411148452 735784863 1348188408 471644878 -1851976860 1253860585 1334710009 686206782 -1071466843 1348957458 -1895193407 351796968 690472550 1356372097 1559183657 -548015416 -281888077 699180832 39575232 360777539 -431716732 121210719 -1829581245 1342226005 -983759760 -1388934343 229043341 -2145892400 -1538639466 -732443074 820930526 -217770536 201323798
REM
CELL 1.54180   50.00000   50.00000   50.00000   90.00000   90.00000   90.00000
LATT -1
SFAC C  
C      1  0.5333300000000  0.5294700000000  0.4504830000000 1.0
C      1  0.3745700000000  0.5085230000000  0.4449660000000 1.0
C      1  0.5525030000000  0.5844660000000  0.5402530000000 1.0
C      1  0.4106940000000  0.5006490000000  0.4766080000000 1.0
C      1  0.6141340000000  0.5098030000000  0.5314540000000 1.0
C      1  0.4392700000000  0.3611990000000  0.4741420000000 1.0
C      1  0.4016500000000  0.4714290000000  0.5380600000000 1.0
C      1  0.6078520000000  0.4771120000000  0.4671760000000 1.0
C      1  0.5470190000000  0.5186490000000  0.4918940000000 1.0
C      1  0.4557290000000  0.4314540000000  0.4820130000000 1.0
C      1  0.4517230000000  0.5834360000000  0.5445490000000 1.0
C      1  0.5557850000000  0.4698300000000  0.5056150000000 1.0
C      1  0.4346510000000  0.4815400000000  0.3881250000000 1.0
C      1  0.5686640000000  0.4675040000000  0.4388490000000 1.0
C      1  0.5757870000000  0.5788250000000  0.4914700000000 1.0
C      1  0.4514250000000  0.5304570000000  0.5436110000000 1.0
C      1  0.4682510000000  0.4544010000000  0.6090950000000 1.0
C      1  0.4422520000000  0.5411390000000  0.5969590000000 1.0
C      1  0.5400790000000  0.4243010000000  0.4816950000000 1.0
C      1  0.5652730000000  0.5765660000000  0.4622400000000 1.0
C      1  0.5305750000000  0.5844090000000  0.4936090000000 1.0
C      1  0.4392760000000  0.4394270000000  0.5425590000000 1.0
C      1  0.4430400000000  0.4321550000000  0.5685730000000 1.0
C      1  0.4593490000000  0.5561570000000  0.5445750000000 1.0
C      1  0.4448280000000  0.5540870000000  0.3892140000000 1.0
C      1  0.4013320000000  0.4442090000000  0.4862980000000 1.0
C      1  0.4292270000000  0.5763490000000  0.4921860000000 1.0
C      1  0.5913270000000  0.4553930000000  0.4536790000000 1.0
C      1  0.4727640000000  0.4691890000000  0.5453800000000 1.0
C      1  0.5621240000000  0.4548870000000  0.6067020000000 1.0
C      1  0.5270170000000  0.5008140000000  0.4928590000000 1.0
C      1  0.5390260000000  0.4399280000000  0.5404470000000 1.0
C      1  0.4538000000000  0.5901630000000  0.4560300000000 1.0
C      1  0.5299080000000  0.3966940000000  0.4837750000000 1.0
C      1  0.4635800000000  0.6016080000000  0.5267060000000 1.0
C      1  0.4913670000000  0.5177110000000  0.5910670000000 1.0
C      1  0.5107530000000  0.5452380000000  0.4551330000000 1.0
C      1  0.5251770000000  0.4562680000000  0.3907920000000 1.0
C      1  0.5006380000000  0.4751440000000  0.5406490000000 1.0
C      1  0.4679210000000  0.5430830000000  0.4822220000000 1.0
C      1  0.4640300000000  0.5609860000000  0.5961450000000 1.0
C      1  0.5856140000000  0.4389020000000  0.4941440000000 1.0
C      1  0.5022630000000  0.4501590000000  0.4030860000000 1.0
C      1  0.4743900000000  0.5897580000000  0.4776660000000 1.0
C      1  0.3976160000000  0.4588220000000  0.5128070000000 1.0
C      1  0.5427190000000  0.4883650000000  0.5605340000000 1.0
C      1  0.5154080000000  0.5495090000000  0.3940350000000 1.0
C      1  0.4344150000000  0.4874240000000  0.4862790000000 1.0
C      1  0.3897410000000  0.5465400000000  0.4709790000000 1.0
C      1  0.4659040000000  0.5391590000000  0.4522550000000 1.0
C      1  0.4532020000000  0.4892440000000  0.4417510000000 1.0
C      1  0.4013850000000  0.4539150000000  0.4580980000000 1.0
C      1  0.4639660000000  0.4892430000000  0.5642920000000 1.0
C      1  0.5173850000000  0.4313380000000  0.5230000000000 1.0
C      1  0.3580140000000  0.5012790000000  0.4261870000000 1.0
C      1  0.5088100000000  0.3881820000000  0.4655170000000 1.0
C      1  0.5911550000000  0.5047680000000  0.5186740000000 1.0
C      1  0.5536890000000  0.5866020000000  0.5103190000000 1.0
C      1  0.6022810000000  0.4527890000000  0.5129250000000 1.0
C      1  0.5157500000000  0.3822540000000  0.4395860000000 1.0
C      1  0.5982790000000  0.5700750000000  0.5064720000000 1.0
C      1  0.5079780000000  0.4862400000000  0.4782570000000 1.0
C      1  0.5673610000000  0.4290500000000  0.5383690000000 1.0
C      1  0.5159220000000  0.4511710000000  0.5826920000000 1.0
C      1  0.5365560000000  0.5311840000000  0.5370790000000 1.0
C      1  0.5335910000000  0.5032450000000  0.4387410000000 1.0
C      1  0.5939080000000  0.4011820000000  0.4741470000000 1.0
C      1  0.5755770000000  0.5677980000000  0.5516750000000 1.0
C      1  0.5661500000000  0.4921040000000  0.5200380000000 1.0
C      1  0.4271130000000  0.5830220000000  0.4643160000000 1.0
C      1  0.4959990000000  0.5225240000000  0.5189400000000 1.0
C      1  0.4097980000000  0.4576340000000  0.4318320000000 1.0
C      1  0.4952680000000  0.5484360000000  0.4115760000000 1.0
C      1  0.4269630000000  0.5311840000000  0.5071900000000 1.0
C      1  0.5219530000000  0.5542480000000  0.5790640000000 1.0
C      1  0.4834180000000  0.5778950000000  0.5860190000000 1.0
C      1  0.4796150000000  0.4538680000000  0.4166930000000 1.0
C      1  0.5676870000000  0.5454190000000  0.5693160000000 1.0
C      1  0.4744510000000  0.5033830000000  0.6098020000000 1.0
C      1  0.5400530000000  0.5430590000000  0.5620650000000 1.0
C      1  0.5144590000000  0.4711950000000  0.6045060000000 1.0
C      1  0.5529880000000  0.4975620000000  0.5861060000000 1.0
C      1  0.5484590000000  0.4297650000000  0.6084340000000 1.0
C      1  0.5996740000000  0.4577400000000  0.5655710000000 1.0
C      1  0.4527380000000  0.3849280000000  0.4761750000000 1.0
C      1  0.5477720000000  0.5043700000000  0.5375690000000 1.0
C      1  0.4172150000000  0.5506280000000  0.5866690000000 1.0
C      1  0.5936070000000  0.4297140000000  0.4682820000000 1.0
C      1  0.4502160000000  0.4626550000000  0.5293990000000 1.0
C      1  0.4094640000000  0.5852780000000  0.5098420000000 1.0
C      1  0.4532110000000  0.5024080000000  0.3787330000000 1.0
C      1  0.4642590000000  0.5843210000000  0.4296770000000 1.0
C      1  0.4278340000000  0.5881760000000  0.5590090000000 1.0
C      1  0.5024110000000  0.4384500000000  0.5001770000000 1.0
C      1  0.3885410000000  0.5633270000000  0.5464770000000 1.0
C      1  0.5200460000000  0.4653690000000  0.4631130000000 1.0
C      1  0.4464380000000  0.5116970000000  0.5999270000000 1.0
C      1  0.5405580000000  0.4754670000000  0.4457130000000 1.0
C      1  0.4384460000000  0.5116820000000  0.4311890000000 1.0
C      1  0.4754300000000  0.4401160000000  0.4970140000000 1.0
C      1  0.5261990000000  0.4256390000000  0.5911420000000 1.0
C      1  0.4714980000000  0.6054190000000  0.5012860000000 1.0
C      1  0.4486700000000  0.5619570000000  0.4161840000000 1.0
C      1  0.5729720000000  0.5592980000000  0.4391780000000 1.0
C      1  0.6162500000000  0.4711550000000  0.4946920000000 1.0
C      1  0.3883280000000  0.5683260000000  0.5185280000000 1.0
C      1  0.4443340000000  0.5296080000000  0.3775270000000 1.0
C      1  0.5857140000000  0.3937260000000  0.5000820000000 1.0
C      1  0.4563550000000  0.4664930000000  0.4251720000000 1.0
C      1  0.5748040000000  0.4043450000000  0.5234440000000 1.0
C      1  0.5317060000000  0.3816620000000  0.5075920000000 1.0
C      1  0.5162810000000  0.5426910000000  0.5193000000000 1.0
C      1  0.5214230000000  0.3840770000000  0.5585110000000 1.0
C      1  0.5098040000000  0.5790080000000  0.5737930000000 1.0
C      1  0.5276470000000  0.5949090000000  0.5559440000000 1.0
C      1  0.5782460000000  0.4869170000000  0.4193100000000 1.0
C      1  0.5747290000000  0.5348220000000  0.4227620000000 1.0
C      1  0.4573850000000  0.4873400000000  0.4693260000000 1.0
C      1  0.4444890000000  0.5390800000000  0.4341760000000 1.0
C      1  0.4813520000000  0.3856610000000  0.4732710000000 1.0
C      1  0.5542580000000  0.5205790000000  0.3968840000000 1.0
C      1  0.5253300000000  0.4631500000000  0.5562160000000 1.0
C      1  0.4862550000000  0.4764680000000  0.6128780000000 1.0
C      1  0.4988260000000  0.5045670000000  0.5402090000000 1.0
C      1  0.5117160000000  0.5649770000000  0.5016780000000 1.0
C      1  0.4420870000000  0.5513140000000  0.4949440000000 1.0
C      1  0.4121270000000  0.4172060000000  0.4876200000000 1.0
C      1  0.4929870000000  0.5922580000000  0.4296480000000 1.0
C      1  0.6061450000000  0.5028970000000  0.4540860000000 1.0
C      1  0.5203270000000  0.4013630000000  0.5787920000000 1.0
C      1  0.4902930000000  0.5635810000000  0.4820750000000 1.0
C      1  0.5220400000000  0.6218040000000  0.5532270000000 1.0
C      1  0.5710100000000  0.5208640000000  0.5851090000000 1.0
C      1  0.4303690000000  0.4645660000000  0.4119990000000 1.0
C      1  0.5281260000000  0.5258860000000  0.3858280000000 1.0
C      1  0.3781080000000  0.5533900000000  0.4965150000000 1.0
C      1  0.6215110000000  0.4756110000000  0.5652900000000 1.0
C      1  0.5463400000000  0.4720110000000  0.3861520000000 1.0
C      1  0.5530010000000  0.5321520000000  0.4700580000000 1.0
C      1  0.4084680000000  0.5683250000000  0.5662560000000 1.0
C      1  0.5898370000000  0.5106680000000  0.4317950000000 1.0
C      1  0.5168510000000  0.5934490000000  0.4438780000000 1.0
C      1  0.4539000000000  0.4387880000000  0.5923960000000 1.0
C      1  0.4902780000000  0.5418270000000  0.4380950000000 1.0
C      1  0.5176510000000  0.4409760000000  0.4759550000000 1.0
C      1  0.4817330000000  0.4955120000000  0.4806920000000 1.0
C      1  0.4854560000000  0.5097520000000  0.5649650000000 1.0
C      1  0.6274540000000  0.4978050000000  0.5514200000000 1.0
C      1  0.5851560000000  0.4550360000000  0.5898330000000 1.0
C      1  0.5582200000000  0.4434870000000  0.4948430000000 1.0
C      1  0.4144820000000  0.4835250000000  0.5605540000000 1.0
C      1  0.5621010000000  0.4927330000000  0.3967440000000 1.0
C      1  0.5262540000000  0.3768640000000  0.5332830000000 1.0
C      1  0.4379150000000  0.4940520000000  0.5764950000000 1.0
C      1  0.5910300000000  0.4473850000000  0.5401240000000 1.0
C      1  0.3920850000000  0.5185510000000  0.4643980000000 1.0
C      1  0.5978160000000  0.5664890000000  0.5335990000000 1.0
C      1  0.4800330000000  0.5194570000000  0.4959520000000 1.0
C      1  0.5366230000000  0.5872960000000  0.4643720000000 1.0
C      1  0.4387040000000  0.4094470000000  0.4811870000000 1.0
C      1  0.4379520000000  0.5128920000000  0.5257790000000 1.0
C      1  0.4399790000000  0.4859680000000  0.5147170000000 1.0
C      1  0.4040270000000  0.5672840000000  0.4560640000000 1.0
C      1  0.4818490000000  0.4994240000000  0.3755130000000 1.0
C      1  0.5080990000000  0.5070520000000  0.3762970000000 1.0
C      1  0.5441910000000  0.4787050000000  0.6065090000000 1.0
END
