TITL C-627112-676-257 -4.34465973842969 125000 -642.318130921649 0 0 106 (C1) n - 1
REM
REM in /home/nfs/bkarasulu/CARBON/AIRSS/Generating-Clusters/LCBOP/Only-C1/SD-CG/FIRE-CG
REM
REM
REM
REM
REM
REM ./C.cell (11c1c37f851c82e70ff6c80c92926a4b)
REM AIRSS Version 0.9.1 bugfix July 2018 build 013d7b7c2542+ Fri, 06 Jul 2018 19:26:36 +0100
REM compiler GCC version 9.2.1 20190827 (Red Hat 9.2.1-1)
REM options -cpp -mtune=generic -march=x86-64 -g -O0 -fpre-include=/usr/include/finclude/math-vector-fortran.h
REM seed 1887417821 1859650386 -1842529566 1704320698 -2086866523 597167605 -854275415 -861978266 -736832374 -1432537007 829644439 2093714218 -24584892 -1184656604 -1689030966 1607410589 -1650752622 254841634 -196291743 1697981395 586492574 -842156413 -111023178 -663719233 -753531347 869518916 -1809196033 -1663649097 686283637 -1253373152 -968239942 271481573 -1099546003
REM
CELL 1.54180   50.00000   50.00000   50.00000   90.00000   90.00000   90.00000
LATT -1
SFAC C  
C      1  0.5143250000000  0.5477740000000  0.4760430000000 1.0
C      1  0.5380890000000  0.4160370000000  0.4848790000000 1.0
C      1  0.4255570000000  0.4068010000000  0.5303980000000 1.0
C      1  0.5041190000000  0.4620450000000  0.4196240000000 1.0
C      1  0.4648450000000  0.4486920000000  0.5356550000000 1.0
C      1  0.4870710000000  0.4218580000000  0.4657700000000 1.0
C      1  0.5509180000000  0.4651860000000  0.5889220000000 1.0
C      1  0.5679540000000  0.5947220000000  0.5233510000000 1.0
C      1  0.5682160000000  0.4560700000000  0.5150300000000 1.0
C      1  0.5950870000000  0.6309950000000  0.6127590000000 1.0
C      1  0.4790660000000  0.5751870000000  0.4857640000000 1.0
C      1  0.5512200000000  0.4412440000000  0.5329040000000 1.0
C      1  0.4848500000000  0.4287070000000  0.4910300000000 1.0
C      1  0.5846490000000  0.6264780000000  0.5893020000000 1.0
C      1  0.4403430000000  0.4784740000000  0.3814590000000 1.0
C      1  0.5428260000000  0.4414640000000  0.4435110000000 1.0
C      1  0.5739760000000  0.6219330000000  0.5654840000000 1.0
C      1  0.3981790000000  0.4111910000000  0.5345770000000 1.0
C      1  0.5326140000000  0.4572630000000  0.4221690000000 1.0
C      1  0.4183940000000  0.4955450000000  0.3785870000000 1.0
C      1  0.5173590000000  0.6766690000000  0.5480370000000 1.0
C      1  0.4942050000000  0.5127290000000  0.5221680000000 1.0
C      1  0.5065590000000  0.5205710000000  0.4763140000000 1.0
C      1  0.5224670000000  0.4167220000000  0.5084070000000 1.0
C      1  0.5084490000000  0.3947380000000  0.5201010000000 1.0
C      1  0.4776820000000  0.4350080000000  0.5165330000000 1.0
C      1  0.3873040000000  0.4271340000000  0.5798910000000 1.0
C      1  0.4739510000000  0.6020610000000  0.4919450000000 1.0
C      1  0.4396720000000  0.4372630000000  0.4919440000000 1.0
C      1  0.4494760000000  0.6147500000000  0.5010570000000 1.0
C      1  0.5554680000000  0.5451340000000  0.5392030000000 1.0
C      1  0.5283730000000  0.6117150000000  0.4318670000000 1.0
C      1  0.5835450000000  0.4996420000000  0.5376270000000 1.0
C      1  0.5848980000000  0.4756390000000  0.5261470000000 1.0
C      1  0.4765000000000  0.6486920000000  0.4881650000000 1.0
C      1  0.4604320000000  0.4866200000000  0.4001220000000 1.0
C      1  0.5690800000000  0.5687940000000  0.5330870000000 1.0
C      1  0.5455620000000  0.4852120000000  0.4818820000000 1.0
C      1  0.5492260000000  0.4380230000000  0.4709090000000 1.0
C      1  0.5628540000000  0.4425180000000  0.5795470000000 1.0
C      1  0.4415050000000  0.3988170000000  0.5528960000000 1.0
C      1  0.4549410000000  0.4599810000000  0.4867120000000 1.0
C      1  0.5382400000000  0.6229080000000  0.5017860000000 1.0
C      1  0.5504840000000  0.4278020000000  0.5585380000000 1.0
C      1  0.4993150000000  0.4779300000000  0.4669820000000 1.0
C      1  0.5425960000000  0.6338700000000  0.5277230000000 1.0
C      1  0.5197500000000  0.6222570000000  0.4799420000000 1.0
C      1  0.4844540000000  0.4602910000000  0.3994050000000 1.0
C      1  0.4100700000000  0.4340430000000  0.5923700000000 1.0
C      1  0.4519470000000  0.4161950000000  0.5747580000000 1.0
C      1  0.4443900000000  0.4645480000000  0.5762740000000 1.0
C      1  0.4395800000000  0.4903700000000  0.5337820000000 1.0
C      1  0.5577830000000  0.4601270000000  0.4878250000000 1.0
C      1  0.5628440000000  0.5009720000000  0.4193310000000 1.0
C      1  0.4609270000000  0.3772980000000  0.5518800000000 1.0
C      1  0.5105280000000  0.5253150000000  0.4196170000000 1.0
C      1  0.5577630000000  0.6005900000000  0.4971140000000 1.0
C      1  0.5108410000000  0.3923940000000  0.5486290000000 1.0
C      1  0.4912800000000  0.5066360000000  0.4276140000000 1.0
C      1  0.5667430000000  0.5698930000000  0.4575270000000 1.0
C      1  0.5704210000000  0.5219510000000  0.5435900000000 1.0
C      1  0.5038300000000  0.5402840000000  0.5222530000000 1.0
C      1  0.4127750000000  0.5190990000000  0.3904490000000 1.0
C      1  0.4810410000000  0.4736760000000  0.4891740000000 1.0
C      1  0.5713130000000  0.5469490000000  0.4445980000000 1.0
C      1  0.4389530000000  0.4109010000000  0.5051220000000 1.0
C      1  0.4862910000000  0.3854580000000  0.5624090000000 1.0
C      1  0.4778480000000  0.5672690000000  0.4568440000000 1.0
C      1  0.4538870000000  0.5170260000000  0.4918050000000 1.0
C      1  0.5273630000000  0.5447280000000  0.5373750000000 1.0
C      1  0.4405210000000  0.5072750000000  0.5129770000000 1.0
C      1  0.5699930000000  0.5238520000000  0.4311930000000 1.0
C      1  0.4993870000000  0.5584210000000  0.4996240000000 1.0
C      1  0.4514610000000  0.6422990000000  0.4983210000000 1.0
C      1  0.5623310000000  0.6172130000000  0.5408470000000 1.0
C      1  0.4493710000000  0.4684300000000  0.5485260000000 1.0
C      1  0.4366680000000  0.4381940000000  0.5840510000000 1.0
C      1  0.4656550000000  0.5091460000000  0.4162260000000 1.0
C      1  0.4483900000000  0.4535200000000  0.3699650000000 1.0
C      1  0.5498850000000  0.4782060000000  0.4137470000000 1.0
C      1  0.4772460000000  0.5187100000000  0.4784770000000 1.0
C      1  0.5234180000000  0.4694030000000  0.5828120000000 1.0
C      1  0.5301250000000  0.6560730000000  0.5384520000000 1.0
C      1  0.5331170000000  0.6079660000000  0.4583910000000 1.0
C      1  0.4724270000000  0.4439370000000  0.3797260000000 1.0
C      1  0.5256600000000  0.4128450000000  0.5645510000000 1.0
C      1  0.4501590000000  0.5329460000000  0.4222460000000 1.0
C      1  0.5151900000000  0.5506000000000  0.4272510000000 1.0
C      1  0.5240710000000  0.4424070000000  0.5227020000000 1.0
C      1  0.4594790000000  0.3911280000000  0.4999330000000 1.0
C      1  0.5546630000000  0.5917870000000  0.4699480000000 1.0
C      1  0.4934080000000  0.4843330000000  0.5146080000000 1.0
C      1  0.5061860000000  0.5608160000000  0.4515550000000 1.0
C      1  0.4590280000000  0.5536900000000  0.4401680000000 1.0
C      1  0.4473900000000  0.4846450000000  0.5945070000000 1.0
C      1  0.4255330000000  0.5345510000000  0.4084470000000 1.0
C      1  0.4797560000000  0.4091290000000  0.5798700000000 1.0
C      1  0.4922980000000  0.6245440000000  0.4843630000000 1.0
C      1  0.3823010000000  0.4183920000000  0.5549760000000 1.0
C      1  0.5106340000000  0.4671410000000  0.5303360000000 1.0
C      1  0.5165780000000  0.4770770000000  0.5565040000000 1.0
C      1  0.4959070000000  0.4809360000000  0.4392810000000 1.0
C      1  0.5206790000000  0.4960510000000  0.4752960000000 1.0
C      1  0.5044240000000  0.4235660000000  0.5830440000000 1.0
C      1  0.4850430000000  0.3844680000000  0.5068690000000 1.0
C      1  0.5065520000000  0.4494260000000  0.5937160000000 1.0
END
