TITL C-627111-6168-913 444.046929347937 125000 -1044.91308444511 0 0 168 (C1) n - 1
REM
REM in /home/nfs/bkarasulu/CARBON/AIRSS/Generating-Clusters/LCBOP/Only-C1/SD-CG/FIRE-CG
REM
REM
REM
REM
REM
REM ./C.cell (11c1c37f851c82e70ff6c80c92926a4b)
REM AIRSS Version 0.9.1 bugfix July 2018 build 013d7b7c2542+ Fri, 06 Jul 2018 19:26:36 +0100
REM compiler GCC version 9.2.1 20190827 (Red Hat 9.2.1-1)
REM options -cpp -mtune=generic -march=x86-64 -g -O0 -fpre-include=/usr/include/finclude/math-vector-fortran.h
REM seed -1678659814 -1276901891 -415984040 -928741632 -837494608 -3304308 -1785283946 -907403994 -1476664888 -818827762 -751248924 1646039504 -1660172742 1758182106 -2137762609 1070124588 -683308373 -556860264 1242913026 1832477401 575471732 1365945863 -1285594080 -68546714 -1246436174 -1670012878 -267149187 -969384608 -10488959 -1285149491 -219171599 1661049248 -904841091
REM
CELL 1.54180   50.00000   50.00000   50.00000   90.00000   90.00000   90.00000
LATT -1
SFAC C  
C      1  0.5199640000000  0.4952240000000  0.3922460000000 1.0
C      1  0.4832880000000  0.4578880000000  0.4763600000000 1.0
C      1  0.4911910000000  0.4794330000000  0.4576800000000 1.0
C      1  0.6221260000000  0.4922800000000  0.5081260000000 1.0
C      1  0.4772690000000  0.6136470000000  0.5360020000000 1.0
C      1  0.4291260000000  0.4774610000000  0.4542900000000 1.0
C      1  0.4713360000000  0.5331140000000  0.4945230000000 1.0
C      1  0.5305120000000  0.5933810000000  0.4649220000000 1.0
C      1  0.4447130000000  0.4081450000000  0.5457250000000 1.0
C      1  0.4576230000000  0.4555540000000  0.5175910000000 1.0
C      1  0.5121010000000  0.5512060000000  0.5206990000000 1.0
C      1  0.4847240000000  0.5182160000000  0.3689570000000 1.0
C      1  0.5086660000000  0.5020280000000  0.4512260000000 1.0
C      1  0.5260210000000  0.4424510000000  0.4631600000000 1.0
C      1  0.4993450000000  0.3935570000000  0.4536370000000 1.0
C      1  0.4666690000000  0.5402740000000  0.5222360000000 1.0
C      1  0.4293270000000  0.6098860000000  0.4970940000000 1.0
C      1  0.3739670000000  0.4811480000000  0.4536670000000 1.0
C      1  0.4263280000000  0.5088870000000  0.5166170000000 1.0
C      1  0.4906620000000  0.6257700000000  0.5578040000000 1.0
C      1  0.5171690000000  0.5489030000000  0.4743770000000 1.0
C      1  0.4748220000000  0.5908520000000  0.4559440000000 1.0
C      1  0.6175800000000  0.4838150000000  0.4805510000000 1.0
C      1  0.4416580000000  0.4486900000000  0.5672150000000 1.0
C      1  0.4507710000000  0.5219170000000  0.4106800000000 1.0
C      1  0.5532510000000  0.4060040000000  0.4982410000000 1.0
C      1  0.5700660000000  0.4621070000000  0.5815180000000 1.0
C      1  0.4327260000000  0.5697700000000  0.4335210000000 1.0
C      1  0.5470280000000  0.5351740000000  0.5771610000000 1.0
C      1  0.4956180000000  0.4276200000000  0.5434880000000 1.0
C      1  0.4850250000000  0.4251080000000  0.5700320000000 1.0
C      1  0.4276680000000  0.4121890000000  0.4972200000000 1.0
C      1  0.5140520000000  0.4737690000000  0.5493450000000 1.0
C      1  0.5447840000000  0.4926300000000  0.6043390000000 1.0
C      1  0.4645920000000  0.5480900000000  0.6253580000000 1.0
C      1  0.4730200000000  0.4535550000000  0.4221580000000 1.0
C      1  0.3951760000000  0.4899980000000  0.4070410000000 1.0
C      1  0.5235500000000  0.6092070000000  0.5152030000000 1.0
C      1  0.5014790000000  0.5674140000000  0.5831350000000 1.0
C      1  0.4144560000000  0.5754630000000  0.5291010000000 1.0
C      1  0.5604920000000  0.4792910000000  0.4227190000000 1.0
C      1  0.5191410000000  0.4533940000000  0.5920660000000 1.0
C      1  0.5242370000000  0.4043150000000  0.5890120000000 1.0
C      1  0.4309540000000  0.5573420000000  0.5448560000000 1.0
C      1  0.5049550000000  0.4726910000000  0.5762400000000 1.0
C      1  0.4619100000000  0.3961480000000  0.5258660000000 1.0
C      1  0.5781630000000  0.4899570000000  0.5706300000000 1.0
C      1  0.5809540000000  0.4802680000000  0.4449680000000 1.0
C      1  0.4053910000000  0.4686130000000  0.4946040000000 1.0
C      1  0.6112870000000  0.4364230000000  0.5868410000000 1.0
C      1  0.5017820000000  0.6020060000000  0.4590830000000 1.0
C      1  0.5672930000000  0.5508560000000  0.5645320000000 1.0
C      1  0.5451290000000  0.4642160000000  0.5979440000000 1.0
C      1  0.5036990000000  0.5615550000000  0.4956430000000 1.0
C      1  0.4067950000000  0.4732460000000  0.5449800000000 1.0
C      1  0.5586200000000  0.5305230000000  0.4106950000000 1.0
C      1  0.5237410000000  0.5783550000000  0.4170170000000 1.0
C      1  0.5708780000000  0.5042940000000  0.5112660000000 1.0
C      1  0.5397250000000  0.5338950000000  0.4660330000000 1.0
C      1  0.5346360000000  0.5110740000000  0.4507970000000 1.0
C      1  0.4467350000000  0.3915350000000  0.5022120000000 1.0
C      1  0.4561640000000  0.4234980000000  0.5682900000000 1.0
C      1  0.4314550000000  0.6078190000000  0.4703520000000 1.0
C      1  0.6154250000000  0.5338300000000  0.4859290000000 1.0
C      1  0.4704680000000  0.5074920000000  0.4263940000000 1.0
C      1  0.4807630000000  0.4943190000000  0.5221010000000 1.0
C      1  0.5699490000000  0.4125610000000  0.5775890000000 1.0
C      1  0.4297330000000  0.4659440000000  0.4279050000000 1.0
C      1  0.5452300000000  0.4002660000000  0.5702360000000 1.0
C      1  0.4389990000000  0.5331310000000  0.5309080000000 1.0
C      1  0.5093570000000  0.5213040000000  0.3840450000000 1.0
C      1  0.5384230000000  0.4029210000000  0.5422980000000 1.0
C      1  0.3924110000000  0.5682510000000  0.5136940000000 1.0
C      1  0.6044070000000  0.5250640000000  0.4597620000000 1.0
C      1  0.5383190000000  0.5934070000000  0.4953230000000 1.0
C      1  0.5818320000000  0.4507120000000  0.5144750000000 1.0
C      1  0.4301340000000  0.4568030000000  0.4774210000000 1.0
C      1  0.4763400000000  0.5611730000000  0.4234270000000 1.0
C      1  0.4746940000000  0.4794580000000  0.4334840000000 1.0
C      1  0.5656700000000  0.5441820000000  0.4709060000000 1.0
C      1  0.5333350000000  0.6145760000000  0.5415720000000 1.0
C      1  0.5670880000000  0.5515340000000  0.4276550000000 1.0
C      1  0.4304270000000  0.4264140000000  0.4718780000000 1.0
C      1  0.4494140000000  0.4212210000000  0.4481220000000 1.0
C      1  0.4069360000000  0.4914390000000  0.5669990000000 1.0
C      1  0.4368820000000  0.5314940000000  0.4600990000000 1.0
C      1  0.5072480000000  0.5343710000000  0.4089120000000 1.0
C      1  0.5258450000000  0.3899900000000  0.4597850000000 1.0
C      1  0.4434600000000  0.4995550000000  0.3922210000000 1.0
C      1  0.6153520000000  0.4781810000000  0.5331720000000 1.0
C      1  0.4711190000000  0.5644240000000  0.5795230000000 1.0
C      1  0.5837160000000  0.5419940000000  0.4491280000000 1.0
C      1  0.5441020000000  0.4317060000000  0.5371010000000 1.0
C      1  0.4962400000000  0.5184030000000  0.4303300000000 1.0
C      1  0.4781870000000  0.4794070000000  0.5812230000000 1.0
C      1  0.5458460000000  0.4617350000000  0.4729590000000 1.0
C      1  0.5741730000000  0.4775960000000  0.5084420000000 1.0
C      1  0.5160260000000  0.6144920000000  0.5643960000000 1.0
C      1  0.5736090000000  0.5616940000000  0.4909670000000 1.0
C      1  0.3852610000000  0.5615310000000  0.4888520000000 1.0
C      1  0.5054260000000  0.4375760000000  0.4855050000000 1.0
C      1  0.4583090000000  0.4716250000000  0.5630710000000 1.0
C      1  0.4704840000000  0.4937990000000  0.3780500000000 1.0
C      1  0.5897780000000  0.5453690000000  0.5504480000000 1.0
C      1  0.3779840000000  0.4879740000000  0.4279170000000 1.0
C      1  0.5335200000000  0.4755040000000  0.4956920000000 1.0
C      1  0.4501220000000  0.5518800000000  0.4153180000000 1.0
C      1  0.4184460000000  0.5511310000000  0.4507990000000 1.0
C      1  0.5838910000000  0.4370280000000  0.5813820000000 1.0
C      1  0.4955360000000  0.4779090000000  0.3868640000000 1.0
C      1  0.5068880000000  0.4268580000000  0.5894780000000 1.0
C      1  0.6060380000000  0.4516280000000  0.5291000000000 1.0
C      1  0.4455910000000  0.5944570000000  0.4496620000000 1.0
C      1  0.5144140000000  0.5926180000000  0.5820860000000 1.0
C      1  0.5175790000000  0.4542290000000  0.5070420000000 1.0
C      1  0.4187840000000  0.4473610000000  0.5483050000000 1.0
C      1  0.5307580000000  0.3956980000000  0.5140980000000 1.0
C      1  0.5182110000000  0.5432350000000  0.5776670000000 1.0
C      1  0.4699320000000  0.5046460000000  0.4976030000000 1.0
C      1  0.4626720000000  0.5430670000000  0.4692430000000 1.0
C      1  0.5273770000000  0.4993760000000  0.5106350000000 1.0
C      1  0.5474280000000  0.5194690000000  0.5151680000000 1.0
C      1  0.4937720000000  0.4346140000000  0.4285480000000 1.0
C      1  0.5181760000000  0.4470480000000  0.5360420000000 1.0
C      1  0.5076810000000  0.4940220000000  0.5300600000000 1.0
C      1  0.4309310000000  0.5985330000000  0.5227810000000 1.0
C      1  0.4913290000000  0.5409230000000  0.5365940000000 1.0
C      1  0.4870450000000  0.4084510000000  0.5239830000000 1.0
C      1  0.4089200000000  0.4849940000000  0.5191920000000 1.0
C      1  0.4226800000000  0.4235800000000  0.5307200000000 1.0
C      1  0.4761970000000  0.5621650000000  0.4523730000000 1.0
C      1  0.5528730000000  0.5704380000000  0.5072080000000 1.0
C      1  0.5824790000000  0.4330970000000  0.4563130000000 1.0
C      1  0.6041760000000  0.5238990000000  0.5388500000000 1.0
C      1  0.6001990000000  0.4966110000000  0.5517120000000 1.0
C      1  0.5019290000000  0.5616670000000  0.4116710000000 1.0
C      1  0.4226980000000  0.4827950000000  0.4051320000000 1.0
C      1  0.4378000000000  0.5279670000000  0.5902370000000 1.0
C      1  0.4465170000000  0.4426610000000  0.4268020000000 1.0
C      1  0.6368520000000  0.4368830000000  0.5918810000000 1.0
C      1  0.4579400000000  0.4578340000000  0.4898070000000 1.0
C      1  0.5629930000000  0.4298860000000  0.5143570000000 1.0
C      1  0.5057390000000  0.4063600000000  0.5038180000000 1.0
C      1  0.6024560000000  0.4959190000000  0.4580150000000 1.0
C      1  0.5211710000000  0.4422220000000  0.4348680000000 1.0
C      1  0.5725850000000  0.4081410000000  0.4550610000000 1.0
C      1  0.5425330000000  0.4556860000000  0.4203240000000 1.0
C      1  0.5399370000000  0.5472790000000  0.5199160000000 1.0
C      1  0.4872600000000  0.5841140000000  0.4986140000000 1.0
C      1  0.5513740000000  0.3983680000000  0.4706500000000 1.0
C      1  0.4945100000000  0.6063740000000  0.5141060000000 1.0
C      1  0.5005540000000  0.5288430000000  0.5602280000000 1.0
C      1  0.6167410000000  0.5211080000000  0.5117910000000 1.0
C      1  0.4722200000000  0.5493560000000  0.6502440000000 1.0
C      1  0.4539590000000  0.5983380000000  0.5406430000000 1.0
C      1  0.5439870000000  0.5768700000000  0.4367340000000 1.0
C      1  0.5575200000000  0.5088120000000  0.5839560000000 1.0
C      1  0.3946930000000  0.5560000000000  0.4644830000000 1.0
C      1  0.3824790000000  0.4733700000000  0.4780370000000 1.0
C      1  0.4642840000000  0.4757390000000  0.5355820000000 1.0
C      1  0.4577010000000  0.5465690000000  0.5982730000000 1.0
C      1  0.5460070000000  0.5039970000000  0.4164600000000 1.0
C      1  0.5718490000000  0.4586020000000  0.4617400000000 1.0
C      1  0.4799710000000  0.4127080000000  0.4443120000000 1.0
C      1  0.4419340000000  0.5011970000000  0.4932940000000 1.0
C      1  0.4535640000000  0.5738390000000  0.5577310000000 1.0
C      1  0.4330170000000  0.5037480000000  0.4661040000000 1.0
C      1  0.4195880000000  0.5102260000000  0.5815560000000 1.0
END
