TITL C-627112-676-639 6248.69423985225 125000 -840.393411446527 0 0 139 (C1) n - 1
REM
REM in /home/nfs/bkarasulu/CARBON/AIRSS/Generating-Clusters/LCBOP/Only-C1/SD-CG/FIRE-CG
REM
REM
REM
REM
REM
REM ./C.cell (11c1c37f851c82e70ff6c80c92926a4b)
REM AIRSS Version 0.9.1 bugfix July 2018 build 013d7b7c2542+ Fri, 06 Jul 2018 19:26:36 +0100
REM compiler GCC version 9.2.1 20190827 (Red Hat 9.2.1-1)
REM options -cpp -mtune=generic -march=x86-64 -g -O0 -fpre-include=/usr/include/finclude/math-vector-fortran.h
REM seed -1198678937 727454119 1440602611 357514458 -681961857 912974863 1941412331 154594813 -1827540063 2117096565 -1208590532 580843520 1201396690 -1946026777 2116833707 -1396013608 562870346 -98675334 9369687 -367677986 -1290043323 -682744533 -658703344 -1684977540 1367475568 -2109187921 -1982928867 1003794405 -1432800230 66227274 262485189 -1407594394 -689321319
REM
CELL 1.54180   50.00000   50.00000   50.00000   90.00000   90.00000   90.00000
LATT -1
SFAC C  
C      1  0.4595250000000  0.4646490000000  0.3973920000000 1.0
C      1  0.4143870000000  0.5204450000000  0.5305400000000 1.0
C      1  0.4190850000000  0.5632530000000  0.4565520000000 1.0
C      1  0.5970540000000  0.5431960000000  0.5578830000000 1.0
C      1  0.5161660000000  0.3840950000000  0.5044090000000 1.0
C      1  0.6163890000000  0.5547070000000  0.5029320000000 1.0
C      1  0.4855330000000  0.4074140000000  0.5315380000000 1.0
C      1  0.4412270000000  0.5105680000000  0.5686670000000 1.0
C      1  0.4554020000000  0.4226990000000  0.5956600000000 1.0
C      1  0.5128490000000  0.4042690000000  0.5240950000000 1.0
C      1  0.4784630000000  0.4970420000000  0.4954720000000 1.0
C      1  0.4581060000000  0.5645320000000  0.4299060000000 1.0
C      1  0.5728390000000  0.4730540000000  0.5581370000000 1.0
C      1  0.4498870000000  0.5936650000000  0.5023620000000 1.0
C      1  0.4441140000000  0.5759130000000  0.4522200000000 1.0
C      1  0.5768670000000  0.5579430000000  0.5436490000000 1.0
C      1  0.3977490000000  0.5397320000000  0.5180320000000 1.0
C      1  0.5499120000000  0.5593870000000  0.4373160000000 1.0
C      1  0.5448700000000  0.4848120000000  0.4894450000000 1.0
C      1  0.5524210000000  0.4149030000000  0.4597640000000 1.0
C      1  0.5340530000000  0.5064980000000  0.5662890000000 1.0
C      1  0.5422840000000  0.5023960000000  0.4671020000000 1.0
C      1  0.3548070000000  0.3809210000000  0.4618740000000 1.0
C      1  0.4512670000000  0.4735460000000  0.4637170000000 1.0
C      1  0.5700380000000  0.5984920000000  0.4600580000000 1.0
C      1  0.5605640000000  0.5151090000000  0.4202930000000 1.0
C      1  0.3974850000000  0.4096450000000  0.4491830000000 1.0
C      1  0.3727430000000  0.5323180000000  0.5081250000000 1.0
C      1  0.4556180000000  0.4029100000000  0.4750210000000 1.0
C      1  0.5151850000000  0.5507590000000  0.4820160000000 1.0
C      1  0.4519260000000  0.5376090000000  0.4220730000000 1.0
C      1  0.4954270000000  0.5480080000000  0.5043440000000 1.0
C      1  0.5357140000000  0.5129360000000  0.4066870000000 1.0
C      1  0.5110270000000  0.5007600000000  0.4134310000000 1.0
C      1  0.5537800000000  0.4540060000000  0.4209140000000 1.0
C      1  0.5277270000000  0.5795710000000  0.5180180000000 1.0
C      1  0.4781600000000  0.4814570000000  0.4704530000000 1.0
C      1  0.4404740000000  0.4156750000000  0.5502420000000 1.0
C      1  0.6244990000000  0.5272190000000  0.4981350000000 1.0
C      1  0.4691930000000  0.5961960000000  0.5235870000000 1.0
C      1  0.3761410000000  0.3951630000000  0.4551960000000 1.0
C      1  0.5847990000000  0.5869770000000  0.4387860000000 1.0
C      1  0.5004100000000  0.5517970000000  0.6028720000000 1.0
C      1  0.5003710000000  0.4700140000000  0.4550390000000 1.0
C      1  0.4917290000000  0.4416710000000  0.5717820000000 1.0
C      1  0.5796870000000  0.5364970000000  0.4141720000000 1.0
C      1  0.5271320000000  0.4560090000000  0.4164340000000 1.0
C      1  0.4763160000000  0.5792610000000  0.4157790000000 1.0
C      1  0.4825880000000  0.4552440000000  0.5484990000000 1.0
C      1  0.4634130000000  0.5231370000000  0.5542840000000 1.0
C      1  0.4984590000000  0.5605240000000  0.5771680000000 1.0
C      1  0.4203290000000  0.4249960000000  0.4453180000000 1.0
C      1  0.5439900000000  0.4383660000000  0.5064460000000 1.0
C      1  0.5417300000000  0.5924910000000  0.4671580000000 1.0
C      1  0.3272410000000  0.5168140000000  0.4868690000000 1.0
C      1  0.5170790000000  0.4503430000000  0.4683440000000 1.0
C      1  0.6278050000000  0.5091800000000  0.5201940000000 1.0
C      1  0.4499150000000  0.4851030000000  0.4156560000000 1.0
C      1  0.5600760000000  0.4973010000000  0.4434770000000 1.0
C      1  0.4605340000000  0.5119560000000  0.4136960000000 1.0
C      1  0.4602410000000  0.4686070000000  0.3703650000000 1.0
C      1  0.4647640000000  0.4216100000000  0.4288060000000 1.0
C      1  0.4419290000000  0.4792000000000  0.5269210000000 1.0
C      1  0.4662640000000  0.5765990000000  0.5458250000000 1.0
C      1  0.5345190000000  0.4224250000000  0.5286840000000 1.0
C      1  0.4238600000000  0.5859540000000  0.5107390000000 1.0
C      1  0.5098620000000  0.4758540000000  0.4278000000000 1.0
C      1  0.5457210000000  0.4825480000000  0.5577030000000 1.0
C      1  0.5753650000000  0.5634960000000  0.4238480000000 1.0
C      1  0.5678690000000  0.4707860000000  0.4368160000000 1.0
C      1  0.6068360000000  0.5191020000000  0.4748130000000 1.0
C      1  0.5345540000000  0.5304690000000  0.4718670000000 1.0
C      1  0.5276700000000  0.4683360000000  0.5414220000000 1.0
C      1  0.5721060000000  0.4331650000000  0.5007150000000 1.0
C      1  0.5536950000000  0.4267630000000  0.5501230000000 1.0
C      1  0.4156930000000  0.5196170000000  0.5590620000000 1.0
C      1  0.4929850000000  0.6128300000000  0.5254880000000 1.0
C      1  0.5888960000000  0.4447330000000  0.5212150000000 1.0
C      1  0.4609330000000  0.5484200000000  0.5383590000000 1.0
C      1  0.6133850000000  0.4877330000000  0.5331810000000 1.0
C      1  0.4344770000000  0.5046850000000  0.5174100000000 1.0
C      1  0.5107730000000  0.5482450000000  0.5545260000000 1.0
C      1  0.4670820000000  0.4398010000000  0.4090480000000 1.0
C      1  0.5629000000000  0.5477530000000  0.5976900000000 1.0
C      1  0.3338100000000  0.3670100000000  0.4686040000000 1.0
C      1  0.4475290000000  0.4146170000000  0.5004470000000 1.0
C      1  0.5717330000000  0.5429300000000  0.5185380000000 1.0
C      1  0.5322810000000  0.5808920000000  0.4420820000000 1.0
C      1  0.5096220000000  0.5591160000000  0.5276570000000 1.0
C      1  0.5738460000000  0.4189570000000  0.4762610000000 1.0
C      1  0.5554720000000  0.5701300000000  0.5839170000000 1.0
C      1  0.5929720000000  0.5177180000000  0.5710650000000 1.0
C      1  0.4979780000000  0.6067040000000  0.5703110000000 1.0
C      1  0.4385390000000  0.4867370000000  0.6117280000000 1.0
C      1  0.5139920000000  0.6114520000000  0.5468290000000 1.0
C      1  0.5276090000000  0.4260650000000  0.4573870000000 1.0
C      1  0.5575290000000  0.5435400000000  0.4604040000000 1.0
C      1  0.5839850000000  0.5392880000000  0.4719720000000 1.0
C      1  0.4995110000000  0.3760650000000  0.4848880000000 1.0
C      1  0.6120210000000  0.4707460000000  0.4871710000000 1.0
C      1  0.5013340000000  0.4683130000000  0.5321890000000 1.0
C      1  0.5436910000000  0.5395010000000  0.5124480000000 1.0
C      1  0.4872640000000  0.5121560000000  0.4050570000000 1.0
C      1  0.3951800000000  0.5267160000000  0.5755230000000 1.0
C      1  0.4192550000000  0.4520970000000  0.4363130000000 1.0
C      1  0.4909330000000  0.4926010000000  0.5214800000000 1.0
C      1  0.4547380000000  0.5171950000000  0.4982920000000 1.0
C      1  0.6085650000000  0.4912830000000  0.4699170000000 1.0
C      1  0.5882290000000  0.5549020000000  0.4966120000000 1.0
C      1  0.5579510000000  0.5772740000000  0.5560900000000 1.0
C      1  0.3497500000000  0.5245480000000  0.4975070000000 1.0
C      1  0.5636100000000  0.4933270000000  0.5085010000000 1.0
C      1  0.5117860000000  0.5202890000000  0.5563430000000 1.0
C      1  0.4546450000000  0.5904930000000  0.4743690000000 1.0
C      1  0.5377470000000  0.5939210000000  0.5409340000000 1.0
C      1  0.5768760000000  0.5244880000000  0.5940610000000 1.0
C      1  0.5755440000000  0.4460270000000  0.5472690000000 1.0
C      1  0.4181140000000  0.5374800000000  0.4643090000000 1.0
C      1  0.4379450000000  0.5227850000000  0.4746780000000 1.0
C      1  0.4683340000000  0.5415020000000  0.5104200000000 1.0
C      1  0.4405320000000  0.4606730000000  0.5701740000000 1.0
C      1  0.4065620000000  0.5663610000000  0.5160560000000 1.0
C      1  0.4469120000000  0.4145350000000  0.4498050000000 1.0
C      1  0.4379640000000  0.4736490000000  0.4386740000000 1.0
C      1  0.4825840000000  0.5825680000000  0.5694330000000 1.0
C      1  0.6076530000000  0.4653050000000  0.5148530000000 1.0
C      1  0.4364690000000  0.4608730000000  0.4840290000000 1.0
C      1  0.4399040000000  0.4858140000000  0.5843970000000 1.0
C      1  0.4819670000000  0.4280500000000  0.5930000000000 1.0
C      1  0.4573790000000  0.4100100000000  0.5273910000000 1.0
C      1  0.5292580000000  0.5782430000000  0.4888500000000 1.0
C      1  0.5952920000000  0.4920740000000  0.5567190000000 1.0
C      1  0.5781180000000  0.5134210000000  0.5190800000000 1.0
C      1  0.5326380000000  0.4591250000000  0.4905490000000 1.0
C      1  0.4325350000000  0.4382320000000  0.4974260000000 1.0
C      1  0.4876650000000  0.5094200000000  0.5455600000000 1.0
C      1  0.4553240000000  0.4638170000000  0.5459240000000 1.0
C      1  0.4757680000000  0.3832880000000  0.4748870000000 1.0
C      1  0.4386200000000  0.4317940000000  0.5744930000000 1.0
END
