TITL C-627107-135-1618 24784.2047906322 125000 -1123.62229999079 0 0 185 (C1) n - 1
REM
REM in /home/nfs/bkarasulu/CARBON/AIRSS/Generating-Clusters/LCBOP/Only-C1/SD-CG/FIRE-CG
REM
REM
REM
REM
REM
REM ./C.cell (11c1c37f851c82e70ff6c80c92926a4b)
REM AIRSS Version 0.9.1 bugfix July 2018 build 013d7b7c2542+ Fri, 06 Jul 2018 19:26:36 +0100
REM compiler GCC version 9.2.1 20190827 (Red Hat 9.2.1-1)
REM options -cpp -mtune=generic -march=x86-64 -g -O0 -fpre-include=/usr/include/finclude/math-vector-fortran.h
REM seed 269799698 1091790582 -1697043325 -854309164 -227967394 -493465590 1100441094 85842432 741213768 1814017759 -790190604 -1871991397 1609509051 -348595233 -260535920 -1020584637 1058387274 -1166477084 -1046806620 221576944 1335826732 -92708871 634188018 605207692 114557581 -159559995 -952111949 -563814142 -1641506408 1336889780 41833863 -1268317153 419276201
REM
CELL 1.54180   50.00000   50.00000   50.00000   90.00000   90.00000   90.00000
LATT -1
SFAC C  
C      1  0.6027680000000  0.5489010000000  0.4625620000000 1.0
C      1  0.4789490000000  0.5313620000000  0.3975420000000 1.0
C      1  0.4877550000000  0.4816040000000  0.5021900000000 1.0
C      1  0.3850240000000  0.5486410000000  0.4906160000000 1.0
C      1  0.6115960000000  0.4876630000000  0.5669960000000 1.0
C      1  0.3838460000000  0.4765410000000  0.4497730000000 1.0
C      1  0.6036920000000  0.4706310000000  0.5452950000000 1.0
C      1  0.5467640000000  0.5418500000000  0.6051940000000 1.0
C      1  0.4947850000000  0.5365190000000  0.6151600000000 1.0
C      1  0.5022630000000  0.3904690000000  0.4877000000000 1.0
C      1  0.4748050000000  0.5211770000000  0.4859200000000 1.0
C      1  0.5431100000000  0.4267350000000  0.5750030000000 1.0
C      1  0.5391730000000  0.4364350000000  0.3775830000000 1.0
C      1  0.5823980000000  0.5709680000000  0.5172330000000 1.0
C      1  0.5586310000000  0.5329330000000  0.4523360000000 1.0
C      1  0.5355160000000  0.4783300000000  0.4137960000000 1.0
C      1  0.5170460000000  0.4235330000000  0.3854160000000 1.0
C      1  0.5564620000000  0.4586620000000  0.3758550000000 1.0
C      1  0.4001930000000  0.5336050000000  0.4720600000000 1.0
C      1  0.6069680000000  0.5236820000000  0.4787850000000 1.0
C      1  0.4973660000000  0.4744950000000  0.6041280000000 1.0
C      1  0.5461880000000  0.5677820000000  0.4044550000000 1.0
C      1  0.4520090000000  0.4515720000000  0.4936510000000 1.0
C      1  0.3743550000000  0.4968100000000  0.4982570000000 1.0
C      1  0.5258420000000  0.5065420000000  0.4818470000000 1.0
C      1  0.4311390000000  0.5068000000000  0.5444640000000 1.0
C      1  0.4937710000000  0.5702470000000  0.4213970000000 1.0
C      1  0.5531280000000  0.4750820000000  0.4589480000000 1.0
C      1  0.4453190000000  0.5712450000000  0.4163500000000 1.0
C      1  0.5077690000000  0.5335900000000  0.3888960000000 1.0
C      1  0.5807790000000  0.5268310000000  0.5193820000000 1.0
C      1  0.4706220000000  0.5575010000000  0.4085000000000 1.0
C      1  0.3865850000000  0.4707370000000  0.5655360000000 1.0
C      1  0.5775940000000  0.4100050000000  0.4866380000000 1.0
C      1  0.4897190000000  0.6375480000000  0.5722370000000 1.0
C      1  0.6045150000000  0.5162210000000  0.5081170000000 1.0
C      1  0.5451650000000  0.4266820000000  0.4459500000000 1.0
C      1  0.4845820000000  0.4710100000000  0.4292790000000 1.0
C      1  0.4528670000000  0.5418390000000  0.4481060000000 1.0
C      1  0.5372670000000  0.4113500000000  0.5492470000000 1.0
C      1  0.4120340000000  0.4412080000000  0.4636930000000 1.0
C      1  0.4599590000000  0.3990000000000  0.5654490000000 1.0
C      1  0.5813290000000  0.4926200000000  0.4062320000000 1.0
C      1  0.4449110000000  0.4255070000000  0.5871690000000 1.0
C      1  0.5591250000000  0.4754360000000  0.3989550000000 1.0
C      1  0.4374630000000  0.4702570000000  0.4814850000000 1.0
C      1  0.4047370000000  0.5526930000000  0.5359660000000 1.0
C      1  0.4542990000000  0.3911850000000  0.5370420000000 1.0
C      1  0.5358300000000  0.4046810000000  0.4582940000000 1.0
C      1  0.6033010000000  0.5091020000000  0.5814780000000 1.0
C      1  0.5307540000000  0.3952550000000  0.4852010000000 1.0
C      1  0.4204910000000  0.5878200000000  0.4632830000000 1.0
C      1  0.5374730000000  0.5747670000000  0.5569710000000 1.0
C      1  0.4129470000000  0.4255340000000  0.5221030000000 1.0
C      1  0.5129340000000  0.3679490000000  0.5547450000000 1.0
C      1  0.5146380000000  0.5551350000000  0.5552190000000 1.0
C      1  0.5160250000000  0.5950140000000  0.5225920000000 1.0
C      1  0.4761310000000  0.4993380000000  0.4335580000000 1.0
C      1  0.4253220000000  0.4772130000000  0.4241250000000 1.0
C      1  0.4070660000000  0.4603300000000  0.4398020000000 1.0
C      1  0.5147180000000  0.5255710000000  0.5525950000000 1.0
C      1  0.5225390000000  0.5554810000000  0.4875750000000 1.0
C      1  0.5587700000000  0.6136680000000  0.5277290000000 1.0
C      1  0.4671090000000  0.4559660000000  0.4127610000000 1.0
C      1  0.4936190000000  0.4191010000000  0.3976510000000 1.0
C      1  0.5464300000000  0.4971250000000  0.5878910000000 1.0
C      1  0.5770180000000  0.6136220000000  0.5068420000000 1.0
C      1  0.5277060000000  0.4595150000000  0.4963840000000 1.0
C      1  0.5351200000000  0.5444430000000  0.3908120000000 1.0
C      1  0.4632050000000  0.5691990000000  0.4884560000000 1.0
C      1  0.5836440000000  0.5278750000000  0.5738290000000 1.0
C      1  0.5832050000000  0.5737490000000  0.5455770000000 1.0
C      1  0.5461780000000  0.4423310000000  0.5091320000000 1.0
C      1  0.5628040000000  0.4462640000000  0.4565260000000 1.0
C      1  0.5837720000000  0.4340250000000  0.4723710000000 1.0
C      1  0.4293760000000  0.4347630000000  0.5441120000000 1.0
C      1  0.4729160000000  0.5939340000000  0.4765790000000 1.0
C      1  0.6059850000000  0.4497780000000  0.4784390000000 1.0
C      1  0.4117030000000  0.5573120000000  0.5638720000000 1.0
C      1  0.5215990000000  0.5082510000000  0.4524230000000 1.0
C      1  0.5682500000000  0.5680210000000  0.4212560000000 1.0
C      1  0.5641090000000  0.4705570000000  0.3515160000000 1.0
C      1  0.5664170000000  0.4965850000000  0.3451170000000 1.0
C      1  0.5768170000000  0.5243110000000  0.5465580000000 1.0
C      1  0.6070330000000  0.4765300000000  0.4859810000000 1.0
C      1  0.4641100000000  0.4133340000000  0.4372490000000 1.0
C      1  0.4878910000000  0.5970040000000  0.4303290000000 1.0
C      1  0.4288040000000  0.5009910000000  0.4394900000000 1.0
C      1  0.5723140000000  0.4991600000000  0.4571160000000 1.0
C      1  0.5787940000000  0.5440870000000  0.4355500000000 1.0
C      1  0.4723530000000  0.4279390000000  0.4141140000000 1.0
C      1  0.5861380000000  0.4460750000000  0.5554230000000 1.0
C      1  0.5616520000000  0.4807530000000  0.5300320000000 1.0
C      1  0.4739850000000  0.3970960000000  0.4860060000000 1.0
C      1  0.5179910000000  0.4603560000000  0.5403280000000 1.0
C      1  0.4526290000000  0.5552860000000  0.5115880000000 1.0
C      1  0.4621020000000  0.5742730000000  0.5941070000000 1.0
C      1  0.5116640000000  0.3953510000000  0.5555480000000 1.0
C      1  0.3934390000000  0.4518190000000  0.4857320000000 1.0
C      1  0.5373970000000  0.4834220000000  0.5440680000000 1.0
C      1  0.4203570000000  0.4087230000000  0.4994120000000 1.0
C      1  0.4235240000000  0.5446570000000  0.5872820000000 1.0
C      1  0.4635620000000  0.4045690000000  0.5117860000000 1.0
C      1  0.3896940000000  0.5037810000000  0.5222910000000 1.0
C      1  0.3925090000000  0.4422740000000  0.5120760000000 1.0
C      1  0.5843170000000  0.4194930000000  0.5417120000000 1.0
C      1  0.5979290000000  0.4981210000000  0.4675690000000 1.0
C      1  0.4465860000000  0.4750000000000  0.4049110000000 1.0
C      1  0.4480400000000  0.4979170000000  0.5642430000000 1.0
C      1  0.4867770000000  0.4088220000000  0.5625520000000 1.0
C      1  0.5310270000000  0.5320160000000  0.4402190000000 1.0
C      1  0.6020060000000  0.5756190000000  0.4745950000000 1.0
C      1  0.5681780000000  0.4588180000000  0.5154390000000 1.0
C      1  0.4831880000000  0.5088020000000  0.5113560000000 1.0
C      1  0.5907600000000  0.5898790000000  0.4974830000000 1.0
C      1  0.5559870000000  0.3981110000000  0.5027150000000 1.0
C      1  0.5313480000000  0.4345810000000  0.5323220000000 1.0
C      1  0.4291920000000  0.5295310000000  0.4361140000000 1.0
C      1  0.3491880000000  0.5080290000000  0.4960700000000 1.0
C      1  0.5082200000000  0.6157080000000  0.4363260000000 1.0
C      1  0.4917530000000  0.4792130000000  0.5753780000000 1.0
C      1  0.5111340000000  0.5533680000000  0.4380470000000 1.0
C      1  0.5757230000000  0.5205510000000  0.4069860000000 1.0
C      1  0.4613530000000  0.4335110000000  0.5126210000000 1.0
C      1  0.5230220000000  0.4597850000000  0.6043590000000 1.0
C      1  0.4382840000000  0.4965660000000  0.4680480000000 1.0
C      1  0.4368460000000  0.4989390000000  0.5905250000000 1.0
C      1  0.4759820000000  0.4968510000000  0.5598970000000 1.0
C      1  0.4675530000000  0.5594160000000  0.5354200000000 1.0
C      1  0.4571320000000  0.4992470000000  0.6111620000000 1.0
C      1  0.4876170000000  0.5667350000000  0.5543020000000 1.0
C      1  0.5281760000000  0.4802540000000  0.4417060000000 1.0
C      1  0.4575590000000  0.4409820000000  0.5394580000000 1.0
C      1  0.5004820000000  0.6008370000000  0.4807900000000 1.0
C      1  0.4730590000000  0.5468850000000  0.4707340000000 1.0
C      1  0.4899170000000  0.5131330000000  0.5401860000000 1.0
C      1  0.5534030000000  0.5508550000000  0.4819320000000 1.0
C      1  0.4239600000000  0.5197260000000  0.4827370000000 1.0
C      1  0.4672930000000  0.5281060000000  0.6114820000000 1.0
C      1  0.4135710000000  0.5238890000000  0.5275770000000 1.0
C      1  0.4496730000000  0.5496080000000  0.5996170000000 1.0
C      1  0.6064750000000  0.4825900000000  0.4098900000000 1.0
C      1  0.5586630000000  0.5286150000000  0.3850030000000 1.0
C      1  0.5193590000000  0.5478870000000  0.6112260000000 1.0
C      1  0.4227050000000  0.4349680000000  0.5715950000000 1.0
C      1  0.4794110000000  0.5848720000000  0.5748130000000 1.0
C      1  0.3812100000000  0.4769810000000  0.4786340000000 1.0
C      1  0.5674100000000  0.5491560000000  0.5856290000000 1.0
C      1  0.5510780000000  0.5142210000000  0.6093630000000 1.0
C      1  0.4157340000000  0.5177870000000  0.5930890000000 1.0
C      1  0.5184030000000  0.5276770000000  0.4988200000000 1.0
C      1  0.5615920000000  0.4017040000000  0.5327900000000 1.0
C      1  0.5395930000000  0.4816790000000  0.4847790000000 1.0
C      1  0.5692950000000  0.5485280000000  0.5050720000000 1.0
C      1  0.4340050000000  0.5324200000000  0.5064000000000 1.0
C      1  0.5493580000000  0.4695180000000  0.5939330000000 1.0
C      1  0.5149930000000  0.5834180000000  0.4977780000000 1.0
C      1  0.3828980000000  0.4883520000000  0.5456700000000 1.0
C      1  0.5183700000000  0.4388360000000  0.5846040000000 1.0
C      1  0.5016430000000  0.5539000000000  0.4647370000000 1.0
C      1  0.4568040000000  0.4459100000000  0.6058000000000 1.0
C      1  0.4700760000000  0.4723960000000  0.6140130000000 1.0
C      1  0.4398360000000  0.5873440000000  0.4410290000000 1.0
C      1  0.4557140000000  0.4075490000000  0.4639810000000 1.0
C      1  0.3985990000000  0.5667330000000  0.5091430000000 1.0
C      1  0.4652510000000  0.5981920000000  0.4490100000000 1.0
C      1  0.5635490000000  0.5691820000000  0.5660970000000 1.0
C      1  0.4863420000000  0.6118140000000  0.5746130000000 1.0
C      1  0.5061350000000  0.4658660000000  0.5139730000000 1.0
C      1  0.5375870000000  0.5978530000000  0.5394540000000 1.0
C      1  0.4806960000000  0.4361470000000  0.5553650000000 1.0
C      1  0.5638230000000  0.5193860000000  0.3589770000000 1.0
C      1  0.5641670000000  0.4484610000000  0.5768270000000 1.0
C      1  0.5016840000000  0.4541020000000  0.5631020000000 1.0
C      1  0.5334720000000  0.5047140000000  0.5626850000000 1.0
C      1  0.4042530000000  0.5400170000000  0.4448530000000 1.0
C      1  0.4865810000000  0.4773460000000  0.4737750000000 1.0
C      1  0.5137670000000  0.6182660000000  0.4628150000000 1.0
C      1  0.4119680000000  0.5852530000000  0.4897690000000 1.0
C      1  0.4006070000000  0.4512330000000  0.5776800000000 1.0
C      1  0.4688240000000  0.5002100000000  0.4638300000000 1.0
C      1  0.4664100000000  0.5065710000000  0.4081510000000 1.0
C      1  0.4283690000000  0.4173970000000  0.4724890000000 1.0
C      1  0.5023960000000  0.4663240000000  0.4511660000000 1.0
C      1  0.6086130000000  0.4866090000000  0.5137170000000 1.0
END
