TITL C-627107-135-921 0.0275555921942656 125000 -860.383199756411 0 0 142 (C1) n - 1
REM
REM in /home/nfs/bkarasulu/CARBON/AIRSS/Generating-Clusters/LCBOP/Only-C1/SD-CG/FIRE-CG
REM
REM
REM
REM
REM
REM ./C.cell (11c1c37f851c82e70ff6c80c92926a4b)
REM AIRSS Version 0.9.1 bugfix July 2018 build 013d7b7c2542+ Fri, 06 Jul 2018 19:26:36 +0100
REM compiler GCC version 9.2.1 20190827 (Red Hat 9.2.1-1)
REM options -cpp -mtune=generic -march=x86-64 -g -O0 -fpre-include=/usr/include/finclude/math-vector-fortran.h
REM seed -1359729791 -1460386748 497002914 -600617899 -1871697788 1065845258 -419081612 49445029 -174036499 497357770 -121956631 286464019 2079644478 -1203816769 923670731 -1915392350 -1155395200 1528447180 58857446 1949163223 49608388 -276971312 933903362 2036229415 151501254 448371546 1334962820 1112771656 -731215525 -292658950 924559738 -1699406368 1681763428
REM
CELL 1.54180   50.00000   50.00000   50.00000   90.00000   90.00000   90.00000
LATT -1
SFAC C  
C      1  0.5626610000000  0.5533660000000  0.4654930000000 1.0
C      1  0.5163750000000  0.3827620000000  0.5050190000000 1.0
C      1  0.3496740000000  0.4888000000000  0.5199540000000 1.0
C      1  0.5818280000000  0.5370490000000  0.4487730000000 1.0
C      1  0.5232580000000  0.5353980000000  0.4810520000000 1.0
C      1  0.5662440000000  0.5980140000000  0.4844060000000 1.0
C      1  0.4345430000000  0.4234360000000  0.5552970000000 1.0
C      1  0.4889360000000  0.4319350000000  0.4658470000000 1.0
C      1  0.6284310000000  0.4309020000000  0.4528740000000 1.0
C      1  0.5983270000000  0.5456520000000  0.5455690000000 1.0
C      1  0.4014550000000  0.5205850000000  0.5446630000000 1.0
C      1  0.4417660000000  0.4264210000000  0.4594490000000 1.0
C      1  0.5024420000000  0.5439100000000  0.5412560000000 1.0
C      1  0.4526010000000  0.5731540000000  0.5030100000000 1.0
C      1  0.4539280000000  0.5988550000000  0.4403290000000 1.0
C      1  0.4553170000000  0.4676680000000  0.5988400000000 1.0
C      1  0.5002930000000  0.4176520000000  0.5570000000000 1.0
C      1  0.4159540000000  0.4651350000000  0.4530330000000 1.0
C      1  0.6045010000000  0.5241270000000  0.5600350000000 1.0
C      1  0.6228240000000  0.6983450000000  0.4789220000000 1.0
C      1  0.5204550000000  0.5798870000000  0.4760520000000 1.0
C      1  0.4989010000000  0.4837060000000  0.4522250000000 1.0
C      1  0.5139960000000  0.4237550000000  0.4079420000000 1.0
C      1  0.5392460000000  0.5412530000000  0.3952760000000 1.0
C      1  0.5785720000000  0.4957240000000  0.4176140000000 1.0
C      1  0.5294130000000  0.5065110000000  0.5297370000000 1.0
C      1  0.4266590000000  0.5773880000000  0.5126410000000 1.0
C      1  0.5520600000000  0.5317050000000  0.4846220000000 1.0
C      1  0.4747010000000  0.4609190000000  0.5775040000000 1.0
C      1  0.4603450000000  0.4976070000000  0.6067910000000 1.0
C      1  0.5102370000000  0.5181280000000  0.5468620000000 1.0
C      1  0.4378970000000  0.5756790000000  0.4329350000000 1.0
C      1  0.4973690000000  0.4463100000000  0.5120630000000 1.0
C      1  0.6025560000000  0.4310190000000  0.4497860000000 1.0
C      1  0.4541530000000  0.5002920000000  0.5162250000000 1.0
C      1  0.5420900000000  0.4374090000000  0.5378060000000 1.0
C      1  0.5748480000000  0.4327140000000  0.4476540000000 1.0
C      1  0.5833870000000  0.4935020000000  0.5087840000000 1.0
C      1  0.5139840000000  0.4535460000000  0.6177970000000 1.0
C      1  0.5658870000000  0.4795930000000  0.5265270000000 1.0
C      1  0.4178970000000  0.4721050000000  0.5417320000000 1.0
C      1  0.4627950000000  0.5738410000000  0.4766510000000 1.0
C      1  0.4596530000000  0.4823150000000  0.3976070000000 1.0
C      1  0.3407300000000  0.5582500000000  0.5365830000000 1.0
C      1  0.5994570000000  0.6387700000000  0.5550920000000 1.0
C      1  0.4048450000000  0.5603400000000  0.5048340000000 1.0
C      1  0.5499630000000  0.5790390000000  0.4716720000000 1.0
C      1  0.5573410000000  0.4762790000000  0.4194400000000 1.0
C      1  0.5543960000000  0.4133390000000  0.4924080000000 1.0
C      1  0.5479070000000  0.4721640000000  0.4473060000000 1.0
C      1  0.3923020000000  0.5434680000000  0.5265260000000 1.0
C      1  0.4930920000000  0.5524190000000  0.5163040000000 1.0
C      1  0.4692030000000  0.4406950000000  0.4206000000000 1.0
C      1  0.3916040000000  0.4273700000000  0.4685560000000 1.0
C      1  0.4539250000000  0.4543440000000  0.5167380000000 1.0
C      1  0.4158000000000  0.5683560000000  0.4511590000000 1.0
C      1  0.5745830000000  0.5133370000000  0.4903310000000 1.0
C      1  0.5881020000000  0.4519790000000  0.5836190000000 1.0
C      1  0.4940760000000  0.3994120000000  0.5103000000000 1.0
C      1  0.5350420000000  0.4745220000000  0.4008790000000 1.0
C      1  0.5284210000000  0.4239790000000  0.5590970000000 1.0
C      1  0.4830480000000  0.4013760000000  0.5380070000000 1.0
C      1  0.4275070000000  0.5227120000000  0.4880510000000 1.0
C      1  0.5062110000000  0.4719050000000  0.4005890000000 1.0
C      1  0.4749480000000  0.5931140000000  0.4589630000000 1.0
C      1  0.5374420000000  0.4138860000000  0.4158750000000 1.0
C      1  0.5917230000000  0.5683970000000  0.5333470000000 1.0
C      1  0.4619290000000  0.4688300000000  0.4742480000000 1.0
C      1  0.5597000000000  0.4516890000000  0.4637840000000 1.0
C      1  0.6060720000000  0.6572030000000  0.5093430000000 1.0
C      1  0.4394710000000  0.4549840000000  0.4657390000000 1.0
C      1  0.3836240000000  0.4722670000000  0.4901750000000 1.0
C      1  0.3653370000000  0.5511260000000  0.5318130000000 1.0
C      1  0.5916120000000  0.6134120000000  0.5510190000000 1.0
C      1  0.4487510000000  0.4608640000000  0.4129140000000 1.0
C      1  0.4918790000000  0.5028120000000  0.6118200000000 1.0
C      1  0.4955930000000  0.4451340000000  0.4083050000000 1.0
C      1  0.6059490000000  0.5001060000000  0.5715440000000 1.0
C      1  0.5409550000000  0.3907230000000  0.4973430000000 1.0
C      1  0.3933260000000  0.4564970000000  0.4685090000000 1.0
C      1  0.4229640000000  0.4500540000000  0.5644370000000 1.0
C      1  0.4545260000000  0.5575000000000  0.4174570000000 1.0
C      1  0.4967460000000  0.4745000000000  0.5052420000000 1.0
C      1  0.4488090000000  0.5257670000000  0.5070840000000 1.0
C      1  0.4168750000000  0.5228170000000  0.5717020000000 1.0
C      1  0.4654780000000  0.5476500000000  0.4651340000000 1.0
C      1  0.5026810000000  0.4970580000000  0.5635970000000 1.0
C      1  0.5217940000000  0.4841640000000  0.5806580000000 1.0
C      1  0.3683280000000  0.4139130000000  0.4732220000000 1.0
C      1  0.4413220000000  0.4929060000000  0.5399280000000 1.0
C      1  0.4332090000000  0.5150670000000  0.4626700000000 1.0
C      1  0.5259650000000  0.4316330000000  0.6077750000000 1.0
C      1  0.4760220000000  0.4455280000000  0.5323220000000 1.0
C      1  0.4817190000000  0.5467940000000  0.4171920000000 1.0
C      1  0.4647850000000  0.5490420000000  0.5128740000000 1.0
C      1  0.4860660000000  0.4933500000000  0.3980110000000 1.0
C      1  0.5840410000000  0.6082360000000  0.5033870000000 1.0
C      1  0.6006140000000  0.4751250000000  0.5792390000000 1.0
C      1  0.4551560000000  0.5010820000000  0.5616670000000 1.0
C      1  0.4662200000000  0.4783070000000  0.5016360000000 1.0
C      1  0.5153980000000  0.5358320000000  0.4528260000000 1.0
C      1  0.4874350000000  0.4609600000000  0.4630270000000 1.0
C      1  0.5965050000000  0.6330680000000  0.4983640000000 1.0
C      1  0.4539020000000  0.4057630000000  0.5451560000000 1.0
C      1  0.4830410000000  0.4409980000000  0.5598440000000 1.0
C      1  0.5736260000000  0.5233400000000  0.4248310000000 1.0
C      1  0.4873610000000  0.5219540000000  0.4027570000000 1.0
C      1  0.4794220000000  0.5041380000000  0.4482560000000 1.0
C      1  0.5565330000000  0.4420160000000  0.4913570000000 1.0
C      1  0.5379210000000  0.5236580000000  0.5932710000000 1.0
C      1  0.4423600000000  0.5124450000000  0.5846010000000 1.0
C      1  0.3953410000000  0.4919210000000  0.5356210000000 1.0
C      1  0.5288710000000  0.5167660000000  0.4374660000000 1.0
C      1  0.6147230000000  0.6784380000000  0.4936630000000 1.0
C      1  0.5178130000000  0.4921640000000  0.5085280000000 1.0
C      1  0.5934430000000  0.5196680000000  0.4688620000000 1.0
C      1  0.4030150000000  0.5622010000000  0.4751160000000 1.0
C      1  0.5124180000000  0.5248380000000  0.6067860000000 1.0
C      1  0.5413490000000  0.4263200000000  0.5847220000000 1.0
C      1  0.4259460000000  0.4549700000000  0.5184580000000 1.0
C      1  0.5095230000000  0.4787010000000  0.6065940000000 1.0
C      1  0.5013970000000  0.5821300000000  0.4533820000000 1.0
C      1  0.5116910000000  0.5580880000000  0.4949730000000 1.0
C      1  0.5882780000000  0.5958750000000  0.5290700000000 1.0
C      1  0.3763780000000  0.4844970000000  0.5150250000000 1.0
C      1  0.5257460000000  0.4902310000000  0.4482810000000 1.0
C      1  0.5454990000000  0.5005670000000  0.5754700000000 1.0
C      1  0.4231510000000  0.4655520000000  0.4252540000000 1.0
C      1  0.4945340000000  0.4239350000000  0.4937590000000 1.0
C      1  0.4675730000000  0.4243930000000  0.4462600000000 1.0
C      1  0.5600190000000  0.4170130000000  0.4296830000000 1.0
C      1  0.4294100000000  0.4580900000000  0.5913300000000 1.0
C      1  0.5685540000000  0.4338870000000  0.5853380000000 1.0
C      1  0.5007350000000  0.5564530000000  0.4383200000000 1.0
C      1  0.5553640000000  0.4537680000000  0.5182410000000 1.0
C      1  0.4780520000000  0.4865890000000  0.5654400000000 1.0
C      1  0.4166030000000  0.4139350000000  0.4630370000000 1.0
C      1  0.4592940000000  0.5221530000000  0.4549260000000 1.0
C      1  0.6099950000000  0.4865540000000  0.5091520000000 1.0
C      1  0.5462610000000  0.5279060000000  0.4179290000000 1.0
C      1  0.5517170000000  0.4964760000000  0.5457350000000 1.0
C      1  0.6061610000000  0.6580820000000  0.5375690000000 1.0
END
