TITL C-627107-135-1472 2.91560832629662e-07 125000 -854.987349783911 0 0 143 (C1) n - 1
REM
REM in /home/nfs/bkarasulu/CARBON/AIRSS/Generating-Clusters/LCBOP/Only-C1/SD-CG/FIRE-CG
REM
REM
REM
REM
REM
REM ./C.cell (11c1c37f851c82e70ff6c80c92926a4b)
REM AIRSS Version 0.9.1 bugfix July 2018 build 013d7b7c2542+ Fri, 06 Jul 2018 19:26:36 +0100
REM compiler GCC version 9.2.1 20190827 (Red Hat 9.2.1-1)
REM options -cpp -mtune=generic -march=x86-64 -g -O0 -fpre-include=/usr/include/finclude/math-vector-fortran.h
REM seed 1254423888 -2083447653 -2003719921 -516552218 1293202681 1483710813 2119954940 1115038791 1330618796 518155346 1803134920 1102350613 1916477538 1091311946 371816285 1012486381 -916773010 -2055106059 372562264 737646030 1212817817 329396587 567232629 905758747 91926400 -288370676 -429927654 -1059075547 1256110582 1183951251 226059939 -1778717551 -956124896
REM
CELL 1.54180   50.00000   50.00000   50.00000   90.00000   90.00000   90.00000
LATT -1
SFAC C  
C      1  0.4042990000000  0.5554290000000  0.4745210000000 1.0
C      1  0.4300680000000  0.5000170000000  0.5690840000000 1.0
C      1  0.4311880000000  0.4532380000000  0.5420420000000 1.0
C      1  0.5963780000000  0.4835730000000  0.5137440000000 1.0
C      1  0.4870860000000  0.5451330000000  0.5407600000000 1.0
C      1  0.4260830000000  0.6238790000000  0.5061590000000 1.0
C      1  0.4834600000000  0.3904520000000  0.5864120000000 1.0
C      1  0.5552030000000  0.5493370000000  0.5712120000000 1.0
C      1  0.4713700000000  0.5752340000000  0.5857920000000 1.0
C      1  0.4076480000000  0.5377810000000  0.5265160000000 1.0
C      1  0.4574990000000  0.4517010000000  0.4906960000000 1.0
C      1  0.5839420000000  0.4745050000000  0.4885970000000 1.0
C      1  0.6041550000000  0.5265470000000  0.4681310000000 1.0
C      1  0.5891790000000  0.5592350000000  0.4961150000000 1.0
C      1  0.4769780000000  0.4800670000000  0.4099990000000 1.0
C      1  0.5411610000000  0.3879590000000  0.5179090000000 1.0
C      1  0.4723810000000  0.5939260000000  0.5662820000000 1.0
C      1  0.5468650000000  0.4952820000000  0.5126810000000 1.0
C      1  0.4691110000000  0.4871400000000  0.5197720000000 1.0
C      1  0.5294720000000  0.5244940000000  0.4380760000000 1.0
C      1  0.5365030000000  0.5520010000000  0.4812810000000 1.0
C      1  0.5516860000000  0.4138540000000  0.5084330000000 1.0
C      1  0.4768290000000  0.4590460000000  0.4710390000000 1.0
C      1  0.4913810000000  0.5283220000000  0.5989710000000 1.0
C      1  0.5460470000000  0.5791800000000  0.4793580000000 1.0
C      1  0.5159660000000  0.4923670000000  0.5716470000000 1.0
C      1  0.5267410000000  0.5463180000000  0.5098120000000 1.0
C      1  0.5423660000000  0.4480400000000  0.3832110000000 1.0
C      1  0.4454440000000  0.5237700000000  0.4899910000000 1.0
C      1  0.4879640000000  0.4534400000000  0.5748670000000 1.0
C      1  0.4212120000000  0.4415120000000  0.4418640000000 1.0
C      1  0.4838570000000  0.5352960000000  0.4617720000000 1.0
C      1  0.5419890000000  0.4854010000000  0.5609200000000 1.0
C      1  0.5238640000000  0.6243120000000  0.5416850000000 1.0
C      1  0.4718190000000  0.5590700000000  0.4622180000000 1.0
C      1  0.5423550000000  0.5320680000000  0.4617710000000 1.0
C      1  0.5047650000000  0.5997860000000  0.5004850000000 1.0
C      1  0.5313920000000  0.5459900000000  0.3991690000000 1.0
C      1  0.4686650000000  0.4034230000000  0.5017330000000 1.0
C      1  0.3984960000000  0.5371540000000  0.5557760000000 1.0
C      1  0.5722060000000  0.4405170000000  0.4548910000000 1.0
C      1  0.4578390000000  0.4286080000000  0.5086220000000 1.0
C      1  0.5067860000000  0.5605600000000  0.4106690000000 1.0
C      1  0.4369630000000  0.5491160000000  0.5313650000000 1.0
C      1  0.5122540000000  0.5977530000000  0.4504150000000 1.0
C      1  0.5331990000000  0.5237690000000  0.3819540000000 1.0
C      1  0.5185980000000  0.5835240000000  0.4266230000000 1.0
C      1  0.4652140000000  0.4519560000000  0.4081990000000 1.0
C      1  0.4906420000000  0.3863140000000  0.6111180000000 1.0
C      1  0.5796780000000  0.4465680000000  0.4813770000000 1.0
C      1  0.5017730000000  0.3661780000000  0.4964290000000 1.0
C      1  0.5982970000000  0.5123280000000  0.5203800000000 1.0
C      1  0.5414360000000  0.4999050000000  0.3729700000000 1.0
C      1  0.4208180000000  0.5081140000000  0.4378590000000 1.0
C      1  0.5879040000000  0.4949670000000  0.5695700000000 1.0
C      1  0.5595120000000  0.5118520000000  0.4697030000000 1.0
C      1  0.4724440000000  0.4848040000000  0.4560450000000 1.0
C      1  0.5955410000000  0.5343580000000  0.4432310000000 1.0
C      1  0.4999840000000  0.4231870000000  0.3829470000000 1.0
C      1  0.5410080000000  0.5666170000000  0.5278380000000 1.0
C      1  0.4300410000000  0.5354640000000  0.4334500000000 1.0
C      1  0.5790870000000  0.5441880000000  0.4238000000000 1.0
C      1  0.5105920000000  0.5037950000000  0.4348190000000 1.0
C      1  0.5721280000000  0.5990850000000  0.5137310000000 1.0
C      1  0.4062170000000  0.4498710000000  0.4653360000000 1.0
C      1  0.5301110000000  0.5624480000000  0.5727560000000 1.0
C      1  0.4360050000000  0.4555980000000  0.4212560000000 1.0
C      1  0.5038730000000  0.4519140000000  0.4792170000000 1.0
C      1  0.5297730000000  0.3688580000000  0.5004350000000 1.0
C      1  0.5991140000000  0.5320810000000  0.4966720000000 1.0
C      1  0.5610890000000  0.4916200000000  0.4879960000000 1.0
C      1  0.5472700000000  0.5824920000000  0.4210780000000 1.0
C      1  0.4092870000000  0.4436060000000  0.4932780000000 1.0
C      1  0.5853230000000  0.4398270000000  0.5285730000000 1.0
C      1  0.4716850000000  0.4896690000000  0.5477450000000 1.0
C      1  0.4927040000000  0.5074430000000  0.4592820000000 1.0
C      1  0.4888810000000  0.5759910000000  0.5022410000000 1.0
C      1  0.5767820000000  0.5398540000000  0.5583490000000 1.0
C      1  0.5306310000000  0.5903510000000  0.5781020000000 1.0
C      1  0.4186550000000  0.4634310000000  0.5147650000000 1.0
C      1  0.5068610000000  0.5504930000000  0.5609290000000 1.0
C      1  0.5591420000000  0.4422450000000  0.4316050000000 1.0
C      1  0.5533520000000  0.4793630000000  0.5349010000000 1.0
C      1  0.4610820000000  0.4907580000000  0.4304600000000 1.0
C      1  0.5025560000000  0.6139430000000  0.5261280000000 1.0
C      1  0.5469290000000  0.4736440000000  0.3721490000000 1.0
C      1  0.5908160000000  0.5167760000000  0.5495850000000 1.0
C      1  0.4778790000000  0.5517540000000  0.5976110000000 1.0
C      1  0.5472610000000  0.5053910000000  0.6363440000000 1.0
C      1  0.4201700000000  0.4730360000000  0.5622040000000 1.0
C      1  0.5451910000000  0.4323130000000  0.5699160000000 1.0
C      1  0.4326490000000  0.6007430000000  0.5162170000000 1.0
C      1  0.4907980000000  0.3481200000000  0.4792600000000 1.0
C      1  0.5612800000000  0.4504010000000  0.5826850000000 1.0
C      1  0.5102550000000  0.4376550000000  0.5024530000000 1.0
C      1  0.5304200000000  0.4221790000000  0.5479660000000 1.0
C      1  0.5307760000000  0.5064700000000  0.6161880000000 1.0
C      1  0.5126220000000  0.4536090000000  0.4181280000000 1.0
C      1  0.5568770000000  0.5879080000000  0.5330760000000 1.0
C      1  0.5311050000000  0.4320540000000  0.5202070000000 1.0
C      1  0.4769470000000  0.3961240000000  0.5597520000000 1.0
C      1  0.4807440000000  0.6063020000000  0.5436950000000 1.0
C      1  0.5046740000000  0.4814840000000  0.4181020000000 1.0
C      1  0.4441550000000  0.4767310000000  0.5024890000000 1.0
C      1  0.5068930000000  0.4980360000000  0.4831380000000 1.0
C      1  0.5231480000000  0.5978040000000  0.4771730000000 1.0
C      1  0.4591730000000  0.5356580000000  0.5446420000000 1.0
C      1  0.4338020000000  0.4995540000000  0.4848360000000 1.0
C      1  0.4954990000000  0.3887380000000  0.5394120000000 1.0
C      1  0.5652670000000  0.4785740000000  0.5779190000000 1.0
C      1  0.4910310000000  0.4977040000000  0.5060000000000 1.0
C      1  0.5398490000000  0.4474560000000  0.4120880000000 1.0
C      1  0.5728080000000  0.5823840000000  0.4908350000000 1.0
C      1  0.5338800000000  0.5192080000000  0.5176100000000 1.0
C      1  0.5564030000000  0.5567650000000  0.4117520000000 1.0
C      1  0.4390380000000  0.5764190000000  0.5247090000000 1.0
C      1  0.4475260000000  0.5703830000000  0.4602050000000 1.0
C      1  0.3959190000000  0.4764310000000  0.4632300000000 1.0
C      1  0.4135730000000  0.4984290000000  0.4641190000000 1.0
C      1  0.4101800000000  0.5201950000000  0.5738280000000 1.0
C      1  0.4862750000000  0.3841520000000  0.5123790000000 1.0
C      1  0.5757030000000  0.4283560000000  0.5040060000000 1.0
C      1  0.4973030000000  0.5522720000000  0.5147920000000 1.0
C      1  0.4485310000000  0.4310070000000  0.5364240000000 1.0
C      1  0.5314710000000  0.6143570000000  0.5658010000000 1.0
C      1  0.4292720000000  0.3986610000000  0.5662930000000 1.0
C      1  0.4338040000000  0.4855720000000  0.4250630000000 1.0
C      1  0.5205880000000  0.4742420000000  0.4766970000000 1.0
C      1  0.3924870000000  0.4756340000000  0.5521350000000 1.0
C      1  0.5125170000000  0.5094220000000  0.5950730000000 1.0
C      1  0.3992540000000  0.5096530000000  0.5182050000000 1.0
C      1  0.4922690000000  0.4780730000000  0.5635790000000 1.0
C      1  0.4518040000000  0.4089030000000  0.5542610000000 1.0
C      1  0.4241150000000  0.5554570000000  0.4541080000000 1.0
C      1  0.3990450000000  0.5531400000000  0.5010400000000 1.0
C      1  0.4790690000000  0.5515830000000  0.4104270000000 1.0
C      1  0.4904370000000  0.4368740000000  0.4061670000000 1.0
C      1  0.4545010000000  0.5098320000000  0.5575640000000 1.0
C      1  0.5240470000000  0.4294420000000  0.3712630000000 1.0
C      1  0.3967710000000  0.4824140000000  0.5242340000000 1.0
C      1  0.4536540000000  0.5423950000000  0.4165350000000 1.0
C      1  0.5805270000000  0.4674660000000  0.5326140000000 1.0
C      1  0.5238150000000  0.3940010000000  0.5422050000000 1.0
END
