TITL C-627113-6568-1538 0.0743835677871374 125000 -213.26885009155 0 0 37 (C1) n - 1
REM
REM in /home/nfs/bkarasulu/CARBON/AIRSS/Generating-Clusters/LCBOP/Only-C1/SD-CG/FIRE-CG
REM
REM
REM
REM
REM
REM ./C.cell (11c1c37f851c82e70ff6c80c92926a4b)
REM AIRSS Version 0.9.1 bugfix July 2018 build 013d7b7c2542+ Fri, 06 Jul 2018 19:26:36 +0100
REM compiler GCC version 9.2.1 20190827 (Red Hat 9.2.1-1)
REM options -cpp -mtune=generic -march=x86-64 -g -O0 -fpre-include=/usr/include/finclude/math-vector-fortran.h
REM seed -1535477819 1252326431 -1259531413 624584486 1824387053 498193170 -1965496209 -1992357949 -1141589712 198411484 -855916958 -1490232007 -543300588 1149683634 -1138797657 -1665060846 1691858457 -819011014 1278701692 896269173 873189222 1383015450 314606304 -1139907087 961379583 -475318461 1094253063 -225150270 -1459620480 -1238947877 -1885165801 -893075896 -1436598636
REM
CELL 1.54180   50.00000   50.00000   50.00000   90.00000   90.00000   90.00000
LATT -1
SFAC C  
C      1  0.3993230000000  0.5103210000000  0.4313770000000 1.0
C      1  0.4060670000000  0.5209520000000  0.4078620000000 1.0
C      1  0.5827770000000  0.4727860000000  0.5728160000000 1.0
C      1  0.4563790000000  0.5363420000000  0.4382170000000 1.0
C      1  0.3961220000000  0.4829650000000  0.4709330000000 1.0
C      1  0.5878580000000  0.5691030000000  0.6025110000000 1.0
C      1  0.5005790000000  0.4791230000000  0.4978240000000 1.0
C      1  0.4233820000000  0.5231220000000  0.4717120000000 1.0
C      1  0.5064670000000  0.5264090000000  0.5155610000000 1.0
C      1  0.5593530000000  0.4374900000000  0.5418310000000 1.0
C      1  0.5014900000000  0.3595380000000  0.4676830000000 1.0
C      1  0.4488470000000  0.5404520000000  0.4129600000000 1.0
C      1  0.4058970000000  0.5050780000000  0.4581510000000 1.0
C      1  0.5363360000000  0.5539500000000  0.5505470000000 1.0
C      1  0.5990500000000  0.5876580000000  0.6177550000000 1.0
C      1  0.5867640000000  0.4970240000000  0.5828140000000 1.0
C      1  0.4505970000000  0.5255490000000  0.4634380000000 1.0
C      1  0.4262480000000  0.5506310000000  0.3443230000000 1.0
C      1  0.5083050000000  0.4524910000000  0.4981250000000 1.0
C      1  0.5128030000000  0.4987550000000  0.5143000000000 1.0
C      1  0.5197110000000  0.5439800000000  0.5324630000000 1.0
C      1  0.4712980000000  0.5166840000000  0.4802930000000 1.0
C      1  0.5147120000000  0.4048590000000  0.4917550000000 1.0
C      1  0.4855000000000  0.5338320000000  0.4979430000000 1.0
C      1  0.6100630000000  0.6059170000000  0.6327550000000 1.0
C      1  0.5847540000000  0.5230110000000  0.5876730000000 1.0
C      1  0.5760740000000  0.5495670000000  0.5864620000000 1.0
C      1  0.5733350000000  0.4523960000000  0.5587300000000 1.0
C      1  0.5420180000000  0.4292690000000  0.5235380000000 1.0
C      1  0.4799970000000  0.4896550000000  0.4813740000000 1.0
C      1  0.5081040000000  0.3822060000000  0.4797230000000 1.0
C      1  0.4139050000000  0.5385200000000  0.4923000000000 1.0
C      1  0.5216390000000  0.4287440000000  0.5044030000000 1.0
C      1  0.5553670000000  0.5561840000000  0.5688700000000 1.0
C      1  0.4271910000000  0.5350870000000  0.3958670000000 1.0
C      1  0.4267050000000  0.5431080000000  0.3692720000000 1.0
C      1  0.4949840000000  0.3372420000000  0.4558400000000 1.0
END
