TITL C-627108-131-481 8.88147588217231e-08 125000 -232.449743790527 0 0 39 (C1) n - 1
REM
REM in /home/nfs/bkarasulu/CARBON/AIRSS/Generating-Clusters/LCBOP/Only-C1/SD-CG/FIRE-CG
REM
REM
REM
REM
REM
REM ./C.cell (11c1c37f851c82e70ff6c80c92926a4b)
REM AIRSS Version 0.9.1 bugfix July 2018 build 013d7b7c2542+ Fri, 06 Jul 2018 19:26:36 +0100
REM compiler GCC version 9.2.1 20190827 (Red Hat 9.2.1-1)
REM options -cpp -mtune=generic -march=x86-64 -g -O0 -fpre-include=/usr/include/finclude/math-vector-fortran.h
REM seed 1669078866 -314679941 -1580301879 815063390 1273565613 2118983270 706560958 -1776385242 957004793 2028070485 1038773390 1763019757 -2134443611 519174199 -1876893123 -2095282497 -2126726865 -59852788 -318473039 -923437560 1547016106 1922870112 1612428016 -512854922 -1387905908 589434980 2122220047 -2141128148 -796540630 2054858024 -176541398 1876839241 -1007926624
REM
CELL 1.54180   50.00000   50.00000   50.00000   90.00000   90.00000   90.00000
LATT -1
SFAC C  
C      1  0.4385160000000  0.4872680000000  0.4742740000000 1.0
C      1  0.5194750000000  0.5293100000000  0.5033940000000 1.0
C      1  0.5795000000000  0.5430280000000  0.5768660000000 1.0
C      1  0.5156810000000  0.4239760000000  0.4588110000000 1.0
C      1  0.5453620000000  0.5304280000000  0.5450430000000 1.0
C      1  0.5096870000000  0.5892830000000  0.5306980000000 1.0
C      1  0.4522340000000  0.5363000000000  0.4876970000000 1.0
C      1  0.4789800000000  0.5413870000000  0.4794930000000 1.0
C      1  0.4507480000000  0.4745480000000  0.4526150000000 1.0
C      1  0.5067860000000  0.4157960000000  0.5096100000000 1.0
C      1  0.5256440000000  0.5187590000000  0.5290010000000 1.0
C      1  0.4739130000000  0.4677660000000  0.4415320000000 1.0
C      1  0.4380580000000  0.5154020000000  0.4752380000000 1.0
C      1  0.5578960000000  0.5494210000000  0.5614830000000 1.0
C      1  0.5470630000000  0.5753200000000  0.5612850000000 1.0
C      1  0.5109820000000  0.4968140000000  0.5384590000000 1.0
C      1  0.5284510000000  0.5904440000000  0.5496110000000 1.0
C      1  0.5181840000000  0.4919340000000  0.4389290000000 1.0
C      1  0.4468280000000  0.5332630000000  0.5383230000000 1.0
C      1  0.4910930000000  0.4773110000000  0.5415100000000 1.0
C      1  0.5442560000000  0.4551460000000  0.4306890000000 1.0
C      1  0.5135720000000  0.5138710000000  0.4557280000000 1.0
C      1  0.5443050000000  0.4840000000000  0.4286510000000 1.0
C      1  0.5288230000000  0.5171830000000  0.4795280000000 1.0
C      1  0.4900280000000  0.5297660000000  0.4559340000000 1.0
C      1  0.4553450000000  0.5103810000000  0.5493760000000 1.0
C      1  0.4637430000000  0.4850710000000  0.5403360000000 1.0
C      1  0.5029480000000  0.4233520000000  0.5363200000000 1.0
C      1  0.4462740000000  0.4715460000000  0.5229200000000 1.0
C      1  0.5040580000000  0.4046490000000  0.5562470000000 1.0
C      1  0.4444510000000  0.5437230000000  0.5137520000000 1.0
C      1  0.4988660000000  0.5733130000000  0.5123590000000 1.0
C      1  0.5640190000000  0.4999330000000  0.4191160000000 1.0
C      1  0.4985690000000  0.5487280000000  0.4992520000000 1.0
C      1  0.5192900000000  0.4449590000000  0.4410740000000 1.0
C      1  0.5015700000000  0.4680790000000  0.4405030000000 1.0
C      1  0.5111760000000  0.4150370000000  0.4834380000000 1.0
C      1  0.4356800000000  0.4732830000000  0.4984710000000 1.0
C      1  0.4979430000000  0.4502240000000  0.5424340000000 1.0
END
