TITL C-627109-622-934 0.00525191739464087 125000 -564.462987546491 0 0 94 (C1) n - 1
REM
REM in /home/nfs/bkarasulu/CARBON/AIRSS/Generating-Clusters/LCBOP/Only-C1/SD-CG/FIRE-CG
REM
REM
REM
REM
REM
REM ./C.cell (11c1c37f851c82e70ff6c80c92926a4b)
REM AIRSS Version 0.9.1 bugfix July 2018 build 013d7b7c2542+ Fri, 06 Jul 2018 19:26:36 +0100
REM compiler GCC version 9.2.1 20190827 (Red Hat 9.2.1-1)
REM options -cpp -mtune=generic -march=x86-64 -g -O0 -fpre-include=/usr/include/finclude/math-vector-fortran.h
REM seed -1849483813 1935221393 1082948216 1096765190 1750912042 1140737820 812654519 -584465501 -1313110329 -1568275582 786887247 -495757315 679252563 -274646709 -1264761079 -1041632084 538519857 11361201 -215977801 -1954347720 1428884945 544409464 845628984 631081767 89284427 -1008404129 910704056 -479503084 364938965 898052294 -142018703 -2080437544 1867140606
REM
CELL 1.54180   50.00000   50.00000   50.00000   90.00000   90.00000   90.00000
LATT -1
SFAC C  
C      1  0.4433260000000  0.5433640000000  0.4208670000000 1.0
C      1  0.4387110000000  0.4467730000000  0.5160140000000 1.0
C      1  0.5996770000000  0.5007750000000  0.5041450000000 1.0
C      1  0.4611310000000  0.4329650000000  0.4615030000000 1.0
C      1  0.5556320000000  0.4240530000000  0.5464300000000 1.0
C      1  0.5111280000000  0.4812220000000  0.4129980000000 1.0
C      1  0.4791240000000  0.6157340000000  0.5033410000000 1.0
C      1  0.5349900000000  0.5433760000000  0.4164100000000 1.0
C      1  0.5145210000000  0.4448560000000  0.5112540000000 1.0
C      1  0.4887560000000  0.5356160000000  0.4621940000000 1.0
C      1  0.4473870000000  0.5241670000000  0.5398550000000 1.0
C      1  0.4662330000000  0.4890150000000  0.4237040000000 1.0
C      1  0.5064060000000  0.5267200000000  0.4860470000000 1.0
C      1  0.5470540000000  0.5539890000000  0.5047160000000 1.0
C      1  0.4162860000000  0.5170390000000  0.4542770000000 1.0
C      1  0.5653930000000  0.5548240000000  0.5261960000000 1.0
C      1  0.4853810000000  0.4058020000000  0.4930360000000 1.0
C      1  0.4633430000000  0.4633320000000  0.5200320000000 1.0
C      1  0.4611770000000  0.5268890000000  0.4694290000000 1.0
C      1  0.4719440000000  0.6415620000000  0.5088590000000 1.0
C      1  0.5618820000000  0.5574360000000  0.5526940000000 1.0
C      1  0.4939820000000  0.5718430000000  0.5590010000000 1.0
C      1  0.5062840000000  0.4190260000000  0.5035990000000 1.0
C      1  0.4416670000000  0.5092730000000  0.5169380000000 1.0
C      1  0.5402800000000  0.5571730000000  0.5685670000000 1.0
C      1  0.4645090000000  0.6002830000000  0.4843330000000 1.0
C      1  0.4583580000000  0.5506550000000  0.5350080000000 1.0
C      1  0.5572600000000  0.4755840000000  0.4929340000000 1.0
C      1  0.5062100000000  0.4920930000000  0.5233570000000 1.0
C      1  0.6094390000000  0.4515190000000  0.5391360000000 1.0
C      1  0.6745320000000  0.4344840000000  0.5806490000000 1.0
C      1  0.5049000000000  0.4581580000000  0.5817370000000 1.0
C      1  0.5483360000000  0.5098160000000  0.4543680000000 1.0
C      1  0.4525910000000  0.5483620000000  0.5794690000000 1.0
C      1  0.5086260000000  0.4088870000000  0.5856100000000 1.0
C      1  0.5401560000000  0.5784970000000  0.4931230000000 1.0
C      1  0.4670510000000  0.5636150000000  0.5594350000000 1.0
C      1  0.4365890000000  0.5994620000000  0.4860710000000 1.0
C      1  0.5148950000000  0.3854700000000  0.5736520000000 1.0
C      1  0.4421670000000  0.4209510000000  0.5052840000000 1.0
C      1  0.5129360000000  0.5514340000000  0.5658890000000 1.0
C      1  0.4495940000000  0.4598290000000  0.4581870000000 1.0
C      1  0.5004150000000  0.5935110000000  0.5422030000000 1.0
C      1  0.5293410000000  0.5320890000000  0.5032950000000 1.0
C      1  0.4627410000000  0.4807720000000  0.5820050000000 1.0
C      1  0.5204690000000  0.4624550000000  0.4316660000000 1.0
C      1  0.5619900000000  0.4420850000000  0.5260170000000 1.0
C      1  0.4940930000000  0.4629020000000  0.5221300000000 1.0
C      1  0.5316830000000  0.5102010000000  0.5229150000000 1.0
C      1  0.5469600000000  0.4535840000000  0.4315830000000 1.0
C      1  0.4107600000000  0.5966290000000  0.4880630000000 1.0
C      1  0.4918360000000  0.4996380000000  0.4225010000000 1.0
C      1  0.5517470000000  0.3962590000000  0.5432710000000 1.0
C      1  0.4772810000000  0.5850430000000  0.4644990000000 1.0
C      1  0.4454060000000  0.4715270000000  0.4320320000000 1.0
C      1  0.6312780000000  0.4458330000000  0.5529990000000 1.0
C      1  0.4156260000000  0.5018560000000  0.4096330000000 1.0
C      1  0.5653880000000  0.4656470000000  0.4470410000000 1.0
C      1  0.4226720000000  0.5235410000000  0.4268040000000 1.0
C      1  0.5023950000000  0.5194430000000  0.4400220000000 1.0
C      1  0.5862590000000  0.4573180000000  0.5252100000000 1.0
C      1  0.4428100000000  0.5232570000000  0.5686070000000 1.0
C      1  0.5575500000000  0.4852910000000  0.4660030000000 1.0
C      1  0.4600730000000  0.4154840000000  0.4843680000000 1.0
C      1  0.4037650000000  0.4754300000000  0.4852190000000 1.0
C      1  0.4982490000000  0.4986950000000  0.5533810000000 1.0
C      1  0.5196790000000  0.4346620000000  0.5819610000000 1.0
C      1  0.5337890000000  0.3799130000000  0.5551480000000 1.0
C      1  0.4253570000000  0.5243970000000  0.4996410000000 1.0
C      1  0.5155390000000  0.5554710000000  0.4016470000000 1.0
C      1  0.5308800000000  0.5247150000000  0.4374270000000 1.0
C      1  0.5241340000000  0.5985740000000  0.5002850000000 1.0
C      1  0.4808970000000  0.5619870000000  0.4490810000000 1.0
C      1  0.4154400000000  0.4607870000000  0.5050980000000 1.0
C      1  0.6167160000000  0.5199860000000  0.4997090000000 1.0
C      1  0.4915610000000  0.4789050000000  0.4730360000000 1.0
C      1  0.4220660000000  0.4761320000000  0.4165930000000 1.0
C      1  0.5029140000000  0.4587850000000  0.4540980000000 1.0
C      1  0.4876820000000  0.4348800000000  0.4513550000000 1.0
C      1  0.4024640000000  0.4940300000000  0.4651990000000 1.0
C      1  0.4552130000000  0.4870790000000  0.5044690000000 1.0
C      1  0.5016570000000  0.6040540000000  0.5161040000000 1.0
C      1  0.4885990000000  0.5590110000000  0.4021850000000 1.0
C      1  0.4689540000000  0.5571930000000  0.4227790000000 1.0
C      1  0.4431530000000  0.4989300000000  0.5819880000000 1.0
C      1  0.4336160000000  0.5281240000000  0.4733740000000 1.0
C      1  0.5824630000000  0.4793250000000  0.5073920000000 1.0
C      1  0.4888480000000  0.4787120000000  0.5719230000000 1.0
C      1  0.5453560000000  0.4350690000000  0.5703330000000 1.0
C      1  0.4621840000000  0.4782640000000  0.4768970000000 1.0
C      1  0.5048970000000  0.5243740000000  0.5635120000000 1.0
C      1  0.6530850000000  0.4401110000000  0.5669380000000 1.0
C      1  0.5002520000000  0.4983770000000  0.4924030000000 1.0
C      1  0.5419760000000  0.4537390000000  0.5076090000000 1.0
END
