TITL C-627110-360-829 0.000196378795836538 125000 -112.910675791365 0 0 20 (Cs) n - 1
REM
REM in /home/nfs/bkarasulu/CARBON/AIRSS/Generating-Clusters/LCBOP/Only-C1/SD-CG/FIRE-CG
REM
REM
REM
REM
REM
REM ./C.cell (11c1c37f851c82e70ff6c80c92926a4b)
REM AIRSS Version 0.9.1 bugfix July 2018 build 013d7b7c2542+ Fri, 06 Jul 2018 19:26:36 +0100
REM compiler GCC version 9.2.1 20190827 (Red Hat 9.2.1-1)
REM options -cpp -mtune=generic -march=x86-64 -g -O0 -fpre-include=/usr/include/finclude/math-vector-fortran.h
REM seed 573700529 -977414480 -937701103 -531937897 662275842 1363273822 -1329922109 -884745407 1450820774 125307633 -998735251 -1708995273 -211691698 -1779440065 1492649663 1905927445 -965520535 2069665836 -887580380 -1390179256 -702374515 1962365763 -1173972774 1803520111 -904403604 792834508 1651533488 498606063 1216825853 -1328299854 -1052658268 -967772038 1772952082
REM
CELL 1.54180   50.00000   50.00000   50.00000   90.00000   90.00000   90.00000
LATT -1
SFAC C  
C      1  0.4941450000000  0.5802260000000  0.4904660000000 1.0
C      1  0.5320760000000  0.3860450000000  0.5116750000000 1.0
C      1  0.4409630000000  0.4640260000000  0.5211110000000 1.0
C      1  0.5116040000000  0.5176160000000  0.5217290000000 1.0
C      1  0.5194720000000  0.4607040000000  0.4889270000000 1.0
C      1  0.4578070000000  0.5498400000000  0.4760400000000 1.0
C      1  0.4983130000000  0.5028160000000  0.5013160000000 1.0
C      1  0.4580350000000  0.5244810000000  0.4842490000000 1.0
C      1  0.5136980000000  0.4873820000000  0.4830780000000 1.0
C      1  0.5279880000000  0.4106420000000  0.5040650000000 1.0
C      1  0.5184110000000  0.5051680000000  0.5457590000000 1.0
C      1  0.5306460000000  0.5115850000000  0.4379440000000 1.0
C      1  0.5238290000000  0.4356510000000  0.4963320000000 1.0
C      1  0.5229120000000  0.4990520000000  0.4594440000000 1.0
C      1  0.5244150000000  0.4922790000000  0.5675980000000 1.0
C      1  0.4716950000000  0.5726260000000  0.4779600000000 1.0
C      1  0.5120790000000  0.5682140000000  0.5062720000000 1.0
C      1  0.4699570000000  0.5035160000000  0.4985300000000 1.0
C      1  0.5176190000000  0.5446530000000  0.5174400000000 1.0
C      1  0.4543360000000  0.4834760000000  0.5100660000000 1.0
END
