TITL C-627106-156-905 -5509.43200722881 125000 -1116.51981657397 0 0 184 (C1) n - 1
REM
REM in /home/nfs/bkarasulu/CARBON/AIRSS/Generating-Clusters/LCBOP/Only-C1/SD-CG/FIRE-CG
REM
REM
REM
REM
REM
REM ./C.cell (11c1c37f851c82e70ff6c80c92926a4b)
REM AIRSS Version 0.9.1 bugfix July 2018 build 013d7b7c2542+ Fri, 06 Jul 2018 19:26:36 +0100
REM compiler GCC version 9.2.1 20190827 (Red Hat 9.2.1-1)
REM options -cpp -mtune=generic -march=x86-64 -g -O0 -fpre-include=/usr/include/finclude/math-vector-fortran.h
REM seed 1597892880 1890016029 1369181921 1320039031 -65528526 -854598324 1552605176 86323436 67310248 342166510 -2091531402 2054790530 1763372677 1492947373 2036701171 1890414092 -1923963993 1478112473 1124139730 1368326574 625617769 -442887271 788424035 289812909 172798208 -1760566697 -2041262742 1141666792 684750685 -1729135641 720768839 -86456544 891576496
REM
CELL 1.54180   50.00000   50.00000   50.00000   90.00000   90.00000   90.00000
LATT -1
SFAC C  
C      1  0.5171030000000  0.4707180000000  0.3988670000000 1.0
C      1  0.4981610000000  0.5947140000000  0.5814210000000 1.0
C      1  0.5234550000000  0.5397980000000  0.4915320000000 1.0
C      1  0.4658850000000  0.5328630000000  0.3686420000000 1.0
C      1  0.5383940000000  0.6484170000000  0.5268370000000 1.0
C      1  0.4464470000000  0.5085350000000  0.5634090000000 1.0
C      1  0.4474430000000  0.5955470000000  0.4743640000000 1.0
C      1  0.3959150000000  0.5594530000000  0.5032130000000 1.0
C      1  0.5879580000000  0.4971170000000  0.3900580000000 1.0
C      1  0.5300240000000  0.6221630000000  0.5307940000000 1.0
C      1  0.5208150000000  0.5945680000000  0.5982330000000 1.0
C      1  0.5198350000000  0.5076220000000  0.6120810000000 1.0
C      1  0.3809050000000  0.4779000000000  0.4496990000000 1.0
C      1  0.5518540000000  0.6020560000000  0.5282900000000 1.0
C      1  0.4764500000000  0.4105410000000  0.4058700000000 1.0
C      1  0.5741980000000  0.4688980000000  0.5071750000000 1.0
C      1  0.4716290000000  0.5075380000000  0.5504030000000 1.0
C      1  0.5856260000000  0.5373530000000  0.5052220000000 1.0
C      1  0.5486480000000  0.5387590000000  0.5683830000000 1.0
C      1  0.5420250000000  0.4873600000000  0.6063420000000 1.0
C      1  0.3949720000000  0.4606440000000  0.4670670000000 1.0
C      1  0.4183300000000  0.5328730000000  0.5918370000000 1.0
C      1  0.5094650000000  0.4229680000000  0.4398380000000 1.0
C      1  0.4965410000000  0.5040180000000  0.6297910000000 1.0
C      1  0.4668160000000  0.4432590000000  0.5275880000000 1.0
C      1  0.4737180000000  0.5450780000000  0.4488820000000 1.0
C      1  0.4985120000000  0.5157420000000  0.5547280000000 1.0
C      1  0.5739760000000  0.4847170000000  0.5880570000000 1.0
C      1  0.4862540000000  0.4357690000000  0.5482960000000 1.0
C      1  0.4513600000000  0.3759960000000  0.4793570000000 1.0
C      1  0.5807080000000  0.4385200000000  0.4635150000000 1.0
C      1  0.5654580000000  0.5434020000000  0.4254680000000 1.0
C      1  0.4676320000000  0.3706600000000  0.4582180000000 1.0
C      1  0.4620480000000  0.3815470000000  0.5274460000000 1.0
C      1  0.4176010000000  0.4750140000000  0.4776550000000 1.0
C      1  0.4317750000000  0.5240440000000  0.5041240000000 1.0
C      1  0.4724630000000  0.4212360000000  0.5915030000000 1.0
C      1  0.4342140000000  0.4986380000000  0.3780600000000 1.0
C      1  0.5792330000000  0.4562620000000  0.4417840000000 1.0
C      1  0.5696580000000  0.5204000000000  0.4893020000000 1.0
C      1  0.4767420000000  0.6185420000000  0.5216860000000 1.0
C      1  0.6055510000000  0.4059570000000  0.5240890000000 1.0
C      1  0.4363760000000  0.4330200000000  0.4441000000000 1.0
C      1  0.4956680000000  0.6165180000000  0.5644640000000 1.0
C      1  0.6068010000000  0.5197110000000  0.5721260000000 1.0
C      1  0.4291360000000  0.5307680000000  0.5657000000000 1.0
C      1  0.4482560000000  0.5516040000000  0.4612770000000 1.0
C      1  0.5148740000000  0.4971830000000  0.5131230000000 1.0
C      1  0.4831150000000  0.3632750000000  0.5267560000000 1.0
C      1  0.4438870000000  0.5098400000000  0.4408570000000 1.0
C      1  0.4889140000000  0.5684730000000  0.5731670000000 1.0
C      1  0.5819200000000  0.4176750000000  0.5327500000000 1.0
C      1  0.5500870000000  0.4334580000000  0.4986510000000 1.0
C      1  0.3961450000000  0.5513980000000  0.5315830000000 1.0
C      1  0.5118870000000  0.4840350000000  0.4635600000000 1.0
C      1  0.4580260000000  0.3961400000000  0.5518320000000 1.0
C      1  0.4243340000000  0.5212730000000  0.6155040000000 1.0
C      1  0.4036390000000  0.5261240000000  0.4580930000000 1.0
C      1  0.4365600000000  0.4733010000000  0.5608600000000 1.0
C      1  0.4611760000000  0.4376360000000  0.4562810000000 1.0
C      1  0.4471260000000  0.4632420000000  0.5865200000000 1.0
C      1  0.5911470000000  0.4626990000000  0.5646670000000 1.0
C      1  0.4201530000000  0.4034090000000  0.5095510000000 1.0
C      1  0.4742230000000  0.4610790000000  0.4470910000000 1.0
C      1  0.5204480000000  0.5903640000000  0.3923940000000 1.0
C      1  0.4145740000000  0.4128720000000  0.5364900000000 1.0
C      1  0.5052570000000  0.5215540000000  0.5023690000000 1.0
C      1  0.5407940000000  0.4336950000000  0.5773200000000 1.0
C      1  0.4498680000000  0.6135370000000  0.5204170000000 1.0
C      1  0.5203170000000  0.5278280000000  0.5687080000000 1.0
C      1  0.5605720000000  0.5193090000000  0.5498870000000 1.0
C      1  0.5838690000000  0.4338010000000  0.5578490000000 1.0
C      1  0.5076320000000  0.6101740000000  0.4047590000000 1.0
C      1  0.5977550000000  0.5452660000000  0.5295030000000 1.0
C      1  0.6083430000000  0.4760220000000  0.5451400000000 1.0
C      1  0.5420360000000  0.4991010000000  0.5154550000000 1.0
C      1  0.4865760000000  0.5276310000000  0.3851470000000 1.0
C      1  0.5821650000000  0.5200340000000  0.4319110000000 1.0
C      1  0.4277130000000  0.5365030000000  0.4438650000000 1.0
C      1  0.5238910000000  0.5664620000000  0.5012870000000 1.0
C      1  0.4636410000000  0.4611280000000  0.3944540000000 1.0
C      1  0.5608380000000  0.3870390000000  0.4600960000000 1.0
C      1  0.4642520000000  0.4919150000000  0.5268670000000 1.0
C      1  0.5126790000000  0.5303960000000  0.5955700000000 1.0
C      1  0.4905740000000  0.4713730000000  0.3929440000000 1.0
C      1  0.4765320000000  0.4255510000000  0.4770690000000 1.0
C      1  0.4391290000000  0.5262260000000  0.3749640000000 1.0
C      1  0.4796890000000  0.5301160000000  0.5072700000000 1.0
C      1  0.4721820000000  0.5198170000000  0.6301490000000 1.0
C      1  0.5735530000000  0.4473150000000  0.4896270000000 1.0
C      1  0.4246420000000  0.5439810000000  0.3913750000000 1.0
C      1  0.5518970000000  0.4941860000000  0.5419270000000 1.0
C      1  0.4947000000000  0.4011490000000  0.4254940000000 1.0
C      1  0.5641140000000  0.5825000000000  0.5463300000000 1.0
C      1  0.4456920000000  0.5683910000000  0.4835590000000 1.0
C      1  0.5009940000000  0.6551820000000  0.4200600000000 1.0
C      1  0.5669330000000  0.3657030000000  0.4440310000000 1.0
C      1  0.5107670000000  0.5711980000000  0.5261460000000 1.0
C      1  0.4629610000000  0.4933370000000  0.4780640000000 1.0
C      1  0.5115470000000  0.3881880000000  0.4682930000000 1.0
C      1  0.4911200000000  0.5495790000000  0.5959700000000 1.0
C      1  0.4767080000000  0.4142620000000  0.5644380000000 1.0
C      1  0.5664500000000  0.4225030000000  0.5773020000000 1.0
C      1  0.4305280000000  0.4008420000000  0.5565620000000 1.0
C      1  0.6006960000000  0.5284010000000  0.4548200000000 1.0
C      1  0.5357250000000  0.5685500000000  0.3908820000000 1.0
C      1  0.5606870000000  0.5976750000000  0.5009900000000 1.0
C      1  0.4594060000000  0.5088880000000  0.5023970000000 1.0
C      1  0.4529170000000  0.4668790000000  0.5351120000000 1.0
C      1  0.5642190000000  0.4724910000000  0.4237390000000 1.0
C      1  0.5092030000000  0.3587750000000  0.5291460000000 1.0
C      1  0.4880460000000  0.5639540000000  0.5430270000000 1.0
C      1  0.5371440000000  0.4623730000000  0.4173730000000 1.0
C      1  0.5086460000000  0.4546610000000  0.5468070000000 1.0
C      1  0.5263100000000  0.4459230000000  0.4385440000000 1.0
C      1  0.5452130000000  0.3873370000000  0.5069710000000 1.0
C      1  0.4595780000000  0.4434860000000  0.5996360000000 1.0
C      1  0.5012140000000  0.6195600000000  0.5369200000000 1.0
C      1  0.5446870000000  0.5760500000000  0.4580630000000 1.0
C      1  0.5020790000000  0.4155240000000  0.4679250000000 1.0
C      1  0.4411080000000  0.5509570000000  0.5169110000000 1.0
C      1  0.5574750000000  0.4119430000000  0.5159990000000 1.0
C      1  0.4041390000000  0.5375580000000  0.4847320000000 1.0
C      1  0.4450730000000  0.5119710000000  0.6302060000000 1.0
C      1  0.5334000000000  0.3686850000000  0.5240660000000 1.0
C      1  0.4136720000000  0.4796520000000  0.5051620000000 1.0
C      1  0.4156650000000  0.5032490000000  0.5177090000000 1.0
C      1  0.5357100000000  0.4502800000000  0.5544080000000 1.0
C      1  0.5777590000000  0.4966310000000  0.4156720000000 1.0
C      1  0.5656050000000  0.5317380000000  0.5932000000000 1.0
C      1  0.4635480000000  0.4324390000000  0.3963670000000 1.0
C      1  0.5875210000000  0.5960480000000  0.4920480000000 1.0
C      1  0.4706860000000  0.5206410000000  0.4336410000000 1.0
C      1  0.5890890000000  0.5702070000000  0.5396290000000 1.0
C      1  0.6104350000000  0.5238630000000  0.5440550000000 1.0
C      1  0.4753680000000  0.5460380000000  0.6188230000000 1.0
C      1  0.5510560000000  0.5688970000000  0.5675520000000 1.0
C      1  0.4195500000000  0.4750760000000  0.4182500000000 1.0
C      1  0.6194060000000  0.5020440000000  0.5001130000000 1.0
C      1  0.3923850000000  0.4339960000000  0.4754570000000 1.0
C      1  0.5270480000000  0.4459710000000  0.4882590000000 1.0
C      1  0.4697350000000  0.5506460000000  0.5248630000000 1.0
C      1  0.4204330000000  0.4488500000000  0.4290880000000 1.0
C      1  0.5040790000000  0.4517950000000  0.5028030000000 1.0
C      1  0.4245120000000  0.6078270000000  0.4634390000000 1.0
C      1  0.4054660000000  0.6190390000000  0.4496120000000 1.0
C      1  0.4229810000000  0.5484880000000  0.5429950000000 1.0
C      1  0.4840010000000  0.4822680000000  0.4632090000000 1.0
C      1  0.5063850000000  0.4716570000000  0.5227940000000 1.0
C      1  0.5271200000000  0.4600460000000  0.4634920000000 1.0
C      1  0.4055840000000  0.5872080000000  0.5046230000000 1.0
C      1  0.5462770000000  0.5310360000000  0.4777930000000 1.0
C      1  0.4718550000000  0.6072000000000  0.4665180000000 1.0
C      1  0.5385900000000  0.3851460000000  0.4784110000000 1.0
C      1  0.5199240000000  0.5723260000000  0.4452560000000 1.0
C      1  0.5676710000000  0.5629970000000  0.4466620000000 1.0
C      1  0.4785600000000  0.4388990000000  0.5017570000000 1.0
C      1  0.5440320000000  0.5833400000000  0.5907680000000 1.0
C      1  0.4861900000000  0.5188180000000  0.4105230000000 1.0
C      1  0.4099260000000  0.4612920000000  0.5548690000000 1.0
C      1  0.6015430000000  0.5781700000000  0.4772240000000 1.0
C      1  0.4438620000000  0.3864340000000  0.5050130000000 1.0
C      1  0.5349300000000  0.4618290000000  0.6158510000000 1.0
C      1  0.4930030000000  0.3780980000000  0.4467790000000 1.0
C      1  0.5418550000000  0.5830000000000  0.4859090000000 1.0
C      1  0.3971820000000  0.4973300000000  0.4377880000000 1.0
C      1  0.5295770000000  0.4394220000000  0.6022220000000 1.0
C      1  0.4391180000000  0.4780910000000  0.3967510000000 1.0
C      1  0.4956610000000  0.5615980000000  0.4454960000000 1.0
C      1  0.6147470000000  0.5124540000000  0.4748490000000 1.0
C      1  0.5763810000000  0.4107470000000  0.4587080000000 1.0
C      1  0.5852970000000  0.5111510000000  0.5888800000000 1.0
C      1  0.5932400000000  0.5574280000000  0.4599740000000 1.0
C      1  0.4874870000000  0.6188590000000  0.4483630000000 1.0
C      1  0.4247930000000  0.6037060000000  0.5155210000000 1.0
C      1  0.5513230000000  0.5501870000000  0.4024070000000 1.0
C      1  0.4383500000000  0.4907550000000  0.4632940000000 1.0
C      1  0.6151310000000  0.4992210000000  0.5290080000000 1.0
C      1  0.4986760000000  0.6282410000000  0.4243440000000 1.0
C      1  0.4218240000000  0.5486800000000  0.4176460000000 1.0
C      1  0.4039220000000  0.4138520000000  0.4889380000000 1.0
C      1  0.4030050000000  0.4377200000000  0.5434150000000 1.0
C      1  0.5650380000000  0.4943530000000  0.4988380000000 1.0
C      1  0.5560930000000  0.4662900000000  0.5399950000000 1.0
END
