TITL C-627113-6568-1332 5.39924760426141e-07 125000 -1121.96791825921 0 0 182 (C1) n - 1
REM
REM in /home/nfs/bkarasulu/CARBON/AIRSS/Generating-Clusters/LCBOP/Only-C1/SD-CG/FIRE-CG
REM
REM
REM
REM
REM
REM ./C.cell (11c1c37f851c82e70ff6c80c92926a4b)
REM AIRSS Version 0.9.1 bugfix July 2018 build 013d7b7c2542+ Fri, 06 Jul 2018 19:26:36 +0100
REM compiler GCC version 9.2.1 20190827 (Red Hat 9.2.1-1)
REM options -cpp -mtune=generic -march=x86-64 -g -O0 -fpre-include=/usr/include/finclude/math-vector-fortran.h
REM seed 224081538 1220574792 -1931596418 -142626756 -1086293189 -13511185 -457154307 1014364265 317881107 1588949115 1173291509 -1477357628 -1886742335 -837676096 440566204 1320436011 1045185263 -603719663 -2088057180 -387759343 -60659073 -738785681 -1138804588 1695329121 1341214749 503433816 -360811571 1620310440 905307394 -1782305532 1177287123 -1920049831 -520351094
REM
CELL 1.54180   50.00000   50.00000   50.00000   90.00000   90.00000   90.00000
LATT -1
SFAC C  
C      1  0.6067450000000  0.4182870000000  0.4769080000000 1.0
C      1  0.3996050000000  0.5485780000000  0.5428480000000 1.0
C      1  0.4418590000000  0.4250760000000  0.4706030000000 1.0
C      1  0.3987920000000  0.5113800000000  0.4422370000000 1.0
C      1  0.4283250000000  0.4859710000000  0.5756080000000 1.0
C      1  0.6009980000000  0.5557650000000  0.5350690000000 1.0
C      1  0.5595490000000  0.3967500000000  0.5451500000000 1.0
C      1  0.4670430000000  0.4337330000000  0.4619510000000 1.0
C      1  0.5838300000000  0.5291410000000  0.4645650000000 1.0
C      1  0.5180190000000  0.4515540000000  0.5527550000000 1.0
C      1  0.5594990000000  0.4658380000000  0.4631530000000 1.0
C      1  0.4050440000000  0.5201690000000  0.5492520000000 1.0
C      1  0.4507140000000  0.5605430000000  0.5295660000000 1.0
C      1  0.3851670000000  0.5145790000000  0.4668590000000 1.0
C      1  0.5890460000000  0.5348180000000  0.4908820000000 1.0
C      1  0.6065310000000  0.5762110000000  0.6048790000000 1.0
C      1  0.5534520000000  0.5543470000000  0.5323000000000 1.0
C      1  0.4390000000000  0.4751880000000  0.5117130000000 1.0
C      1  0.4940640000000  0.4690810000000  0.5489990000000 1.0
C      1  0.4901620000000  0.5323110000000  0.4835570000000 1.0
C      1  0.4102310000000  0.4635220000000  0.4762240000000 1.0
C      1  0.3978140000000  0.4529180000000  0.5009940000000 1.0
C      1  0.5679900000000  0.5345790000000  0.4216780000000 1.0
C      1  0.4288050000000  0.3886350000000  0.5325420000000 1.0
C      1  0.5027970000000  0.5385290000000  0.5798280000000 1.0
C      1  0.5766320000000  0.5703400000000  0.5314970000000 1.0
C      1  0.6176440000000  0.4411380000000  0.4639140000000 1.0
C      1  0.4904900000000  0.5915210000000  0.5409140000000 1.0
C      1  0.4594100000000  0.4697950000000  0.6098490000000 1.0
C      1  0.4554420000000  0.4410430000000  0.5437450000000 1.0
C      1  0.4302950000000  0.4826770000000  0.4860300000000 1.0
C      1  0.5523050000000  0.5935070000000  0.4821550000000 1.0
C      1  0.5984250000000  0.4258910000000  0.5311490000000 1.0
C      1  0.5437470000000  0.4257020000000  0.4888940000000 1.0
C      1  0.5920650000000  0.4013480000000  0.4596120000000 1.0
C      1  0.4328840000000  0.6069360000000  0.5078100000000 1.0
C      1  0.4727680000000  0.4205410000000  0.5360700000000 1.0
C      1  0.3844430000000  0.4754190000000  0.5166830000000 1.0
C      1  0.3639260000000  0.4997640000000  0.4777480000000 1.0
C      1  0.5673460000000  0.4473590000000  0.5613800000000 1.0
C      1  0.5654890000000  0.4475880000000  0.4201420000000 1.0
C      1  0.5546440000000  0.4672150000000  0.5113580000000 1.0
C      1  0.4553260000000  0.5699380000000  0.4811430000000 1.0
C      1  0.4518970000000  0.4714740000000  0.5824500000000 1.0
C      1  0.5263310000000  0.5001370000000  0.4923490000000 1.0
C      1  0.4569870000000  0.4462660000000  0.6244720000000 1.0
C      1  0.5463780000000  0.5787570000000  0.3921310000000 1.0
C      1  0.5034810000000  0.5164360000000  0.5046650000000 1.0
C      1  0.3887630000000  0.5222660000000  0.4186130000000 1.0
C      1  0.4755570000000  0.4865580000000  0.4379730000000 1.0
C      1  0.5954230000000  0.4893860000000  0.4919280000000 1.0
C      1  0.5108710000000  0.6101400000000  0.4198480000000 1.0
C      1  0.5571130000000  0.3839490000000  0.5192740000000 1.0
C      1  0.5303980000000  0.3970830000000  0.5883010000000 1.0
C      1  0.5046980000000  0.5568140000000  0.4241620000000 1.0
C      1  0.5181400000000  0.6389310000000  0.4951070000000 1.0
C      1  0.4620680000000  0.5857720000000  0.5401350000000 1.0
C      1  0.5201480000000  0.3716090000000  0.5505490000000 1.0
C      1  0.5008790000000  0.4977780000000  0.5524020000000 1.0
C      1  0.5956520000000  0.5140200000000  0.5098030000000 1.0
C      1  0.4683330000000  0.4937180000000  0.6214650000000 1.0
C      1  0.4401310000000  0.3835080000000  0.5563360000000 1.0
C      1  0.5736600000000  0.4214620000000  0.5471200000000 1.0
C      1  0.4459980000000  0.5620860000000  0.4534910000000 1.0
C      1  0.4683200000000  0.5187110000000  0.4670500000000 1.0
C      1  0.5436240000000  0.6343910000000  0.5037030000000 1.0
C      1  0.5933930000000  0.5563490000000  0.5942970000000 1.0
C      1  0.5102260000000  0.5477140000000  0.5525230000000 1.0
C      1  0.5252770000000  0.5782760000000  0.5824780000000 1.0
C      1  0.4652710000000  0.5363380000000  0.3840590000000 1.0
C      1  0.5272200000000  0.5503810000000  0.5940020000000 1.0
C      1  0.4303710000000  0.4741100000000  0.4322000000000 1.0
C      1  0.5583820000000  0.5267880000000  0.4507090000000 1.0
C      1  0.5280300000000  0.5988420000000  0.4005190000000 1.0
C      1  0.4650670000000  0.3841470000000  0.4732630000000 1.0
C      1  0.5148820000000  0.5362670000000  0.4670570000000 1.0
C      1  0.4940480000000  0.5146750000000  0.5306170000000 1.0
C      1  0.5301910000000  0.4637050000000  0.4577960000000 1.0
C      1  0.4417610000000  0.5041410000000  0.4687830000000 1.0
C      1  0.6054260000000  0.4636160000000  0.4517850000000 1.0
C      1  0.4993320000000  0.4140950000000  0.4952690000000 1.0
C      1  0.5289140000000  0.4190790000000  0.4363520000000 1.0
C      1  0.5922800000000  0.4633770000000  0.5608420000000 1.0
C      1  0.4756710000000  0.5313340000000  0.5876130000000 1.0
C      1  0.4516180000000  0.5307500000000  0.5705180000000 1.0
C      1  0.5197950000000  0.5099630000000  0.4099840000000 1.0
C      1  0.4677370000000  0.4599150000000  0.5618010000000 1.0
C      1  0.4061050000000  0.4743850000000  0.5617320000000 1.0
C      1  0.5784450000000  0.4595320000000  0.4426120000000 1.0
C      1  0.4067890000000  0.5933390000000  0.5142370000000 1.0
C      1  0.4871110000000  0.3922650000000  0.4527700000000 1.0
C      1  0.4803710000000  0.5521370000000  0.3672590000000 1.0
C      1  0.4528880000000  0.4261490000000  0.6405270000000 1.0
C      1  0.3912290000000  0.6081560000000  0.5840960000000 1.0
C      1  0.5425120000000  0.4620110000000  0.5636290000000 1.0
C      1  0.4521320000000  0.6008610000000  0.4840420000000 1.0
C      1  0.5164970000000  0.3989880000000  0.4543000000000 1.0
C      1  0.4893070000000  0.6017290000000  0.4392660000000 1.0
C      1  0.4418040000000  0.4002140000000  0.4853290000000 1.0
C      1  0.3631630000000  0.4870960000000  0.5016040000000 1.0
C      1  0.5977630000000  0.5266910000000  0.5365020000000 1.0
C      1  0.4831760000000  0.5607190000000  0.4897450000000 1.0
C      1  0.4748530000000  0.4620250000000  0.4020970000000 1.0
C      1  0.4470090000000  0.6088070000000  0.5327920000000 1.0
C      1  0.5432560000000  0.5046810000000  0.5900180000000 1.0
C      1  0.4133280000000  0.4572780000000  0.4485120000000 1.0
C      1  0.5046770000000  0.3980180000000  0.5966820000000 1.0
C      1  0.5516920000000  0.4670060000000  0.4039350000000 1.0
C      1  0.3951820000000  0.5937710000000  0.5627300000000 1.0
C      1  0.5364860000000  0.4896100000000  0.4032840000000 1.0
C      1  0.5362400000000  0.5176540000000  0.4679040000000 1.0
C      1  0.4567870000000  0.5629170000000  0.4273880000000 1.0
C      1  0.4941570000000  0.4620280000000  0.4934120000000 1.0
C      1  0.5944420000000  0.5204730000000  0.4216670000000 1.0
C      1  0.5409800000000  0.5068300000000  0.5412510000000 1.0
C      1  0.6028810000000  0.5131920000000  0.4489490000000 1.0
C      1  0.3973670000000  0.5772350000000  0.4928550000000 1.0
C      1  0.5420740000000  0.4922460000000  0.5166840000000 1.0
C      1  0.6255290000000  0.5676420000000  0.5368330000000 1.0
C      1  0.5414520000000  0.4416400000000  0.5121810000000 1.0
C      1  0.4156270000000  0.4326800000000  0.5136460000000 1.0
C      1  0.5343720000000  0.5356810000000  0.5411440000000 1.0
C      1  0.5751660000000  0.4027770000000  0.4387080000000 1.0
C      1  0.4789470000000  0.3926560000000  0.5911460000000 1.0
C      1  0.5402740000000  0.3867460000000  0.5639640000000 1.0
C      1  0.4655840000000  0.5146710000000  0.5289830000000 1.0
C      1  0.5176440000000  0.4462930000000  0.4364890000000 1.0
C      1  0.4573030000000  0.4701930000000  0.4237430000000 1.0
C      1  0.4981800000000  0.6002190000000  0.5147100000000 1.0
C      1  0.4612930000000  0.4885130000000  0.5194790000000 1.0
C      1  0.5432530000000  0.4907370000000  0.5655620000000 1.0
C      1  0.4385030000000  0.5574550000000  0.5029020000000 1.0
C      1  0.5044700000000  0.5774560000000  0.4994760000000 1.0
C      1  0.4960030000000  0.6211960000000  0.4940550000000 1.0
C      1  0.6046870000000  0.4173110000000  0.5051280000000 1.0
C      1  0.4736530000000  0.4818400000000  0.3815480000000 1.0
C      1  0.5904520000000  0.5175590000000  0.5630890000000 1.0
C      1  0.5562690000000  0.4202450000000  0.4268880000000 1.0
C      1  0.5947890000000  0.4901340000000  0.5684180000000 1.0
C      1  0.4256070000000  0.5010380000000  0.4436520000000 1.0
C      1  0.5403690000000  0.3811100000000  0.4977770000000 1.0
C      1  0.4778780000000  0.6125870000000  0.4713490000000 1.0
C      1  0.5504940000000  0.5321750000000  0.5925010000000 1.0
C      1  0.5652360000000  0.5907790000000  0.4569950000000 1.0
C      1  0.5718890000000  0.4718130000000  0.4893020000000 1.0
C      1  0.5277770000000  0.5679130000000  0.4376480000000 1.0
C      1  0.4861360000000  0.4370010000000  0.4832300000000 1.0
C      1  0.5592950000000  0.6107190000000  0.5034740000000 1.0
C      1  0.4209550000000  0.5515160000000  0.3960470000000 1.0
C      1  0.4817890000000  0.5135520000000  0.4413720000000 1.0
C      1  0.5737940000000  0.5975240000000  0.5238670000000 1.0
C      1  0.4118620000000  0.5529610000000  0.4931740000000 1.0
C      1  0.4989400000000  0.4122160000000  0.5251590000000 1.0
C      1  0.4008070000000  0.5783980000000  0.5398150000000 1.0
C      1  0.4757770000000  0.4165370000000  0.4410440000000 1.0
C      1  0.4270990000000  0.5147270000000  0.5704750000000 1.0
C      1  0.5215000000000  0.4328580000000  0.5317580000000 1.0
C      1  0.5236350000000  0.5616070000000  0.4638240000000 1.0
C      1  0.5146480000000  0.4754670000000  0.4789850000000 1.0
C      1  0.5549930000000  0.5764480000000  0.4351670000000 1.0
C      1  0.5779420000000  0.5359200000000  0.5829390000000 1.0
C      1  0.4255860000000  0.4048100000000  0.5094880000000 1.0
C      1  0.4668580000000  0.5081020000000  0.3802310000000 1.0
C      1  0.4732720000000  0.5184190000000  0.6125700000000 1.0
C      1  0.5011420000000  0.5271600000000  0.4238870000000 1.0
C      1  0.5622160000000  0.5622640000000  0.4110840000000 1.0
C      1  0.3988030000000  0.5303820000000  0.4852770000000 1.0
C      1  0.5031850000000  0.3840790000000  0.5338490000000 1.0
C      1  0.3974300000000  0.5398220000000  0.4004850000000 1.0
C      1  0.6084990000000  0.4894840000000  0.4644780000000 1.0
C      1  0.5254550000000  0.4025060000000  0.4829500000000 1.0
C      1  0.4480920000000  0.5499580000000  0.4030640000000 1.0
C      1  0.3951330000000  0.4911520000000  0.5399380000000 1.0
C      1  0.5286050000000  0.5782430000000  0.4850420000000 1.0
C      1  0.4997210000000  0.4519740000000  0.4139900000000 1.0
C      1  0.4822720000000  0.5748140000000  0.4279610000000 1.0
C      1  0.4357270000000  0.4498570000000  0.5252770000000 1.0
C      1  0.6103980000000  0.4491220000000  0.5436120000000 1.0
C      1  0.4848200000000  0.4710190000000  0.5187180000000 1.0
C      1  0.4552270000000  0.5363780000000  0.5428640000000 1.0
C      1  0.4572450000000  0.3861050000000  0.5768270000000 1.0
C      1  0.5096330000000  0.5774560000000  0.5569420000000 1.0
END
