TITL C-627108-131-1001 -0.00933238961214473 125000 -712.38886206685 0 0 116 (C1) n - 1
REM
REM in /home/nfs/bkarasulu/CARBON/AIRSS/Generating-Clusters/LCBOP/Only-C1/SD-CG/FIRE-CG
REM
REM
REM
REM
REM
REM ./C.cell (11c1c37f851c82e70ff6c80c92926a4b)
REM AIRSS Version 0.9.1 bugfix July 2018 build 013d7b7c2542+ Fri, 06 Jul 2018 19:26:36 +0100
REM compiler GCC version 9.2.1 20190827 (Red Hat 9.2.1-1)
REM options -cpp -mtune=generic -march=x86-64 -g -O0 -fpre-include=/usr/include/finclude/math-vector-fortran.h
REM seed -1321074661 -462334915 -833555615 2034414656 521133874 565178799 -417523481 1869486496 -196563957 1279751604 -1075374088 -1270550332 2108167249 -81073984 519226240 1209812234 -521949620 -1696832755 -216520210 -1398340034 537197086 -1537432206 421293464 429121238 881785620 869820063 -1657156163 -1308305490 -239497404 -1577143240 1519399573 -228968568 -1105229176
REM
CELL 1.54180   50.00000   50.00000   50.00000   90.00000   90.00000   90.00000
LATT -1
SFAC C  
C      1  0.5137670000000  0.4372400000000  0.4460350000000 1.0
C      1  0.4845980000000  0.4377290000000  0.5873870000000 1.0
C      1  0.5112860000000  0.4131120000000  0.4613520000000 1.0
C      1  0.4135950000000  0.4979070000000  0.4583270000000 1.0
C      1  0.5487180000000  0.4748350000000  0.4850990000000 1.0
C      1  0.4707560000000  0.5264590000000  0.4582950000000 1.0
C      1  0.5323250000000  0.6782350000000  0.4732760000000 1.0
C      1  0.4132330000000  0.5187560000000  0.4391450000000 1.0
C      1  0.5609990000000  0.4422960000000  0.4516040000000 1.0
C      1  0.4732930000000  0.4875340000000  0.4272110000000 1.0
C      1  0.4154700000000  0.4226320000000  0.5399850000000 1.0
C      1  0.5880560000000  0.4757960000000  0.5475850000000 1.0
C      1  0.4510480000000  0.5024100000000  0.5899630000000 1.0
C      1  0.5582880000000  0.5874880000000  0.4690240000000 1.0
C      1  0.4624910000000  0.5822220000000  0.4598440000000 1.0
C      1  0.4598040000000  0.4359250000000  0.5713140000000 1.0
C      1  0.5684610000000  0.5119700000000  0.5800000000000 1.0
C      1  0.4707080000000  0.5443030000000  0.4855380000000 1.0
C      1  0.5711440000000  0.4416250000000  0.5129630000000 1.0
C      1  0.4990400000000  0.4787320000000  0.4169870000000 1.0
C      1  0.5124850000000  0.4653430000000  0.6160370000000 1.0
C      1  0.4962750000000  0.4751720000000  0.5512090000000 1.0
C      1  0.6012130000000  0.5497830000000  0.4589160000000 1.0
C      1  0.4973870000000  0.5257970000000  0.5834180000000 1.0
C      1  0.5232600000000  0.6546640000000  0.4668080000000 1.0
C      1  0.4927480000000  0.4637740000000  0.4840240000000 1.0
C      1  0.4876890000000  0.4803020000000  0.5773310000000 1.0
C      1  0.4402600000000  0.5239150000000  0.5283240000000 1.0
C      1  0.5164090000000  0.5075510000000  0.4853970000000 1.0
C      1  0.5786230000000  0.4429160000000  0.4764330000000 1.0
C      1  0.4485990000000  0.4806850000000  0.5005020000000 1.0
C      1  0.5741160000000  0.5139380000000  0.5040380000000 1.0
C      1  0.4039260000000  0.4679720000000  0.5261160000000 1.0
C      1  0.4406860000000  0.4337600000000  0.4800840000000 1.0
C      1  0.6095150000000  0.5449560000000  0.4841700000000 1.0
C      1  0.4535890000000  0.4696350000000  0.4380570000000 1.0
C      1  0.5048390000000  0.6054250000000  0.4537610000000 1.0
C      1  0.4182700000000  0.4506040000000  0.5436350000000 1.0
C      1  0.4320990000000  0.4761190000000  0.4563170000000 1.0
C      1  0.4399460000000  0.4879330000000  0.5680140000000 1.0
C      1  0.5369000000000  0.4511320000000  0.4370440000000 1.0
C      1  0.4936950000000  0.4917910000000  0.4901410000000 1.0
C      1  0.4369450000000  0.4625550000000  0.4818410000000 1.0
C      1  0.5994050000000  0.4615200000000  0.4688960000000 1.0
C      1  0.4215710000000  0.5416700000000  0.4279050000000 1.0
C      1  0.5074790000000  0.5931730000000  0.4281810000000 1.0
C      1  0.4646820000000  0.5713350000000  0.4328370000000 1.0
C      1  0.5351620000000  0.4940200000000  0.4692030000000 1.0
C      1  0.5450440000000  0.5632180000000  0.4655860000000 1.0
C      1  0.4933540000000  0.5683220000000  0.4240840000000 1.0
C      1  0.5213090000000  0.5222110000000  0.5987700000000 1.0
C      1  0.4670210000000  0.5327120000000  0.3808590000000 1.0
C      1  0.4887230000000  0.5893430000000  0.4706970000000 1.0
C      1  0.4827690000000  0.4615400000000  0.5314130000000 1.0
C      1  0.5655930000000  0.5316150000000  0.5596220000000 1.0
C      1  0.5329030000000  0.5284080000000  0.4340540000000 1.0
C      1  0.4698370000000  0.4997580000000  0.5023280000000 1.0
C      1  0.5282910000000  0.4134910000000  0.5334500000000 1.0
C      1  0.4341710000000  0.4039600000000  0.5453340000000 1.0
C      1  0.4891800000000  0.4632990000000  0.5999220000000 1.0
C      1  0.5814530000000  0.5340080000000  0.4459870000000 1.0
C      1  0.5466280000000  0.5265350000000  0.5397330000000 1.0
C      1  0.4598080000000  0.4225890000000  0.4612340000000 1.0
C      1  0.5809530000000  0.4679250000000  0.5213060000000 1.0
C      1  0.4842630000000  0.5394180000000  0.5357350000000 1.0
C      1  0.4839060000000  0.3971170000000  0.5528710000000 1.0
C      1  0.5734350000000  0.6081300000000  0.4739150000000 1.0
C      1  0.4486130000000  0.5655050000000  0.4792330000000 1.0
C      1  0.4881600000000  0.4201080000000  0.5090350000000 1.0
C      1  0.3948900000000  0.5295390000000  0.4903080000000 1.0
C      1  0.5335430000000  0.4447810000000  0.5788740000000 1.0
C      1  0.5281070000000  0.5309700000000  0.4962010000000 1.0
C      1  0.5246080000000  0.5102970000000  0.5464200000000 1.0
C      1  0.4714390000000  0.5199980000000  0.5935900000000 1.0
C      1  0.4001600000000  0.5025010000000  0.4839190000000 1.0
C      1  0.5265960000000  0.4770820000000  0.4261330000000 1.0
C      1  0.4326480000000  0.5057310000000  0.5467660000000 1.0
C      1  0.4395360000000  0.4585710000000  0.5630110000000 1.0
C      1  0.4969140000000  0.5643950000000  0.4835030000000 1.0
C      1  0.5827580000000  0.4891920000000  0.5705920000000 1.0
C      1  0.4668220000000  0.5278490000000  0.5126410000000 1.0
C      1  0.4043260000000  0.5541620000000  0.4945800000000 1.0
C      1  0.5011070000000  0.5252700000000  0.5544350000000 1.0
C      1  0.4762970000000  0.5660530000000  0.5424470000000 1.0
C      1  0.3972220000000  0.4831360000000  0.5047480000000 1.0
C      1  0.4701410000000  0.5152860000000  0.4314970000000 1.0
C      1  0.5402890000000  0.4565870000000  0.5528730000000 1.0
C      1  0.4678240000000  0.5284330000000  0.4066210000000 1.0
C      1  0.4829200000000  0.4045760000000  0.4628540000000 1.0
C      1  0.5471570000000  0.5137650000000  0.5988460000000 1.0
C      1  0.4273290000000  0.5699780000000  0.4970910000000 1.0
C      1  0.5269550000000  0.4199380000000  0.4851360000000 1.0
C      1  0.5367920000000  0.4479520000000  0.4872570000000 1.0
C      1  0.4553730000000  0.5822080000000  0.5376080000000 1.0
C      1  0.5108010000000  0.5447260000000  0.4243090000000 1.0
C      1  0.4402060000000  0.5606100000000  0.4233500000000 1.0
C      1  0.5101330000000  0.4083730000000  0.5559530000000 1.0
C      1  0.5511560000000  0.5282230000000  0.5124620000000 1.0
C      1  0.5242400000000  0.4809690000000  0.5471990000000 1.0
C      1  0.5697930000000  0.4860430000000  0.5021910000000 1.0
C      1  0.5890810000000  0.5066440000000  0.4434240000000 1.0
C      1  0.5542460000000  0.5434890000000  0.4464260000000 1.0
C      1  0.5146140000000  0.6304600000000  0.4603770000000 1.0
C      1  0.4343770000000  0.5834970000000  0.5208500000000 1.0
C      1  0.5234360000000  0.5552050000000  0.4829050000000 1.0
C      1  0.5149240000000  0.4105010000000  0.5087630000000 1.0
C      1  0.5984580000000  0.5275210000000  0.5013810000000 1.0
C      1  0.4849820000000  0.4479620000000  0.5071020000000 1.0
C      1  0.5338430000000  0.5001330000000  0.4413170000000 1.0
C      1  0.4929810000000  0.4534360000000  0.4573110000000 1.0
C      1  0.5104770000000  0.4269490000000  0.5773480000000 1.0
C      1  0.4588420000000  0.4101040000000  0.5571810000000 1.0
C      1  0.4674840000000  0.4463950000000  0.4462830000000 1.0
C      1  0.5995500000000  0.4840780000000  0.4538170000000 1.0
C      1  0.5484580000000  0.4352390000000  0.5330940000000 1.0
C      1  0.5358960000000  0.4573360000000  0.6042640000000 1.0
END
