TITL C-627106-156-2022 13672.0883378732 125000 -1166.83895862823 0 0 193 (C1) n - 1
REM
REM in /home/nfs/bkarasulu/CARBON/AIRSS/Generating-Clusters/LCBOP/Only-C1/SD-CG/FIRE-CG
REM
REM
REM
REM
REM
REM ./C.cell (11c1c37f851c82e70ff6c80c92926a4b)
REM AIRSS Version 0.9.1 bugfix July 2018 build 013d7b7c2542+ Fri, 06 Jul 2018 19:26:36 +0100
REM compiler GCC version 9.2.1 20190827 (Red Hat 9.2.1-1)
REM options -cpp -mtune=generic -march=x86-64 -g -O0 -fpre-include=/usr/include/finclude/math-vector-fortran.h
REM seed -681904441 -665294609 -1937575052 1311230441 -2102386995 1225549575 233891944 -1545983238 -509345235 1883234191 532634949 -1803507153 -1274545833 1803290620 -1373494772 -1135478004 170857397 363336984 -1251013885 -442319677 -519830964 -1334463607 58931714 569598840 612397191 -1479001739 -106515606 1438711963 166272389 -2125609031 -1844598100 1420525550 845312785
REM
CELL 1.54180   50.00000   50.00000   50.00000   90.00000   90.00000   90.00000
LATT -1
SFAC C  
C      1  0.5460530000000  0.5881180000000  0.4349580000000 1.0
C      1  0.5839430000000  0.5559870000000  0.5258980000000 1.0
C      1  0.4241200000000  0.5648940000000  0.4791170000000 1.0
C      1  0.5890760000000  0.4694210000000  0.5790580000000 1.0
C      1  0.4634110000000  0.4911380000000  0.3854550000000 1.0
C      1  0.5259130000000  0.5164450000000  0.4741680000000 1.0
C      1  0.4585430000000  0.4212880000000  0.4913610000000 1.0
C      1  0.5277860000000  0.3895600000000  0.4679280000000 1.0
C      1  0.4686140000000  0.5891620000000  0.4909010000000 1.0
C      1  0.4169130000000  0.5565080000000  0.4332870000000 1.0
C      1  0.4149860000000  0.6120120000000  0.4819260000000 1.0
C      1  0.5261600000000  0.5374150000000  0.3940700000000 1.0
C      1  0.5848840000000  0.4601110000000  0.4662690000000 1.0
C      1  0.4991730000000  0.3884040000000  0.5465290000000 1.0
C      1  0.5514430000000  0.4890120000000  0.4026120000000 1.0
C      1  0.4327190000000  0.4321590000000  0.4158450000000 1.0
C      1  0.4254890000000  0.4755390000000  0.6003140000000 1.0
C      1  0.5089410000000  0.5392510000000  0.4375420000000 1.0
C      1  0.5568740000000  0.4931980000000  0.5337000000000 1.0
C      1  0.5690860000000  0.4157050000000  0.4543120000000 1.0
C      1  0.5112890000000  0.6172120000000  0.4494420000000 1.0
C      1  0.4181210000000  0.5014990000000  0.4130860000000 1.0
C      1  0.4962320000000  0.5725460000000  0.5247490000000 1.0
C      1  0.5671900000000  0.5131400000000  0.4115910000000 1.0
C      1  0.4205510000000  0.4944580000000  0.5419550000000 1.0
C      1  0.4210400000000  0.5036360000000  0.5952980000000 1.0
C      1  0.5032280000000  0.5432690000000  0.6248000000000 1.0
C      1  0.6223320000000  0.5269920000000  0.4666440000000 1.0
C      1  0.5701790000000  0.5744910000000  0.5900670000000 1.0
C      1  0.4720900000000  0.5649560000000  0.4403790000000 1.0
C      1  0.5063030000000  0.5183110000000  0.6108640000000 1.0
C      1  0.5456770000000  0.4840090000000  0.5882090000000 1.0
C      1  0.4565530000000  0.5838530000000  0.4289800000000 1.0
C      1  0.5743360000000  0.5804030000000  0.5419280000000 1.0
C      1  0.4411390000000  0.4505660000000  0.5400490000000 1.0
C      1  0.5072940000000  0.5174900000000  0.5372730000000 1.0
C      1  0.5250900000000  0.4876200000000  0.3893870000000 1.0
C      1  0.4975980000000  0.4499060000000  0.4636240000000 1.0
C      1  0.5161990000000  0.4717590000000  0.5521360000000 1.0
C      1  0.6053830000000  0.5333050000000  0.5630250000000 1.0
C      1  0.5351680000000  0.3335700000000  0.5801040000000 1.0
C      1  0.4302110000000  0.5305450000000  0.4200340000000 1.0
C      1  0.4998520000000  0.5933810000000  0.6068620000000 1.0
C      1  0.5118450000000  0.5130890000000  0.3839780000000 1.0
C      1  0.4116170000000  0.4514210000000  0.4177790000000 1.0
C      1  0.4949050000000  0.4699820000000  0.6328930000000 1.0
C      1  0.4793170000000  0.3798330000000  0.5001520000000 1.0
C      1  0.4393980000000  0.4043330000000  0.4789220000000 1.0
C      1  0.4637180000000  0.5284400000000  0.5777430000000 1.0
C      1  0.6253850000000  0.5302070000000  0.4952150000000 1.0
C      1  0.5709870000000  0.5096280000000  0.4898010000000 1.0
C      1  0.5535530000000  0.5394580000000  0.4063610000000 1.0
C      1  0.5057050000000  0.4422900000000  0.4156720000000 1.0
C      1  0.4446030000000  0.5205310000000  0.5974830000000 1.0
C      1  0.6473160000000  0.4875880000000  0.4890990000000 1.0
C      1  0.4822070000000  0.4465590000000  0.6264680000000 1.0
C      1  0.5573050000000  0.4391420000000  0.4148830000000 1.0
C      1  0.5031700000000  0.6079420000000  0.5838050000000 1.0
C      1  0.4009500000000  0.4967710000000  0.4782940000000 1.0
C      1  0.3788520000000  0.4570790000000  0.4643200000000 1.0
C      1  0.4310270000000  0.5637470000000  0.5641130000000 1.0
C      1  0.5525190000000  0.3933260000000  0.4557650000000 1.0
C      1  0.5606660000000  0.4625890000000  0.5736950000000 1.0
C      1  0.4420700000000  0.4848860000000  0.4037360000000 1.0
C      1  0.3783540000000  0.5008050000000  0.5269720000000 1.0
C      1  0.5754160000000  0.6064480000000  0.4774710000000 1.0
C      1  0.5581000000000  0.5184850000000  0.5511490000000 1.0
C      1  0.4505020000000  0.4743560000000  0.4298430000000 1.0
C      1  0.5315510000000  0.4277750000000  0.4108850000000 1.0
C      1  0.5066050000000  0.4620850000000  0.4387420000000 1.0
C      1  0.4928660000000  0.4894120000000  0.4337830000000 1.0
C      1  0.5228230000000  0.5589130000000  0.5260750000000 1.0
C      1  0.3980610000000  0.4392200000000  0.4749000000000 1.0
C      1  0.4789100000000  0.4836610000000  0.5931780000000 1.0
C      1  0.5084280000000  0.4633100000000  0.3920220000000 1.0
C      1  0.5841050000000  0.5608550000000  0.4369880000000 1.0
C      1  0.5162390000000  0.6011200000000  0.5587870000000 1.0
C      1  0.3806360000000  0.5834170000000  0.5048810000000 1.0
C      1  0.4285630000000  0.4911350000000  0.4829370000000 1.0
C      1  0.5575990000000  0.5756940000000  0.5655210000000 1.0
C      1  0.5008930000000  0.5702410000000  0.6212250000000 1.0
C      1  0.6114020000000  0.5499060000000  0.5113270000000 1.0
C      1  0.4285020000000  0.5844760000000  0.4337100000000 1.0
C      1  0.5515180000000  0.4974690000000  0.5064510000000 1.0
C      1  0.4466090000000  0.4827960000000  0.5028360000000 1.0
C      1  0.5243580000000  0.4363500000000  0.5005160000000 1.0
C      1  0.4172800000000  0.5382510000000  0.5625500000000 1.0
C      1  0.4219930000000  0.3869300000000  0.5209530000000 1.0
C      1  0.4514010000000  0.5679830000000  0.4842010000000 1.0
C      1  0.4736970000000  0.4833860000000  0.5657700000000 1.0
C      1  0.4853900000000  0.4161500000000  0.4306950000000 1.0
C      1  0.4713060000000  0.4331700000000  0.5114850000000 1.0
C      1  0.4674020000000  0.5372820000000  0.3811530000000 1.0
C      1  0.5301950000000  0.3891900000000  0.4971530000000 1.0
C      1  0.5100820000000  0.5523110000000  0.4128160000000 1.0
C      1  0.4696140000000  0.4454840000000  0.5366870000000 1.0
C      1  0.5319610000000  0.5007740000000  0.4510920000000 1.0
C      1  0.5672700000000  0.4378120000000  0.4726260000000 1.0
C      1  0.6040490000000  0.4627870000000  0.4871110000000 1.0
C      1  0.5730460000000  0.4185420000000  0.5348590000000 1.0
C      1  0.3982480000000  0.4341790000000  0.5234890000000 1.0
C      1  0.5272820000000  0.6144950000000  0.4738100000000 1.0
C      1  0.3898260000000  0.4822310000000  0.4550580000000 1.0
C      1  0.5079190000000  0.4553950000000  0.4888700000000 1.0
C      1  0.4645700000000  0.4369240000000  0.6057720000000 1.0
C      1  0.4676800000000  0.5403960000000  0.4546570000000 1.0
C      1  0.4428890000000  0.4003610000000  0.4511550000000 1.0
C      1  0.4650860000000  0.5426200000000  0.4829460000000 1.0
C      1  0.5246540000000  0.4998460000000  0.4967710000000 1.0
C      1  0.4445010000000  0.5415400000000  0.3948780000000 1.0
C      1  0.5847240000000  0.5494840000000  0.4609870000000 1.0
C      1  0.4742350000000  0.4166860000000  0.5875100000000 1.0
C      1  0.5213800000000  0.6023220000000  0.4281600000000 1.0
C      1  0.4239270000000  0.4453430000000  0.4651450000000 1.0
C      1  0.4202390000000  0.6043930000000  0.4539900000000 1.0
C      1  0.4943620000000  0.4925460000000  0.6154450000000 1.0
C      1  0.4666830000000  0.4952990000000  0.4385570000000 1.0
C      1  0.4544870000000  0.4157800000000  0.4293510000000 1.0
C      1  0.4326790000000  0.5324240000000  0.5160940000000 1.0
C      1  0.5138630000000  0.4112250000000  0.5073580000000 1.0
C      1  0.4590740000000  0.5714210000000  0.5592350000000 1.0
C      1  0.5078790000000  0.5518700000000  0.5740010000000 1.0
C      1  0.5156170000000  0.6094070000000  0.5007350000000 1.0
C      1  0.4790700000000  0.5200820000000  0.5309550000000 1.0
C      1  0.3891180000000  0.5588530000000  0.5110780000000 1.0
C      1  0.4746180000000  0.4861590000000  0.4998840000000 1.0
C      1  0.5291650000000  0.5347440000000  0.5376130000000 1.0
C      1  0.5598780000000  0.5645810000000  0.4226200000000 1.0
C      1  0.4083380000000  0.5534120000000  0.4602710000000 1.0
C      1  0.4267250000000  0.4024690000000  0.5430850000000 1.0
C      1  0.5134090000000  0.5010770000000  0.5607910000000 1.0
C      1  0.3983020000000  0.4222290000000  0.4974090000000 1.0
C      1  0.5522020000000  0.6013180000000  0.4624930000000 1.0
C      1  0.4976380000000  0.5843520000000  0.4951780000000 1.0
C      1  0.4825350000000  0.3804870000000  0.4729050000000 1.0
C      1  0.4404020000000  0.4526910000000  0.6021300000000 1.0
C      1  0.5951400000000  0.4600820000000  0.5149810000000 1.0
C      1  0.5502440000000  0.4649120000000  0.5445590000000 1.0
C      1  0.5830840000000  0.5345220000000  0.5467460000000 1.0
C      1  0.4165990000000  0.3993450000000  0.4956200000000 1.0
C      1  0.5646320000000  0.5542040000000  0.5029400000000 1.0
C      1  0.5383130000000  0.5631460000000  0.5025360000000 1.0
C      1  0.5283310000000  0.5744460000000  0.5656870000000 1.0
C      1  0.5880150000000  0.5032880000000  0.4320800000000 1.0
C      1  0.6372540000000  0.5070210000000  0.5073550000000 1.0
C      1  0.5346560000000  0.4731500000000  0.4436310000000 1.0
C      1  0.5177110000000  0.5649650000000  0.4819880000000 1.0
C      1  0.5828460000000  0.6116170000000  0.5027160000000 1.0
C      1  0.5025410000000  0.4814490000000  0.4981510000000 1.0
C      1  0.4047860000000  0.5357940000000  0.5066680000000 1.0
C      1  0.5186810000000  0.6126240000000  0.5308440000000 1.0
C      1  0.6312140000000  0.4674190000000  0.4809960000000 1.0
C      1  0.5293030000000  0.3518450000000  0.5624770000000 1.0
C      1  0.4822580000000  0.5129360000000  0.3807310000000 1.0
C      1  0.4923120000000  0.3962150000000  0.5198460000000 1.0
C      1  0.4878730000000  0.4628130000000  0.5504010000000 1.0
C      1  0.6093330000000  0.4616210000000  0.5616250000000 1.0
C      1  0.4699350000000  0.5842600000000  0.5359160000000 1.0
C      1  0.4345610000000  0.4752890000000  0.5279620000000 1.0
C      1  0.4775080000000  0.5536490000000  0.5729870000000 1.0
C      1  0.4422770000000  0.4574030000000  0.4502420000000 1.0
C      1  0.5613050000000  0.5081300000000  0.5809760000000 1.0
C      1  0.4021840000000  0.4801860000000  0.4275310000000 1.0
C      1  0.5570710000000  0.4673350000000  0.4242330000000 1.0
C      1  0.6120830000000  0.4712030000000  0.5354300000000 1.0
C      1  0.4290290000000  0.5218330000000  0.5415880000000 1.0
C      1  0.4673840000000  0.5095090000000  0.5560260000000 1.0
C      1  0.6102460000000  0.5158300000000  0.4449380000000 1.0
C      1  0.5735990000000  0.5367300000000  0.4827940000000 1.0
C      1  0.4010230000000  0.5158470000000  0.5765170000000 1.0
C      1  0.4610920000000  0.5305940000000  0.5086850000000 1.0
C      1  0.4869150000000  0.4006520000000  0.5694180000000 1.0
C      1  0.4565660000000  0.6011880000000  0.5149000000000 1.0
C      1  0.3891360000000  0.6051710000000  0.4916060000000 1.0
C      1  0.5797650000000  0.6046620000000  0.5284830000000 1.0
C      1  0.3933370000000  0.4981910000000  0.5523850000000 1.0
C      1  0.5525520000000  0.4401380000000  0.4975800000000 1.0
C      1  0.5236470000000  0.3724590000000  0.5446070000000 1.0
C      1  0.5813150000000  0.4758610000000  0.4416590000000 1.0
C      1  0.5881200000000  0.4975260000000  0.5872570000000 1.0
C      1  0.5655760000000  0.3930430000000  0.5306600000000 1.0
C      1  0.5761830000000  0.4228060000000  0.4278450000000 1.0
C      1  0.5109190000000  0.5108280000000  0.4336910000000 1.0
C      1  0.5137530000000  0.5227400000000  0.5828110000000 1.0
C      1  0.5163780000000  0.5427730000000  0.4652970000000 1.0
C      1  0.4548190000000  0.5207700000000  0.4398980000000 1.0
C      1  0.5677520000000  0.4464150000000  0.5237390000000 1.0
C      1  0.3900340000000  0.5110090000000  0.5016030000000 1.0
C      1  0.4209310000000  0.4304000000000  0.5410180000000 1.0
C      1  0.5005480000000  0.3948220000000  0.4549360000000 1.0
C      1  0.6267760000000  0.4948050000000  0.5304400000000 1.0
C      1  0.4342560000000  0.6155210000000  0.5036430000000 1.0
C      1  0.5420740000000  0.3792960000000  0.5224710000000 1.0
END
