TITL C-627111-6168-403 0.277409585706254 125000 -1080.64113897024 0 0 178 (C1) n - 1
REM
REM in /home/nfs/bkarasulu/CARBON/AIRSS/Generating-Clusters/LCBOP/Only-C1/SD-CG/FIRE-CG
REM
REM
REM
REM
REM
REM ./C.cell (11c1c37f851c82e70ff6c80c92926a4b)
REM AIRSS Version 0.9.1 bugfix July 2018 build 013d7b7c2542+ Fri, 06 Jul 2018 19:26:36 +0100
REM compiler GCC version 9.2.1 20190827 (Red Hat 9.2.1-1)
REM options -cpp -mtune=generic -march=x86-64 -g -O0 -fpre-include=/usr/include/finclude/math-vector-fortran.h
REM seed -62690889 -1087295251 546248153 1480287948 -1191746099 345463131 139407641 -230401093 372189903 -930662523 769739451 -1975700448 -763536767 654173702 -1116034528 1845756128 -766576740 1118928928 1138025110 560303501 1102175437 -1314141820 -755352610 1548295650 1803767045 -1876311358 -1956694691 -33868010 347282730 -1037967907 548982463 -1827322794 -1839196429
REM
CELL 1.54180   50.00000   50.00000   50.00000   90.00000   90.00000   90.00000
LATT -1
SFAC C  
C      1  0.6103000000000  0.4621720000000  0.4845260000000 1.0
C      1  0.4915430000000  0.5662820000000  0.6233680000000 1.0
C      1  0.4008730000000  0.5327960000000  0.5475670000000 1.0
C      1  0.5188750000000  0.5696070000000  0.4432740000000 1.0
C      1  0.4633940000000  0.4116470000000  0.5954260000000 1.0
C      1  0.4929770000000  0.5159570000000  0.5593030000000 1.0
C      1  0.4482700000000  0.4588620000000  0.5074380000000 1.0
C      1  0.4976950000000  0.5139270000000  0.3775990000000 1.0
C      1  0.4745750000000  0.4964200000000  0.3794610000000 1.0
C      1  0.6102550000000  0.4434810000000  0.5055490000000 1.0
C      1  0.5464490000000  0.5492060000000  0.5762210000000 1.0
C      1  0.4162270000000  0.3887000000000  0.4352680000000 1.0
C      1  0.4820640000000  0.3967800000000  0.5822330000000 1.0
C      1  0.5037310000000  0.5430850000000  0.4748940000000 1.0
C      1  0.5814770000000  0.4958590000000  0.3884660000000 1.0
C      1  0.4747750000000  0.4396300000000  0.4740790000000 1.0
C      1  0.4658300000000  0.5037450000000  0.5539460000000 1.0
C      1  0.3954460000000  0.5058120000000  0.4278520000000 1.0
C      1  0.4292700000000  0.5437220000000  0.4730740000000 1.0
C      1  0.5269440000000  0.5508820000000  0.3939410000000 1.0
C      1  0.5419860000000  0.5629630000000  0.4610710000000 1.0
C      1  0.4402650000000  0.4869210000000  0.5997090000000 1.0
C      1  0.5693600000000  0.5196900000000  0.4472900000000 1.0
C      1  0.3722430000000  0.5364290000000  0.4940110000000 1.0
C      1  0.4857910000000  0.5367000000000  0.4164090000000 1.0
C      1  0.4092830000000  0.5637840000000  0.4782940000000 1.0
C      1  0.4548670000000  0.4229250000000  0.3977360000000 1.0
C      1  0.5488470000000  0.5192990000000  0.5156210000000 1.0
C      1  0.4315730000000  0.5355680000000  0.5953380000000 1.0
C      1  0.4240680000000  0.5090400000000  0.5878040000000 1.0
C      1  0.4341360000000  0.4609380000000  0.4601220000000 1.0
C      1  0.4344920000000  0.5599470000000  0.5845430000000 1.0
C      1  0.4700730000000  0.5247360000000  0.5161260000000 1.0
C      1  0.4464610000000  0.3521530000000  0.4418250000000 1.0
C      1  0.6165180000000  0.5430780000000  0.4765340000000 1.0
C      1  0.4571130000000  0.4630930000000  0.4788580000000 1.0
C      1  0.4184660000000  0.5023480000000  0.4932480000000 1.0
C      1  0.5874010000000  0.4483950000000  0.6237110000000 1.0
C      1  0.5235600000000  0.4576900000000  0.4017060000000 1.0
C      1  0.5690630000000  0.4716600000000  0.3872340000000 1.0
C      1  0.5748290000000  0.5843480000000  0.5606080000000 1.0
C      1  0.4424290000000  0.5880590000000  0.5163030000000 1.0
C      1  0.5315860000000  0.4838990000000  0.5678120000000 1.0
C      1  0.4772340000000  0.5447790000000  0.4652740000000 1.0
C      1  0.5100480000000  0.5019400000000  0.4504170000000 1.0
C      1  0.4399860000000  0.4572940000000  0.6048180000000 1.0
C      1  0.5244130000000  0.5562680000000  0.5579580000000 1.0
C      1  0.5582600000000  0.5892720000000  0.5381540000000 1.0
C      1  0.4363020000000  0.4431940000000  0.4023600000000 1.0
C      1  0.4888160000000  0.4497210000000  0.6117350000000 1.0
C      1  0.4903270000000  0.6131360000000  0.5999630000000 1.0
C      1  0.4531850000000  0.5006620000000  0.3627200000000 1.0
C      1  0.4514550000000  0.6145470000000  0.5205750000000 1.0
C      1  0.4505990000000  0.4615760000000  0.5337730000000 1.0
C      1  0.5868700000000  0.5209280000000  0.3974190000000 1.0
C      1  0.5215410000000  0.4994700000000  0.3799380000000 1.0
C      1  0.4778680000000  0.5159520000000  0.6182530000000 1.0
C      1  0.5432350000000  0.4815060000000  0.5935770000000 1.0
C      1  0.5932500000000  0.5847900000000  0.4762390000000 1.0
C      1  0.5790900000000  0.4560070000000  0.4472710000000 1.0
C      1  0.4948300000000  0.4514910000000  0.3992330000000 1.0
C      1  0.5092940000000  0.4035330000000  0.4819970000000 1.0
C      1  0.5554080000000  0.5015840000000  0.4341130000000 1.0
C      1  0.5123450000000  0.3993150000000  0.4332700000000 1.0
C      1  0.5104500000000  0.3991140000000  0.5793700000000 1.0
C      1  0.5855660000000  0.4685640000000  0.4717540000000 1.0
C      1  0.6038370000000  0.4622660000000  0.6053760000000 1.0
C      1  0.4084240000000  0.4407310000000  0.4043540000000 1.0
C      1  0.5527160000000  0.5544470000000  0.4016150000000 1.0
C      1  0.4047820000000  0.5543830000000  0.5277310000000 1.0
C      1  0.3721510000000  0.4496730000000  0.4367130000000 1.0
C      1  0.4839850000000  0.5474060000000  0.5284750000000 1.0
C      1  0.4354400000000  0.4772240000000  0.4367220000000 1.0
C      1  0.5381880000000  0.4588920000000  0.6118340000000 1.0
C      1  0.4483280000000  0.4674960000000  0.4123450000000 1.0
C      1  0.4810260000000  0.4998290000000  0.4492790000000 1.0
C      1  0.3762800000000  0.4651210000000  0.5534650000000 1.0
C      1  0.5238150000000  0.4861780000000  0.4043670000000 1.0
C      1  0.5788800000000  0.4024500000000  0.5530940000000 1.0
C      1  0.4983720000000  0.5440800000000  0.5529510000000 1.0
C      1  0.5037470000000  0.4494350000000  0.5537580000000 1.0
C      1  0.5599260000000  0.5100570000000  0.4909180000000 1.0
C      1  0.5159280000000  0.4404380000000  0.6113340000000 1.0
C      1  0.3634430000000  0.4693330000000  0.4528920000000 1.0
C      1  0.5607110000000  0.4499580000000  0.6266950000000 1.0
C      1  0.5392610000000  0.5675730000000  0.5351250000000 1.0
C      1  0.6227620000000  0.4488200000000  0.5892100000000 1.0
C      1  0.5157600000000  0.4084520000000  0.5311210000000 1.0
C      1  0.4966470000000  0.4279340000000  0.5377930000000 1.0
C      1  0.5251760000000  0.4042600000000  0.4574900000000 1.0
C      1  0.4319810000000  0.5745920000000  0.5622720000000 1.0
C      1  0.3607310000000  0.4909620000000  0.4686580000000 1.0
C      1  0.4739180000000  0.4736590000000  0.3981950000000 1.0
C      1  0.4840300000000  0.4153250000000  0.4797710000000 1.0
C      1  0.4251450000000  0.5740730000000  0.5347430000000 1.0
C      1  0.5266340000000  0.6084330000000  0.4761780000000 1.0
C      1  0.5541790000000  0.3929190000000  0.5561630000000 1.0
C      1  0.5489820000000  0.5468930000000  0.5189140000000 1.0
C      1  0.5250400000000  0.5058980000000  0.5233220000000 1.0
C      1  0.6226980000000  0.3974050000000  0.5098650000000 1.0
C      1  0.3928790000000  0.5549640000000  0.5007480000000 1.0
C      1  0.4948070000000  0.5830290000000  0.4400930000000 1.0
C      1  0.5655840000000  0.4455970000000  0.4265020000000 1.0
C      1  0.5516550000000  0.4569250000000  0.5033170000000 1.0
C      1  0.3629690000000  0.5140210000000  0.4823210000000 1.0
C      1  0.5262720000000  0.3961120000000  0.5549480000000 1.0
C      1  0.4324620000000  0.5460130000000  0.4125290000000 1.0
C      1  0.5075220000000  0.5644550000000  0.4931820000000 1.0
C      1  0.4888570000000  0.4027460000000  0.4187620000000 1.0
C      1  0.4704050000000  0.4902380000000  0.4753210000000 1.0
C      1  0.4273890000000  0.5051010000000  0.5185520000000 1.0
C      1  0.4630500000000  0.3921500000000  0.4218400000000 1.0
C      1  0.5701850000000  0.5932950000000  0.4899370000000 1.0
C      1  0.4132790000000  0.4452240000000  0.4681640000000 1.0
C      1  0.5220320000000  0.6259080000000  0.4980990000000 1.0
C      1  0.5214180000000  0.4148580000000  0.6003740000000 1.0
C      1  0.5466930000000  0.5879670000000  0.4747270000000 1.0
C      1  0.3652320000000  0.4435280000000  0.5439130000000 1.0
C      1  0.5931850000000  0.5573170000000  0.4329950000000 1.0
C      1  0.4858850000000  0.4728850000000  0.5952570000000 1.0
C      1  0.6113300000000  0.4198800000000  0.5206930000000 1.0
C      1  0.4691760000000  0.5183460000000  0.4300980000000 1.0
C      1  0.4497560000000  0.5146260000000  0.5327580000000 1.0
C      1  0.4857040000000  0.6284840000000  0.5788130000000 1.0
C      1  0.5789270000000  0.5457800000000  0.4098650000000 1.0
C      1  0.4546490000000  0.5541610000000  0.4784600000000 1.0
C      1  0.5175230000000  0.5026850000000  0.5513670000000 1.0
C      1  0.5456020000000  0.4307620000000  0.4925550000000 1.0
C      1  0.6009560000000  0.4188350000000  0.5472560000000 1.0
C      1  0.4752670000000  0.6286050000000  0.5266600000000 1.0
C      1  0.4684940000000  0.5907060000000  0.4427530000000 1.0
C      1  0.5678150000000  0.4952800000000  0.5970510000000 1.0
C      1  0.4420870000000  0.3776950000000  0.4328870000000 1.0
C      1  0.4686030000000  0.4936140000000  0.6045650000000 1.0
C      1  0.5300610000000  0.4597650000000  0.5526780000000 1.0
C      1  0.4225060000000  0.5161790000000  0.4689020000000 1.0
C      1  0.6107900000000  0.5397250000000  0.5043720000000 1.0
C      1  0.4849260000000  0.4643190000000  0.5681240000000 1.0
C      1  0.4619830000000  0.4371800000000  0.6081740000000 1.0
C      1  0.3898130000000  0.4317840000000  0.4236790000000 1.0
C      1  0.6371710000000  0.5292380000000  0.4650120000000 1.0
C      1  0.5458800000000  0.6283600000000  0.5135790000000 1.0
C      1  0.4832420000000  0.4257000000000  0.4010880000000 1.0
C      1  0.4861000000000  0.5688640000000  0.5108140000000 1.0
C      1  0.4316680000000  0.5722290000000  0.4181550000000 1.0
C      1  0.5528180000000  0.4525570000000  0.4021800000000 1.0
C      1  0.5257430000000  0.4116250000000  0.5048630000000 1.0
C      1  0.4189850000000  0.5865600000000  0.4623330000000 1.0
C      1  0.5476240000000  0.4205060000000  0.4654200000000 1.0
C      1  0.3958140000000  0.4059010000000  0.4332750000000 1.0
C      1  0.4926210000000  0.5914690000000  0.6151050000000 1.0
C      1  0.4964850000000  0.6314910000000  0.5082450000000 1.0
C      1  0.5739510000000  0.5568380000000  0.5694180000000 1.0
C      1  0.5644830000000  0.4795940000000  0.4884930000000 1.0
C      1  0.4805300000000  0.5040130000000  0.4990660000000 1.0
C      1  0.5936620000000  0.4877910000000  0.5986770000000 1.0
C      1  0.4395720000000  0.5869500000000  0.4411980000000 1.0
C      1  0.6133540000000  0.4336100000000  0.5675740000000 1.0
C      1  0.5088670000000  0.5032200000000  0.5000010000000 1.0
C      1  0.4046300000000  0.5098060000000  0.5656870000000 1.0
C      1  0.5587510000000  0.5322390000000  0.4699200000000 1.0
C      1  0.5152190000000  0.5168120000000  0.4747960000000 1.0
C      1  0.4801380000000  0.6346560000000  0.5536030000000 1.0
C      1  0.5475610000000  0.4580590000000  0.5310920000000 1.0
C      1  0.4416530000000  0.5226480000000  0.4251210000000 1.0
C      1  0.4598840000000  0.5730750000000  0.4995050000000 1.0
C      1  0.5634600000000  0.6057130000000  0.5155920000000 1.0
C      1  0.4228920000000  0.5049280000000  0.4401160000000 1.0
C      1  0.6041810000000  0.5375230000000  0.5304460000000 1.0
C      1  0.4865260000000  0.5402520000000  0.6244010000000 1.0
C      1  0.3886260000000  0.4871650000000  0.5614320000000 1.0
C      1  0.5285240000000  0.4964090000000  0.4298440000000 1.0
C      1  0.4643990000000  0.4755360000000  0.5535460000000 1.0
C      1  0.5920160000000  0.5404850000000  0.5544800000000 1.0
C      1  0.6495050000000  0.4505980000000  0.5945550000000 1.0
C      1  0.6018960000000  0.5624070000000  0.4606800000000 1.0
C      1  0.6337950000000  0.4730650000000  0.4758090000000 1.0
C      1  0.5013750000000  0.5378950000000  0.3932730000000 1.0
END
