TITL C-627111-6168-782 176.689631495904 125000 -169.342980315383 0 0 30 (C1) n - 1
REM
REM in /home/nfs/bkarasulu/CARBON/AIRSS/Generating-Clusters/LCBOP/Only-C1/SD-CG/FIRE-CG
REM
REM
REM
REM
REM
REM ./C.cell (11c1c37f851c82e70ff6c80c92926a4b)
REM AIRSS Version 0.9.1 bugfix July 2018 build 013d7b7c2542+ Fri, 06 Jul 2018 19:26:36 +0100
REM compiler GCC version 9.2.1 20190827 (Red Hat 9.2.1-1)
REM options -cpp -mtune=generic -march=x86-64 -g -O0 -fpre-include=/usr/include/finclude/math-vector-fortran.h
REM seed 1329370887 876877560 -542582938 -611166120 -1842494320 607299342 -1732895585 -565766309 767954369 2008476662 -1871542458 -1091272311 1990917925 -757020656 1852530318 377225966 -735592131 879620141 -134577192 1275788618 -295541124 67414345 -261514431 -1090548864 -1839161074 -745325556 1983410471 -1131047793 888370590 -1302578983 -335324848 -1545097658 191105406
REM
CELL 1.54180   50.00000   50.00000   50.00000   90.00000   90.00000   90.00000
LATT -1
SFAC C  
C      1  0.6187130000000  0.5341640000000  0.5421160000000 1.0
C      1  0.5157990000000  0.5257190000000  0.4810570000000 1.0
C      1  0.5137990000000  0.5523950000000  0.5473920000000 1.0
C      1  0.5719400000000  0.4805960000000  0.5023250000000 1.0
C      1  0.4836280000000  0.4959430000000  0.4601350000000 1.0
C      1  0.4690160000000  0.4739760000000  0.4624750000000 1.0
C      1  0.5060330000000  0.5435240000000  0.5001980000000 1.0
C      1  0.5414860000000  0.5146290000000  0.4840240000000 1.0
C      1  0.4998140000000  0.5186830000000  0.4586490000000 1.0
C      1  0.4112890000000  0.3856120000000  0.4722210000000 1.0
C      1  0.4400800000000  0.4298420000000  0.4673580000000 1.0
C      1  0.5933260000000  0.5393340000000  0.5450110000000 1.0
C      1  0.3684420000000  0.3195440000000  0.4794450000000 1.0
C      1  0.4875920000000  0.5835140000000  0.5204100000000 1.0
C      1  0.4545250000000  0.4519250000000  0.4649190000000 1.0
C      1  0.4817200000000  0.5440020000000  0.5899870000000 1.0
C      1  0.5414890000000  0.5493250000000  0.5494090000000 1.0
C      1  0.5650800000000  0.5259170000000  0.4724350000000 1.0
C      1  0.5003600000000  0.5339910000000  0.4359820000000 1.0
C      1  0.5935770000000  0.4924980000000  0.4906050000000 1.0
C      1  0.4595920000000  0.6279440000000  0.5182210000000 1.0
C      1  0.4974410000000  0.5478610000000  0.5695640000000 1.0
C      1  0.5468680000000  0.4910230000000  0.4992690000000 1.0
C      1  0.3969230000000  0.3634770000000  0.4746450000000 1.0
C      1  0.4256720000000  0.4077360000000  0.4697920000000 1.0
C      1  0.5899750000000  0.5151420000000  0.4757230000000 1.0
C      1  0.4734910000000  0.6059130000000  0.5192420000000 1.0
C      1  0.3825630000000  0.3413290000000  0.4770660000000 1.0
C      1  0.5022720000000  0.5598670000000  0.5225100000000 1.0
C      1  0.5674980000000  0.5445760000000  0.5478170000000 1.0
END
