TITL C-627106-156-712 4.76603470443219e-06 125000 -918.287775923946 0 0 147 (C1) n - 1
REM
REM in /home/nfs/bkarasulu/CARBON/AIRSS/Generating-Clusters/LCBOP/Only-C1/SD-CG/FIRE-CG
REM
REM
REM
REM
REM
REM ./C.cell (11c1c37f851c82e70ff6c80c92926a4b)
REM AIRSS Version 0.9.1 bugfix July 2018 build 013d7b7c2542+ Fri, 06 Jul 2018 19:26:36 +0100
REM compiler GCC version 9.2.1 20190827 (Red Hat 9.2.1-1)
REM options -cpp -mtune=generic -march=x86-64 -g -O0 -fpre-include=/usr/include/finclude/math-vector-fortran.h
REM seed -1275427012 356122539 1487391672 -978135477 1201331770 -1122071909 1181850331 496299986 -1744829200 -149610076 1557315972 244958949 230934134 -1140612669 -667777899 -1945830318 646207329 93678561 -425258424 -1717536708 1119974191 -490623278 -1258330475 1488472408 1473638323 -1353502195 -1887383475 -1372789216 -135869256 -1127640170 -134238352 -1691710054 -659490979
REM
CELL 1.54180   50.00000   50.00000   50.00000   90.00000   90.00000   90.00000
LATT -1
SFAC C  
C      1  0.6196580000000  0.5235010000000  0.4996310000000 1.0
C      1  0.5895730000000  0.5693470000000  0.4795430000000 1.0
C      1  0.5899580000000  0.4895150000000  0.4458590000000 1.0
C      1  0.5033150000000  0.3863970000000  0.4619010000000 1.0
C      1  0.5652130000000  0.5135990000000  0.4003920000000 1.0
C      1  0.4619060000000  0.5665110000000  0.4087440000000 1.0
C      1  0.5152280000000  0.4598150000000  0.5518450000000 1.0
C      1  0.5621050000000  0.4193180000000  0.5450630000000 1.0
C      1  0.4256120000000  0.5500310000000  0.4625550000000 1.0
C      1  0.5559200000000  0.5170130000000  0.5375740000000 1.0
C      1  0.5049050000000  0.5493850000000  0.4186920000000 1.0
C      1  0.4974460000000  0.5418550000000  0.4449190000000 1.0
C      1  0.5309390000000  0.6179670000000  0.4917230000000 1.0
C      1  0.4351870000000  0.5582770000000  0.4123060000000 1.0
C      1  0.5384480000000  0.5266740000000  0.5163180000000 1.0
C      1  0.4215500000000  0.5538170000000  0.4350300000000 1.0
C      1  0.5868860000000  0.4746580000000  0.4211590000000 1.0
C      1  0.4950660000000  0.5041600000000  0.5449980000000 1.0
C      1  0.4225360000000  0.5208070000000  0.5014230000000 1.0
C      1  0.5826020000000  0.5611570000000  0.4538220000000 1.0
C      1  0.4700900000000  0.5013090000000  0.4329190000000 1.0
C      1  0.5822140000000  0.5083980000000  0.5294040000000 1.0
C      1  0.4764580000000  0.3931860000000  0.4524310000000 1.0
C      1  0.6052160000000  0.5230460000000  0.5224260000000 1.0
C      1  0.5366260000000  0.4297710000000  0.4510120000000 1.0
C      1  0.4346960000000  0.4203380000000  0.5974800000000 1.0
C      1  0.5464510000000  0.5956910000000  0.4479710000000 1.0
C      1  0.4617180000000  0.5105070000000  0.3404370000000 1.0
C      1  0.4216400000000  0.4297110000000  0.5309120000000 1.0
C      1  0.4706210000000  0.5158290000000  0.3643420000000 1.0
C      1  0.5455660000000  0.5882250000000  0.5307470000000 1.0
C      1  0.5161470000000  0.5697060000000  0.5675860000000 1.0
C      1  0.5800610000000  0.4836420000000  0.5139810000000 1.0
C      1  0.5176910000000  0.4886710000000  0.5514460000000 1.0
C      1  0.5542690000000  0.5565870000000  0.4170050000000 1.0
C      1  0.5710660000000  0.4508680000000  0.4226150000000 1.0
C      1  0.5173710000000  0.4940920000000  0.4107500000000 1.0
C      1  0.6678560000000  0.6004510000000  0.5274530000000 1.0
C      1  0.4865300000000  0.5298190000000  0.4933090000000 1.0
C      1  0.5259740000000  0.5593450000000  0.5924670000000 1.0
C      1  0.4447710000000  0.4826450000000  0.5776670000000 1.0
C      1  0.5436510000000  0.4497340000000  0.4311240000000 1.0
C      1  0.4789490000000  0.5226210000000  0.4495420000000 1.0
C      1  0.5918170000000  0.5377810000000  0.4385110000000 1.0
C      1  0.4797240000000  0.5213500000000  0.3899810000000 1.0
C      1  0.5814640000000  0.4909060000000  0.3986380000000 1.0
C      1  0.4996520000000  0.4055540000000  0.5679910000000 1.0
C      1  0.4989600000000  0.4377950000000  0.6065410000000 1.0
C      1  0.5410000000000  0.4891940000000  0.4523700000000 1.0
C      1  0.6187720000000  0.5882090000000  0.5131850000000 1.0
C      1  0.5837440000000  0.4514050000000  0.5735440000000 1.0
C      1  0.4250530000000  0.5747490000000  0.5069120000000 1.0
C      1  0.6434690000000  0.5945350000000  0.5203880000000 1.0
C      1  0.4447120000000  0.4889190000000  0.4398000000000 1.0
C      1  0.5397120000000  0.5768040000000  0.6087600000000 1.0
C      1  0.4701400000000  0.4052240000000  0.5255570000000 1.0
C      1  0.4853820000000  0.5020170000000  0.4967160000000 1.0
C      1  0.4422750000000  0.5251530000000  0.5212190000000 1.0
C      1  0.5429100000000  0.5012240000000  0.5573310000000 1.0
C      1  0.4341480000000  0.5711000000000  0.4797740000000 1.0
C      1  0.4425790000000  0.4125720000000  0.5297100000000 1.0
C      1  0.4452190000000  0.5763550000000  0.5518410000000 1.0
C      1  0.4730300000000  0.4475140000000  0.4896520000000 1.0
C      1  0.4876930000000  0.5003640000000  0.4090680000000 1.0
C      1  0.5759740000000  0.5365100000000  0.4141910000000 1.0
C      1  0.3996840000000  0.4539440000000  0.5785090000000 1.0
C      1  0.5656280000000  0.4912440000000  0.4910060000000 1.0
C      1  0.4966580000000  0.4552330000000  0.4719160000000 1.0
C      1  0.4482580000000  0.4731030000000  0.5528740000000 1.0
C      1  0.4016040000000  0.5665710000000  0.5207310000000 1.0
C      1  0.5226160000000  0.5324970000000  0.6018500000000 1.0
C      1  0.5279490000000  0.5683370000000  0.5413460000000 1.0
C      1  0.4623030000000  0.5796520000000  0.4784740000000 1.0
C      1  0.5197710000000  0.5491440000000  0.5214120000000 1.0
C      1  0.3595950000000  0.4425790000000  0.5092890000000 1.0
C      1  0.5342930000000  0.6101230000000  0.5170560000000 1.0
C      1  0.4738120000000  0.5740330000000  0.5056820000000 1.0
C      1  0.4624940000000  0.4735770000000  0.5289250000000 1.0
C      1  0.5933190000000  0.5795850000000  0.5054750000000 1.0
C      1  0.3948470000000  0.5215840000000  0.5399190000000 1.0
C      1  0.3973080000000  0.4677450000000  0.5538900000000 1.0
C      1  0.4361620000000  0.4440610000000  0.4572030000000 1.0
C      1  0.4537750000000  0.5023850000000  0.5936120000000 1.0
C      1  0.5064310000000  0.4055370000000  0.4849810000000 1.0
C      1  0.4875740000000  0.4163090000000  0.5919060000000 1.0
C      1  0.4600130000000  0.4119490000000  0.5963940000000 1.0
C      1  0.4530550000000  0.4315830000000  0.4759100000000 1.0
C      1  0.5982020000000  0.4613240000000  0.5526110000000 1.0
C      1  0.5022640000000  0.4899140000000  0.6157610000000 1.0
C      1  0.4700250000000  0.5868160000000  0.4272910000000 1.0
C      1  0.5678720000000  0.4860780000000  0.4630490000000 1.0
C      1  0.5742510000000  0.4331410000000  0.5228740000000 1.0
C      1  0.5178750000000  0.4317940000000  0.4746200000000 1.0
C      1  0.5603500000000  0.5732710000000  0.4393610000000 1.0
C      1  0.5598220000000  0.4373900000000  0.5677110000000 1.0
C      1  0.4019900000000  0.5496930000000  0.5448960000000 1.0
C      1  0.4262650000000  0.5236640000000  0.4733190000000 1.0
C      1  0.5010380000000  0.4851200000000  0.4798010000000 1.0
C      1  0.5869820000000  0.4590360000000  0.5261630000000 1.0
C      1  0.5241810000000  0.3918890000000  0.5640330000000 1.0
C      1  0.4823700000000  0.5480560000000  0.4008730000000 1.0
C      1  0.3959150000000  0.5178980000000  0.5112730000000 1.0
C      1  0.6195840000000  0.5181330000000  0.4733170000000 1.0
C      1  0.4902890000000  0.4511610000000  0.4423640000000 1.0
C      1  0.5541420000000  0.5014530000000  0.5830470000000 1.0
C      1  0.4614630000000  0.4040000000000  0.4754980000000 1.0
C      1  0.5358020000000  0.6118280000000  0.4662460000000 1.0
C      1  0.4892460000000  0.4161760000000  0.5439420000000 1.0
C      1  0.3934450000000  0.4657120000000  0.4844180000000 1.0
C      1  0.5302930000000  0.5431400000000  0.4093440000000 1.0
C      1  0.5358140000000  0.5151930000000  0.4015150000000 1.0
C      1  0.5464250000000  0.3961730000000  0.5489760000000 1.0
C      1  0.4754660000000  0.4071720000000  0.4278490000000 1.0
C      1  0.5340590000000  0.4480480000000  0.5694780000000 1.0
C      1  0.4251990000000  0.4997620000000  0.4580890000000 1.0
C      1  0.4537920000000  0.4481490000000  0.4134720000000 1.0
C      1  0.4047460000000  0.4818890000000  0.4665170000000 1.0
C      1  0.5306000000000  0.4759210000000  0.4294410000000 1.0
C      1  0.4789890000000  0.5225680000000  0.5595090000000 1.0
C      1  0.4801280000000  0.4012680000000  0.4989910000000 1.0
C      1  0.4495880000000  0.5774020000000  0.5234420000000 1.0
C      1  0.4021440000000  0.4508500000000  0.5305640000000 1.0
C      1  0.5269110000000  0.3819630000000  0.4474240000000 1.0
C      1  0.4764550000000  0.4518510000000  0.5176960000000 1.0
C      1  0.5436740000000  0.4029520000000  0.4439820000000 1.0
C      1  0.4763660000000  0.5184450000000  0.5875110000000 1.0
C      1  0.5019290000000  0.4630900000000  0.6149840000000 1.0
C      1  0.3938070000000  0.4963970000000  0.5534140000000 1.0
C      1  0.4769880000000  0.4350070000000  0.4228880000000 1.0
C      1  0.4993170000000  0.5158740000000  0.6040410000000 1.0
C      1  0.5467350000000  0.5176150000000  0.6031660000000 1.0
C      1  0.4799610000000  0.4948350000000  0.5229100000000 1.0
C      1  0.4399680000000  0.4611100000000  0.4344140000000 1.0
C      1  0.3731130000000  0.5167060000000  0.4963480000000 1.0
C      1  0.4657610000000  0.5856920000000  0.5680650000000 1.0
C      1  0.4966910000000  0.4428490000000  0.5365550000000 1.0
C      1  0.3848780000000  0.4530640000000  0.5079300000000 1.0
C      1  0.6037110000000  0.5145870000000  0.4501970000000 1.0
C      1  0.4717970000000  0.5896520000000  0.4540660000000 1.0
C      1  0.4223710000000  0.5615190000000  0.5613840000000 1.0
C      1  0.4921640000000  0.5841270000000  0.5700700000000 1.0
C      1  0.5720210000000  0.5817170000000  0.5237070000000 1.0
C      1  0.4566070000000  0.5301340000000  0.5435500000000 1.0
C      1  0.4943090000000  0.5531570000000  0.5072920000000 1.0
C      1  0.5247650000000  0.4982570000000  0.4732390000000 1.0
C      1  0.5412690000000  0.5084540000000  0.4944240000000 1.0
C      1  0.4135500000000  0.4358590000000  0.5925230000000 1.0
END
