TITL C-627106-156-571 -1.09961390254182e-06 125000 -843.024036483292 0 0 139 (C1) n - 1
REM
REM in /home/nfs/bkarasulu/CARBON/AIRSS/Generating-Clusters/LCBOP/Only-C1/SD-CG/FIRE-CG
REM
REM
REM
REM
REM
REM ./C.cell (11c1c37f851c82e70ff6c80c92926a4b)
REM AIRSS Version 0.9.1 bugfix July 2018 build 013d7b7c2542+ Fri, 06 Jul 2018 19:26:36 +0100
REM compiler GCC version 9.2.1 20190827 (Red Hat 9.2.1-1)
REM options -cpp -mtune=generic -march=x86-64 -g -O0 -fpre-include=/usr/include/finclude/math-vector-fortran.h
REM seed -535103522 -1406767528 -1584090423 -1846199560 903504118 1071635530 793136479 2011352909 -42028142 -717220690 -913472957 77527964 1797354097 689721381 -2035515968 -959123788 718423393 -326142469 1578140379 -2029740793 -1721365005 529826977 575298977 -1411845365 1156223278 841948126 -499749394 1221729932 -683228747 -1465664598 72087655 -507043017 -1728717681
REM
CELL 1.54180   50.00000   50.00000   50.00000   90.00000   90.00000   90.00000
LATT -1
SFAC C  
C      1  0.3814560000000  0.5253500000000  0.4302080000000 1.0
C      1  0.4290350000000  0.4878350000000  0.4974940000000 1.0
C      1  0.4841680000000  0.5234400000000  0.4097820000000 1.0
C      1  0.5504970000000  0.5509280000000  0.4184040000000 1.0
C      1  0.5866270000000  0.5709810000000  0.5486300000000 1.0
C      1  0.5245720000000  0.4547520000000  0.5308930000000 1.0
C      1  0.5333680000000  0.4421710000000  0.4261520000000 1.0
C      1  0.5060520000000  0.4515640000000  0.4255700000000 1.0
C      1  0.3927970000000  0.5246560000000  0.5227000000000 1.0
C      1  0.4120330000000  0.4961820000000  0.4557650000000 1.0
C      1  0.4985530000000  0.4213820000000  0.4633170000000 1.0
C      1  0.5193700000000  0.3911050000000  0.5271760000000 1.0
C      1  0.5714700000000  0.4306240000000  0.4561830000000 1.0
C      1  0.4405790000000  0.4899560000000  0.4515430000000 1.0
C      1  0.4147620000000  0.5991130000000  0.5236860000000 1.0
C      1  0.5645970000000  0.5719910000000  0.4323820000000 1.0
C      1  0.5559920000000  0.4018240000000  0.4977250000000 1.0
C      1  0.4319840000000  0.5212760000000  0.5860810000000 1.0
C      1  0.4658800000000  0.4912370000000  0.5600880000000 1.0
C      1  0.5356010000000  0.6032720000000  0.4882610000000 1.0
C      1  0.4360910000000  0.4766490000000  0.5232170000000 1.0
C      1  0.4499810000000  0.4520930000000  0.5133030000000 1.0
C      1  0.5688240000000  0.4767870000000  0.4291210000000 1.0
C      1  0.4768300000000  0.3728440000000  0.5394160000000 1.0
C      1  0.5657720000000  0.4581270000000  0.5074200000000 1.0
C      1  0.5166230000000  0.5784190000000  0.5796790000000 1.0
C      1  0.4395350000000  0.3432220000000  0.5641660000000 1.0
C      1  0.4669170000000  0.4625500000000  0.4908940000000 1.0
C      1  0.5024070000000  0.4706720000000  0.5393770000000 1.0
C      1  0.4773350000000  0.5145150000000  0.5734120000000 1.0
C      1  0.4867860000000  0.4362630000000  0.4419070000000 1.0
C      1  0.5222510000000  0.5673810000000  0.5550450000000 1.0
C      1  0.5229160000000  0.4727920000000  0.5869280000000 1.0
C      1  0.4968460000000  0.4861630000000  0.5162950000000 1.0
C      1  0.4353080000000  0.5360680000000  0.5038500000000 1.0
C      1  0.4580090000000  0.4351730000000  0.4424390000000 1.0
C      1  0.5435980000000  0.4546460000000  0.4886460000000 1.0
C      1  0.5928390000000  0.4403520000000  0.4723280000000 1.0
C      1  0.5344710000000  0.4050340000000  0.5884590000000 1.0
C      1  0.3762390000000  0.4547900000000  0.5029790000000 1.0
C      1  0.5207240000000  0.5135910000000  0.3843380000000 1.0
C      1  0.5886150000000  0.5223750000000  0.5635000000000 1.0
C      1  0.4021240000000  0.5418210000000  0.4722430000000 1.0
C      1  0.5922400000000  0.4549520000000  0.4969140000000 1.0
C      1  0.5155840000000  0.5321210000000  0.5210450000000 1.0
C      1  0.6142550000000  0.4773050000000  0.4493940000000 1.0
C      1  0.4629050000000  0.5817780000000  0.4792570000000 1.0
C      1  0.4492460000000  0.5344310000000  0.4799540000000 1.0
C      1  0.4578150000000  0.3574670000000  0.5522480000000 1.0
C      1  0.4723530000000  0.5284540000000  0.4694850000000 1.0
C      1  0.4220050000000  0.5121590000000  0.5606960000000 1.0
C      1  0.4061400000000  0.5320700000000  0.5471630000000 1.0
C      1  0.3541800000000  0.5198130000000  0.4328370000000 1.0
C      1  0.4134910000000  0.5597420000000  0.5516900000000 1.0
C      1  0.4156380000000  0.5663950000000  0.4656450000000 1.0
C      1  0.3290130000000  0.5141380000000  0.4365180000000 1.0
C      1  0.6182220000000  0.4929720000000  0.5200480000000 1.0
C      1  0.4215760000000  0.6011770000000  0.4978380000000 1.0
C      1  0.5687450000000  0.5907910000000  0.4518070000000 1.0
C      1  0.4269700000000  0.5838620000000  0.5441580000000 1.0
C      1  0.4984940000000  0.4016120000000  0.5093950000000 1.0
C      1  0.5769990000000  0.4972100000000  0.5597540000000 1.0
C      1  0.4064560000000  0.4812430000000  0.4802420000000 1.0
C      1  0.3979880000000  0.4541820000000  0.4846590000000 1.0
C      1  0.5053080000000  0.3730050000000  0.5444650000000 1.0
C      1  0.4514110000000  0.4828590000000  0.4775960000000 1.0
C      1  0.4345750000000  0.4322680000000  0.4562130000000 1.0
C      1  0.5515290000000  0.4667990000000  0.5309990000000 1.0
C      1  0.5566040000000  0.5298910000000  0.6198890000000 1.0
C      1  0.4195570000000  0.4343380000000  0.4809790000000 1.0
C      1  0.4813460000000  0.5684380000000  0.4982420000000 1.0
C      1  0.4395070000000  0.4918230000000  0.5477790000000 1.0
C      1  0.5529090000000  0.4952820000000  0.4134430000000 1.0
C      1  0.5717350000000  0.5449790000000  0.6348190000000 1.0
C      1  0.5096530000000  0.5775840000000  0.4234940000000 1.0
C      1  0.5582970000000  0.4144540000000  0.5476470000000 1.0
C      1  0.5601290000000  0.4483390000000  0.4350020000000 1.0
C      1  0.4939130000000  0.4657790000000  0.4962710000000 1.0
C      1  0.5858940000000  0.4154970000000  0.5477280000000 1.0
C      1  0.4481120000000  0.4041510000000  0.5110170000000 1.0
C      1  0.6240500000000  0.4846490000000  0.4751650000000 1.0
C      1  0.5415440000000  0.4517060000000  0.5805210000000 1.0
C      1  0.5005530000000  0.5113070000000  0.5065660000000 1.0
C      1  0.5375980000000  0.5837560000000  0.5360360000000 1.0
C      1  0.6180310000000  0.5175720000000  0.5072320000000 1.0
C      1  0.5272950000000  0.4908360000000  0.4008540000000 1.0
C      1  0.3748380000000  0.5027930000000  0.5218700000000 1.0
C      1  0.5888700000000  0.5141310000000  0.4632080000000 1.0
C      1  0.5611580000000  0.6047220000000  0.4744280000000 1.0
C      1  0.4543000000000  0.5913380000000  0.5481440000000 1.0
C      1  0.5466540000000  0.5449240000000  0.4695730000000 1.0
C      1  0.5890670000000  0.4904270000000  0.4442820000000 1.0
C      1  0.5419320000000  0.5153650000000  0.6032890000000 1.0
C      1  0.4805020000000  0.4957500000000  0.4164570000000 1.0
C      1  0.5243520000000  0.5023810000000  0.5855980000000 1.0
C      1  0.5944610000000  0.5478310000000  0.5590220000000 1.0
C      1  0.5137290000000  0.5111430000000  0.4593700000000 1.0
C      1  0.4990130000000  0.6095840000000  0.5245880000000 1.0
C      1  0.4959720000000  0.4634660000000  0.5849290000000 1.0
C      1  0.5422820000000  0.4721740000000  0.4677340000000 1.0
C      1  0.5323130000000  0.4932180000000  0.4560560000000 1.0
C      1  0.5057220000000  0.4209900000000  0.4905550000000 1.0
C      1  0.5253660000000  0.6015110000000  0.5163580000000 1.0
C      1  0.5034540000000  0.4779030000000  0.4133410000000 1.0
C      1  0.4839580000000  0.4697200000000  0.5602730000000 1.0
C      1  0.4760160000000  0.5923230000000  0.4563280000000 1.0
C      1  0.3985250000000  0.5211230000000  0.4524210000000 1.0
C      1  0.4338770000000  0.5839760000000  0.4792280000000 1.0
C      1  0.6149090000000  0.4717670000000  0.5006380000000 1.0
C      1  0.5455570000000  0.4015640000000  0.5247610000000 1.0
C      1  0.6143010000000  0.5135950000000  0.4787780000000 1.0
C      1  0.5174250000000  0.4463310000000  0.5010530000000 1.0
C      1  0.5475810000000  0.5150940000000  0.5237270000000 1.0
C      1  0.5027170000000  0.5889980000000  0.4482700000000 1.0
C      1  0.5877910000000  0.4759840000000  0.5733410000000 1.0
C      1  0.4563470000000  0.4891360000000  0.4287810000000 1.0
C      1  0.4723840000000  0.3921320000000  0.5180410000000 1.0
C      1  0.5654610000000  0.5837200000000  0.5388830000000 1.0
C      1  0.3916250000000  0.5346420000000  0.4065760000000 1.0
C      1  0.4953090000000  0.5167510000000  0.4788840000000 1.0
C      1  0.5078700000000  0.5555950000000  0.5022950000000 1.0
C      1  0.4359220000000  0.4286510000000  0.5046520000000 1.0
C      1  0.5075630000000  0.5348840000000  0.3983030000000 1.0
C      1  0.4583150000000  0.5269480000000  0.5901460000000 1.0
C      1  0.4765270000000  0.6034670000000  0.5384800000000 1.0
C      1  0.4068090000000  0.5342990000000  0.4998810000000 1.0
C      1  0.5447600000000  0.4243560000000  0.5715620000000 1.0
C      1  0.5056490000000  0.5197670000000  0.5700390000000 1.0
C      1  0.5206920000000  0.5862980000000  0.4698290000000 1.0
C      1  0.3686680000000  0.4770030000000  0.5168280000000 1.0
C      1  0.5596010000000  0.5238090000000  0.4153100000000 1.0
C      1  0.5225640000000  0.5556600000000  0.4112160000000 1.0
C      1  0.5562400000000  0.4935120000000  0.5403010000000 1.0
C      1  0.5674920000000  0.5276390000000  0.4767900000000 1.0
C      1  0.5655120000000  0.5222340000000  0.5041900000000 1.0
C      1  0.5251560000000  0.5598900000000  0.4796890000000 1.0
C      1  0.4502180000000  0.5388100000000  0.5264210000000 1.0
C      1  0.5589190000000  0.4093920000000  0.4715600000000 1.0
C      1  0.5134630000000  0.5401260000000  0.5500140000000 1.0
END
