TITL C-627108-131-2054 -5.82805699974011e-07 125000 -358.132620329595 0 0 58 (C1) n - 1
REM
REM in /home/nfs/bkarasulu/CARBON/AIRSS/Generating-Clusters/LCBOP/Only-C1/SD-CG/FIRE-CG
REM
REM
REM
REM
REM
REM ./C.cell (11c1c37f851c82e70ff6c80c92926a4b)
REM AIRSS Version 0.9.1 bugfix July 2018 build 013d7b7c2542+ Fri, 06 Jul 2018 19:26:36 +0100
REM compiler GCC version 9.2.1 20190827 (Red Hat 9.2.1-1)
REM options -cpp -mtune=generic -march=x86-64 -g -O0 -fpre-include=/usr/include/finclude/math-vector-fortran.h
REM seed 1355792162 -1630273286 56168569 134873585 -1273755946 -1622283271 -7118030 1027314094 -1891680979 -1883356812 -504802758 -1911029225 -1258364900 -1980760796 1598515732 1796749085 -1103623781 -308331410 -26306393 669075027 -1592889239 -1003726529 -728157280 -1956272806 -1413343090 517577772 -1157121063 251922418 31973882 -1495419181 1364138573 979851566 472635124
REM
CELL 1.54180   50.00000   50.00000   50.00000   90.00000   90.00000   90.00000
LATT -1
SFAC C  
C      1  0.4931480000000  0.5284220000000  0.5302340000000 1.0
C      1  0.4550030000000  0.4502650000000  0.5055460000000 1.0
C      1  0.5402700000000  0.5054700000000  0.4442200000000 1.0
C      1  0.4963380000000  0.5275310000000  0.4794810000000 1.0
C      1  0.5089370000000  0.5242780000000  0.5958440000000 1.0
C      1  0.4556070000000  0.4774600000000  0.4565920000000 1.0
C      1  0.5677190000000  0.5286400000000  0.4739130000000 1.0
C      1  0.4794400000000  0.4380550000000  0.4973360000000 1.0
C      1  0.4713550000000  0.4947320000000  0.5009180000000 1.0
C      1  0.4337390000000  0.5168890000000  0.4250410000000 1.0
C      1  0.4237130000000  0.5047860000000  0.5373390000000 1.0
C      1  0.4322880000000  0.5395320000000  0.4707390000000 1.0
C      1  0.5339040000000  0.4637870000000  0.5689860000000 1.0
C      1  0.4169910000000  0.5240330000000  0.5196930000000 1.0
C      1  0.4797350000000  0.4826970000000  0.4741370000000 1.0
C      1  0.4997700000000  0.4595220000000  0.4825150000000 1.0
C      1  0.5458260000000  0.4590470000000  0.4614570000000 1.0
C      1  0.5387960000000  0.4875230000000  0.5183760000000 1.0
C      1  0.6015090000000  0.5199170000000  0.5258120000000 1.0
C      1  0.4945040000000  0.4286290000000  0.5196270000000 1.0
C      1  0.4291860000000  0.5172270000000  0.4531550000000 1.0
C      1  0.4513840000000  0.5596110000000  0.4646550000000 1.0
C      1  0.5190670000000  0.4679140000000  0.5109680000000 1.0
C      1  0.5340300000000  0.4926850000000  0.5678970000000 1.0
C      1  0.5085550000000  0.4499940000000  0.5315450000000 1.0
C      1  0.5650040000000  0.4913000000000  0.5073500000000 1.0
C      1  0.4673580000000  0.4956600000000  0.5577360000000 1.0
C      1  0.5527980000000  0.4464140000000  0.5773740000000 1.0
C      1  0.4854530000000  0.5198690000000  0.5046120000000 1.0
C      1  0.5259050000000  0.5497020000000  0.5587340000000 1.0
C      1  0.4310180000000  0.4905070000000  0.4640400000000 1.0
C      1  0.5851040000000  0.5456200000000  0.4877610000000 1.0
C      1  0.5470070000000  0.5326690000000  0.4539170000000 1.0
C      1  0.4958910000000  0.5052450000000  0.4617230000000 1.0
C      1  0.4892750000000  0.4810140000000  0.5695500000000 1.0
C      1  0.5562000000000  0.4853100000000  0.4590580000000 1.0
C      1  0.4459150000000  0.4872720000000  0.5405690000000 1.0
C      1  0.5204350000000  0.5300020000000  0.5389220000000 1.0
C      1  0.4845380000000  0.4635980000000  0.4204980000000 1.0
C      1  0.4101320000000  0.4778930000000  0.4762000000000 1.0
C      1  0.4601740000000  0.4755610000000  0.4279470000000 1.0
C      1  0.5133630000000  0.4971290000000  0.4408150000000 1.0
C      1  0.5013710000000  0.5523210000000  0.4670320000000 1.0
C      1  0.4747520000000  0.5226580000000  0.5511260000000 1.0
C      1  0.4467920000000  0.4959660000000  0.4132430000000 1.0
C      1  0.4551340000000  0.4766470000000  0.5160400000000 1.0
C      1  0.5273620000000  0.5531660000000  0.4555790000000 1.0
C      1  0.5868790000000  0.4972160000000  0.5244190000000 1.0
C      1  0.6001730000000  0.5416540000000  0.5098070000000 1.0
C      1  0.5082810000000  0.4689600000000  0.4344430000000 1.0
C      1  0.5677470000000  0.5000750000000  0.4805900000000 1.0
C      1  0.4211160000000  0.5371520000000  0.4966560000000 1.0
C      1  0.5093000000000  0.4991450000000  0.5832080000000 1.0
C      1  0.5069120000000  0.4587610000000  0.5583980000000 1.0
C      1  0.5186270000000  0.5471470000000  0.5848170000000 1.0
C      1  0.5177680000000  0.4546180000000  0.4582170000000 1.0
C      1  0.5339740000000  0.5046010000000  0.5414070000000 1.0
C      1  0.4774300000000  0.5665070000000  0.4621860000000 1.0
END
