TITL C-627110-360-628 0.00020276380088235 125000 -659.943164167007 0 0 106 (C1) n - 1
REM
REM in /home/nfs/bkarasulu/CARBON/AIRSS/Generating-Clusters/LCBOP/Only-C1/SD-CG/FIRE-CG
REM
REM
REM
REM
REM
REM ./C.cell (11c1c37f851c82e70ff6c80c92926a4b)
REM AIRSS Version 0.9.1 bugfix July 2018 build 013d7b7c2542+ Fri, 06 Jul 2018 19:26:36 +0100
REM compiler GCC version 9.2.1 20190827 (Red Hat 9.2.1-1)
REM options -cpp -mtune=generic -march=x86-64 -g -O0 -fpre-include=/usr/include/finclude/math-vector-fortran.h
REM seed -50975302 1080769793 -1472403710 727104692 1583963858 504435816 -870201656 -2095836033 556646754 1790665756 -2067237857 -1789956777 -71738216 552004056 -428247847 -1589043910 -92900864 -1194086049 1589613037 -98201294 1082324117 -1499576922 1852454441 -1528723979 2025075113 -1798852667 -1499460545 -48516269 1301157379 738210780 -1311200457 76008365 582788543
REM
CELL 1.54180   50.00000   50.00000   50.00000   90.00000   90.00000   90.00000
LATT -1
SFAC C  
C      1  0.4563040000000  0.4622110000000  0.5774490000000 1.0
C      1  0.5868820000000  0.5180570000000  0.4994690000000 1.0
C      1  0.4347850000000  0.4578150000000  0.5618180000000 1.0
C      1  0.4974110000000  0.5817970000000  0.4516720000000 1.0
C      1  0.5014650000000  0.5703390000000  0.4995190000000 1.0
C      1  0.4670180000000  0.4964550000000  0.5279460000000 1.0
C      1  0.5840000000000  0.4998610000000  0.4553490000000 1.0
C      1  0.5154540000000  0.4166890000000  0.4774400000000 1.0
C      1  0.4793840000000  0.4777780000000  0.5810100000000 1.0
C      1  0.5473090000000  0.4504080000000  0.5628070000000 1.0
C      1  0.3882350000000  0.5284100000000  0.4986140000000 1.0
C      1  0.5991970000000  0.4929170000000  0.5695410000000 1.0
C      1  0.5296510000000  0.4948450000000  0.4799900000000 1.0
C      1  0.4760710000000  0.4674390000000  0.4123490000000 1.0
C      1  0.4100830000000  0.5213970000000  0.5151420000000 1.0
C      1  0.4700490000000  0.5163910000000  0.5478280000000 1.0
C      1  0.4882830000000  0.4151820000000  0.4667800000000 1.0
C      1  0.4012100000000  0.5420310000000  0.4513370000000 1.0
C      1  0.3851100000000  0.5397980000000  0.4744080000000 1.0
C      1  0.5473890000000  0.4904640000000  0.5026580000000 1.0
C      1  0.5918380000000  0.4732720000000  0.5514710000000 1.0
C      1  0.4894780000000  0.4908330000000  0.4219040000000 1.0
C      1  0.5401320000000  0.5751890000000  0.4710060000000 1.0
C      1  0.4488090000000  0.4980560000000  0.5066550000000 1.0
C      1  0.5203480000000  0.4107350000000  0.5044910000000 1.0
C      1  0.4175680000000  0.5196300000000  0.4465240000000 1.0
C      1  0.5185880000000  0.5002220000000  0.5933010000000 1.0
C      1  0.3945400000000  0.5672350000000  0.5486300000000 1.0
C      1  0.4650040000000  0.4254010000000  0.4818810000000 1.0
C      1  0.5654240000000  0.5064370000000  0.4342520000000 1.0
C      1  0.5760260000000  0.4492000000000  0.5580740000000 1.0
C      1  0.5636240000000  0.4326770000000  0.4733750000000 1.0
C      1  0.5105090000000  0.5389010000000  0.5510910000000 1.0
C      1  0.4512420000000  0.4600240000000  0.4238170000000 1.0
C      1  0.4866260000000  0.5376080000000  0.5358690000000 1.0
C      1  0.4208350000000  0.5612060000000  0.5437970000000 1.0
C      1  0.4217190000000  0.4552040000000  0.4854380000000 1.0
C      1  0.4890990000000  0.4793040000000  0.5273070000000 1.0
C      1  0.5073200000000  0.5083150000000  0.4077410000000 1.0
C      1  0.5295680000000  0.4554530000000  0.4497650000000 1.0
C      1  0.4696470000000  0.4340710000000  0.5090180000000 1.0
C      1  0.4301030000000  0.4492440000000  0.5353310000000 1.0
C      1  0.5282480000000  0.4315730000000  0.6030850000000 1.0
C      1  0.5900130000000  0.4771420000000  0.4750290000000 1.0
C      1  0.4499330000000  0.5958140000000  0.4407140000000 1.0
C      1  0.4920720000000  0.4206910000000  0.4149870000000 1.0
C      1  0.4407900000000  0.5722980000000  0.5602540000000 1.0
C      1  0.4506360000000  0.6111040000000  0.4647470000000 1.0
C      1  0.5837040000000  0.4493500000000  0.4842100000000 1.0
C      1  0.5304890000000  0.5644600000000  0.4959010000000 1.0
C      1  0.4072130000000  0.5659480000000  0.4382410000000 1.0
C      1  0.4757450000000  0.5856870000000  0.4337240000000 1.0
C      1  0.4905640000000  0.4448940000000  0.4031410000000 1.0
C      1  0.5130400000000  0.4757870000000  0.4641800000000 1.0
C      1  0.4967990000000  0.5205310000000  0.5908870000000 1.0
C      1  0.4410930000000  0.4379430000000  0.4708630000000 1.0
C      1  0.5236700000000  0.5707810000000  0.4478430000000 1.0
C      1  0.6044620000000  0.5127670000000  0.5862660000000 1.0
C      1  0.5382920000000  0.5073300000000  0.5738100000000 1.0
C      1  0.5918690000000  0.4458090000000  0.5119790000000 1.0
C      1  0.4517610000000  0.5505330000000  0.5070610000000 1.0
C      1  0.6115590000000  0.5529380000000  0.6194310000000 1.0
C      1  0.5458810000000  0.4625780000000  0.4282310000000 1.0
C      1  0.4127290000000  0.4757850000000  0.4673600000000 1.0
C      1  0.4699970000000  0.6069620000000  0.4833310000000 1.0
C      1  0.4908750000000  0.5882910000000  0.4797100000000 1.0
C      1  0.4417870000000  0.4437330000000  0.4429620000000 1.0
C      1  0.5192690000000  0.5209380000000  0.4849790000000 1.0
C      1  0.5147980000000  0.4909330000000  0.5345560000000 1.0
C      1  0.5079670000000  0.4729970000000  0.5884950000000 1.0
C      1  0.4765130000000  0.5092530000000  0.4685000000000 1.0
C      1  0.5254240000000  0.5141730000000  0.5491720000000 1.0
C      1  0.4823820000000  0.5468690000000  0.5070870000000 1.0
C      1  0.5095330000000  0.5355950000000  0.4154710000000 1.0
C      1  0.4867210000000  0.4568510000000  0.5100830000000 1.0
C      1  0.5593380000000  0.5180270000000  0.5068100000000 1.0
C      1  0.4915300000000  0.4925150000000  0.4503420000000 1.0
C      1  0.4513390000000  0.5021250000000  0.4782850000000 1.0
C      1  0.5359590000000  0.4753100000000  0.5235430000000 1.0
C      1  0.4277950000000  0.5441060000000  0.5218540000000 1.0
C      1  0.5982510000000  0.4910770000000  0.5017620000000 1.0
C      1  0.4757050000000  0.5066220000000  0.5751880000000 1.0
C      1  0.4870460000000  0.4098780000000  0.4390440000000 1.0
C      1  0.5364830000000  0.4322340000000  0.4648570000000 1.0
C      1  0.5284830000000  0.4254950000000  0.5251740000000 1.0
C      1  0.4259170000000  0.5841260000000  0.4326710000000 1.0
C      1  0.5384490000000  0.5373850000000  0.4995140000000 1.0
C      1  0.4916070000000  0.5262210000000  0.4856450000000 1.0
C      1  0.4212820000000  0.4944660000000  0.5151440000000 1.0
C      1  0.4871070000000  0.5683620000000  0.5829040000000 1.0
C      1  0.5912560000000  0.5235450000000  0.4714620000000 1.0
C      1  0.5278660000000  0.4519830000000  0.5845240000000 1.0
C      1  0.5838520000000  0.4310960000000  0.5356170000000 1.0
C      1  0.5519110000000  0.4875800000000  0.4173670000000 1.0
C      1  0.4982390000000  0.4616220000000  0.4852910000000 1.0
C      1  0.5367170000000  0.4499010000000  0.5358720000000 1.0
C      1  0.4628900000000  0.5763130000000  0.5746260000000 1.0
C      1  0.6081670000000  0.5329960000000  0.6029860000000 1.0
C      1  0.4188230000000  0.4647440000000  0.5136140000000 1.0
C      1  0.4281130000000  0.4989060000000  0.4618770000000 1.0
C      1  0.5296200000000  0.5482250000000  0.4312390000000 1.0
C      1  0.5988890000000  0.4726630000000  0.5233740000000 1.0
C      1  0.5321190000000  0.4970930000000  0.3992940000000 1.0
C      1  0.5536790000000  0.5328430000000  0.4340280000000 1.0
C      1  0.5035300000000  0.5459950000000  0.5788350000000 1.0
C      1  0.4488740000000  0.4297120000000  0.5271000000000 1.0
END
