TITL C-627107-135-1649 0.341773213069556 125000 -206.520389902164 0 0 36 (C1) n - 1
REM
REM in /home/nfs/bkarasulu/CARBON/AIRSS/Generating-Clusters/LCBOP/Only-C1/SD-CG/FIRE-CG
REM
REM
REM
REM
REM
REM ./C.cell (11c1c37f851c82e70ff6c80c92926a4b)
REM AIRSS Version 0.9.1 bugfix July 2018 build 013d7b7c2542+ Fri, 06 Jul 2018 19:26:36 +0100
REM compiler GCC version 9.2.1 20190827 (Red Hat 9.2.1-1)
REM options -cpp -mtune=generic -march=x86-64 -g -O0 -fpre-include=/usr/include/finclude/math-vector-fortran.h
REM seed -665974031 497257607 -967807422 -543430307 563712903 941146522 -573599116 -1711182339 -291054398 1944968547 -975091887 1574791852 -1038558477 -1114394539 148656435 146165512 -1366079182 -120633163 -382756779 -1935172463 -1409975354 2114742311 2053011664 -1520092741 655517379 -1109571849 110719863 -159533411 -262800407 -1805286900 702124028 -357394344 -2145824676
REM
CELL 1.54180   50.00000   50.00000   50.00000   90.00000   90.00000   90.00000
LATT -1
SFAC C  
C      1  0.5336820000000  0.4948350000000  0.4353600000000 1.0
C      1  0.5654470000000  0.4945220000000  0.6093510000000 1.0
C      1  0.4951630000000  0.4883440000000  0.4022890000000 1.0
C      1  0.5248480000000  0.4867500000000  0.5841750000000 1.0
C      1  0.5509570000000  0.4979210000000  0.5863840000000 1.0
C      1  0.5541210000000  0.4746310000000  0.4358990000000 1.0
C      1  0.5566060000000  0.4531470000000  0.4195980000000 1.0
C      1  0.5637550000000  0.5321470000000  0.5450940000000 1.0
C      1  0.5049430000000  0.4864070000000  0.3768230000000 1.0
C      1  0.4255770000000  0.4613840000000  0.4320380000000 1.0
C      1  0.5075490000000  0.5671250000000  0.5712160000000 1.0
C      1  0.4084520000000  0.4838010000000  0.5222930000000 1.0
C      1  0.5734250000000  0.5256060000000  0.5197610000000 1.0
C      1  0.5716390000000  0.4821050000000  0.4577010000000 1.0
C      1  0.5614950000000  0.5125830000000  0.5649930000000 1.0
C      1  0.5729910000000  0.5167290000000  0.4947830000000 1.0
C      1  0.5630440000000  0.5061260000000  0.4713190000000 1.0
C      1  0.4708660000000  0.4762550000000  0.4091210000000 1.0
C      1  0.3814890000000  0.4427630000000  0.4357220000000 1.0
C      1  0.4026850000000  0.4740930000000  0.4983080000000 1.0
C      1  0.5525120000000  0.5573280000000  0.5500810000000 1.0
C      1  0.4024680000000  0.4562590000000  0.4469400000000 1.0
C      1  0.5024280000000  0.5033600000000  0.5864170000000 1.0
C      1  0.4010510000000  0.4650890000000  0.4734420000000 1.0
C      1  0.4563540000000  0.5139460000000  0.5756020000000 1.0
C      1  0.5217820000000  0.4599280000000  0.5796390000000 1.0
C      1  0.4479740000000  0.4677240000000  0.4193800000000 1.0
C      1  0.5314780000000  0.5703460000000  0.5599570000000 1.0
C      1  0.4192250000000  0.4940340000000  0.5442510000000 1.0
C      1  0.5397390000000  0.5149510000000  0.4571960000000 1.0
C      1  0.4353300000000  0.5043350000000  0.5626250000000 1.0
C      1  0.4823670000000  0.5222320000000  0.5813600000000 1.0
C      1  0.5092190000000  0.5025030000000  0.4219390000000 1.0
C      1  0.5011050000000  0.5272630000000  0.4347030000000 1.0
C      1  0.5186440000000  0.5342220000000  0.4549600000000 1.0
C      1  0.4895910000000  0.5492080000000  0.5792800000000 1.0
END
