TITL C-627109-622-1425 0.000888215662423563 125000 -462.749154221811 0 0 76 (C1) n - 1
REM
REM in /home/nfs/bkarasulu/CARBON/AIRSS/Generating-Clusters/LCBOP/Only-C1/SD-CG/FIRE-CG
REM
REM
REM
REM
REM
REM ./C.cell (11c1c37f851c82e70ff6c80c92926a4b)
REM AIRSS Version 0.9.1 bugfix July 2018 build 013d7b7c2542+ Fri, 06 Jul 2018 19:26:36 +0100
REM compiler GCC version 9.2.1 20190827 (Red Hat 9.2.1-1)
REM options -cpp -mtune=generic -march=x86-64 -g -O0 -fpre-include=/usr/include/finclude/math-vector-fortran.h
REM seed -1221479525 -403530766 -1680477288 -45763164 1604806818 -386167361 60642623 -1608134062 -597758798 128168691 1813599553 -368725357 1821803717 2114046055 -71822179 -9854926 2135666299 1002736899 738426349 1054947412 1393225760 -1050133492 -1511003835 -79628480 41771180 -255285538 -242210375 1581451176 53833435 581498201 125795187 -1189756685 -680048926
REM
CELL 1.54180   50.00000   50.00000   50.00000   90.00000   90.00000   90.00000
LATT -1
SFAC C  
C      1  0.5586150000000  0.4334200000000  0.5394170000000 1.0
C      1  0.5383480000000  0.4289370000000  0.4948870000000 1.0
C      1  0.5018860000000  0.5350870000000  0.4958880000000 1.0
C      1  0.5462320000000  0.4777940000000  0.4874050000000 1.0
C      1  0.5624290000000  0.5404230000000  0.4733380000000 1.0
C      1  0.5486750000000  0.5197050000000  0.4618140000000 1.0
C      1  0.5842310000000  0.3740020000000  0.5091120000000 1.0
C      1  0.4678540000000  0.5275490000000  0.5690850000000 1.0
C      1  0.5336980000000  0.5019860000000  0.4782670000000 1.0
C      1  0.4962690000000  0.5322370000000  0.5714550000000 1.0
C      1  0.5834730000000  0.4736820000000  0.5599590000000 1.0
C      1  0.4424740000000  0.5556540000000  0.5319810000000 1.0
C      1  0.5695650000000  0.4514570000000  0.5555330000000 1.0
C      1  0.4360340000000  0.5479290000000  0.5059010000000 1.0
C      1  0.5147730000000  0.3610980000000  0.4825540000000 1.0
C      1  0.4451890000000  0.4444540000000  0.5413750000000 1.0
C      1  0.4497360000000  0.4600860000000  0.4432250000000 1.0
C      1  0.5304170000000  0.4119470000000  0.4733810000000 1.0
C      1  0.4701240000000  0.4478180000000  0.4284950000000 1.0
C      1  0.5739290000000  0.4772570000000  0.4910140000000 1.0
C      1  0.4351770000000  0.5076520000000  0.4346320000000 1.0
C      1  0.5946520000000  0.4969730000000  0.5490890000000 1.0
C      1  0.4353130000000  0.4809840000000  0.4307180000000 1.0
C      1  0.4433350000000  0.4359720000000  0.5161920000000 1.0
C      1  0.5035690000000  0.5776750000000  0.4195480000000 1.0
C      1  0.4445620000000  0.4408190000000  0.4899660000000 1.0
C      1  0.5221160000000  0.5974670000000  0.4595310000000 1.0
C      1  0.5502890000000  0.5151990000000  0.4348690000000 1.0
C      1  0.4926180000000  0.5303490000000  0.4128640000000 1.0
C      1  0.4027590000000  0.5010530000000  0.5430670000000 1.0
C      1  0.3936920000000  0.4971150000000  0.5905310000000 1.0
C      1  0.4534560000000  0.5485160000000  0.4606090000000 1.0
C      1  0.5070120000000  0.5085550000000  0.4869790000000 1.0
C      1  0.4522160000000  0.5457180000000  0.5547140000000 1.0
C      1  0.5173520000000  0.5965680000000  0.4329720000000 1.0
C      1  0.4975750000000  0.5050790000000  0.4062750000000 1.0
C      1  0.4378430000000  0.4871590000000  0.5723230000000 1.0
C      1  0.5697360000000  0.3954660000000  0.5120160000000 1.0
C      1  0.5551670000000  0.4190750000000  0.5156400000000 1.0
C      1  0.6371380000000  0.5009300000000  0.5246520000000 1.0
C      1  0.4106950000000  0.4952590000000  0.5692940000000 1.0
C      1  0.5170530000000  0.4371220000000  0.4285520000000 1.0
C      1  0.5007670000000  0.4787520000000  0.4083460000000 1.0
C      1  0.4889820000000  0.4865170000000  0.4906820000000 1.0
C      1  0.4436690000000  0.5221610000000  0.4569960000000 1.0
C      1  0.5294160000000  0.4558600000000  0.4946360000000 1.0
C      1  0.5030950000000  0.5404630000000  0.5233680000000 1.0
C      1  0.4516100000000  0.4607640000000  0.4716950000000 1.0
C      1  0.4248910000000  0.6413880000000  0.4743800000000 1.0
C      1  0.5649980000000  0.5394740000000  0.5577060000000 1.0
C      1  0.6101420000000  0.4942290000000  0.5253350000000 1.0
C      1  0.4698460000000  0.4989880000000  0.6080310000000 1.0
C      1  0.5023200000000  0.4627230000000  0.4984780000000 1.0
C      1  0.5850030000000  0.5220180000000  0.5567910000000 1.0
C      1  0.4986900000000  0.5561250000000  0.4770420000000 1.0
C      1  0.5139550000000  0.5798410000000  0.4782150000000 1.0
C      1  0.4292160000000  0.6158150000000  0.4770180000000 1.0
C      1  0.4408670000000  0.5630770000000  0.4820700000000 1.0
C      1  0.5395190000000  0.5462110000000  0.5544790000000 1.0
C      1  0.4807690000000  0.5532280000000  0.4546850000000 1.0
C      1  0.6623800000000  0.5074050000000  0.5243080000000 1.0
C      1  0.4442380000000  0.5074360000000  0.4816700000000 1.0
C      1  0.5966410000000  0.4842890000000  0.5028760000000 1.0
C      1  0.4339190000000  0.5898750000000  0.4796190000000 1.0
C      1  0.4569610000000  0.5048030000000  0.5833440000000 1.0
C      1  0.4944730000000  0.5086590000000  0.6141370000000 1.0
C      1  0.4110900000000  0.5077410000000  0.5187380000000 1.0
C      1  0.5074280000000  0.5247890000000  0.5965540000000 1.0
C      1  0.5124760000000  0.5405830000000  0.5497680000000 1.0
C      1  0.4962820000000  0.4536880000000  0.4200280000000 1.0
C      1  0.5285410000000  0.4225350000000  0.4475370000000 1.0
C      1  0.4452410000000  0.4626460000000  0.5608070000000 1.0
C      1  0.4910150000000  0.5538150000000  0.4279650000000 1.0
C      1  0.4616690000000  0.4852740000000  0.4829720000000 1.0
C      1  0.4299600000000  0.5200540000000  0.5024530000000 1.0
C      1  0.5226550000000  0.3855460000000  0.4781480000000 1.0
END
