TITL C-627111-6168-1537 -2.06419242671332e-07 125000 -284.489925804424 0 0 46 (C1) n - 1
REM
REM in /home/nfs/bkarasulu/CARBON/AIRSS/Generating-Clusters/LCBOP/Only-C1/SD-CG/FIRE-CG
REM
REM
REM
REM
REM
REM ./C.cell (11c1c37f851c82e70ff6c80c92926a4b)
REM AIRSS Version 0.9.1 bugfix July 2018 build 013d7b7c2542+ Fri, 06 Jul 2018 19:26:36 +0100
REM compiler GCC version 9.2.1 20190827 (Red Hat 9.2.1-1)
REM options -cpp -mtune=generic -march=x86-64 -g -O0 -fpre-include=/usr/include/finclude/math-vector-fortran.h
REM seed 2017037256 -1346654341 -1215368079 -763906871 1469470809 -979560639 -1669051503 -1161028750 -1641201408 1369167722 1251531603 340216573 2000867307 1683418008 -716818396 1744972657 2066808057 779611261 -373485412 200953862 1944849846 507606201 -1844005395 -642719677 -1765937638 -1022941702 -1454860184 -2059071199 1347918495 -33053018 1772913625 317261011 358100883
REM
CELL 1.54180   50.00000   50.00000   50.00000   90.00000   90.00000   90.00000
LATT -1
SFAC C  
C      1  0.4932220000000  0.4990430000000  0.4854950000000 1.0
C      1  0.4872350000000  0.4435690000000  0.4266100000000 1.0
C      1  0.5695610000000  0.5119290000000  0.5385100000000 1.0
C      1  0.4668490000000  0.4955300000000  0.4764230000000 1.0
C      1  0.5101260000000  0.5083610000000  0.5058060000000 1.0
C      1  0.5499290000000  0.4553110000000  0.4886160000000 1.0
C      1  0.5184420000000  0.4396600000000  0.5412210000000 1.0
C      1  0.4621140000000  0.5645990000000  0.4508240000000 1.0
C      1  0.4646430000000  0.5530710000000  0.4982390000000 1.0
C      1  0.5105460000000  0.5382080000000  0.5731160000000 1.0
C      1  0.5369730000000  0.4990560000000  0.5065770000000 1.0
C      1  0.5075790000000  0.4919130000000  0.5610570000000 1.0
C      1  0.4208410000000  0.5830580000000  0.4206790000000 1.0
C      1  0.4620250000000  0.4470760000000  0.4711990000000 1.0
C      1  0.5146890000000  0.5739170000000  0.4511270000000 1.0
C      1  0.5555040000000  0.5564050000000  0.4785940000000 1.0
C      1  0.5562520000000  0.5018180000000  0.5614730000000 1.0
C      1  0.4410930000000  0.5742450000000  0.4353110000000 1.0
C      1  0.5419360000000  0.4709840000000  0.5101880000000 1.0
C      1  0.4539440000000  0.4712780000000  0.4838390000000 1.0
C      1  0.4983760000000  0.5249330000000  0.5263860000000 1.0
C      1  0.5334830000000  0.5370840000000  0.5874950000000 1.0
C      1  0.4008910000000  0.5917010000000  0.4062940000000 1.0
C      1  0.5380320000000  0.5684470000000  0.4625870000000 1.0
C      1  0.5485360000000  0.4463920000000  0.4636150000000 1.0
C      1  0.4443740000000  0.4736920000000  0.5351690000000 1.0
C      1  0.5535670000000  0.5193170000000  0.5836100000000 1.0
C      1  0.4805800000000  0.5450080000000  0.5180980000000 1.0
C      1  0.4612160000000  0.4751610000000  0.5558390000000 1.0
C      1  0.4878940000000  0.4714020000000  0.5634460000000 1.0
C      1  0.4926070000000  0.4172890000000  0.5026310000000 1.0
C      1  0.4538870000000  0.5185890000000  0.4669180000000 1.0
C      1  0.5362150000000  0.4422080000000  0.4404080000000 1.0
C      1  0.5636370000000  0.5384970000000  0.4964970000000 1.0
C      1  0.5138400000000  0.4416860000000  0.4259570000000 1.0
C      1  0.4575600000000  0.5461400000000  0.4718710000000 1.0
C      1  0.4989570000000  0.4453060000000  0.5612250000000 1.0
C      1  0.5023140000000  0.5190820000000  0.5539620000000 1.0
C      1  0.5111720000000  0.4213550000000  0.5213590000000 1.0
C      1  0.5349840000000  0.4829560000000  0.5564160000000 1.0
C      1  0.5363290000000  0.4616840000000  0.5366120000000 1.0
C      1  0.4410480000000  0.4709510000000  0.5088240000000 1.0
C      1  0.4885630000000  0.5728020000000  0.4464020000000 1.0
C      1  0.4667140000000  0.4459860000000  0.4435480000000 1.0
C      1  0.5584950000000  0.5166570000000  0.5129700000000 1.0
C      1  0.4732240000000  0.4266430000000  0.4869550000000 1.0
END
