TITL C-627109-622-1027 363.899550151211 125000 -242.358332640705 0 0 42 (C1) n - 1
REM
REM in /home/nfs/bkarasulu/CARBON/AIRSS/Generating-Clusters/LCBOP/Only-C1/SD-CG/FIRE-CG
REM
REM
REM
REM
REM
REM ./C.cell (11c1c37f851c82e70ff6c80c92926a4b)
REM AIRSS Version 0.9.1 bugfix July 2018 build 013d7b7c2542+ Fri, 06 Jul 2018 19:26:36 +0100
REM compiler GCC version 9.2.1 20190827 (Red Hat 9.2.1-1)
REM options -cpp -mtune=generic -march=x86-64 -g -O0 -fpre-include=/usr/include/finclude/math-vector-fortran.h
REM seed 1189002622 96528917 -1951619114 -8334652 -2133803986 519949526 -1928486392 -131810001 1175595750 1138680427 1559347714 -1427589214 1111414725 1980829093 112343486 1026321736 535132209 171748545 1679936122 -943445725 -202032539 -2111782462 573419582 -987731186 676303815 755464538 -1914897211 -655985183 -530775444 -525136050 -1567723985 -1510463927 266728645
REM
CELL 1.54180   50.00000   50.00000   50.00000   90.00000   90.00000   90.00000
LATT -1
SFAC C  
C      1  0.3746770000000  0.5230600000000  0.5702400000000 1.0
C      1  0.4051290000000  0.4539480000000  0.5431530000000 1.0
C      1  0.5219480000000  0.4647950000000  0.5537970000000 1.0
C      1  0.6119440000000  0.4999950000000  0.3997190000000 1.0
C      1  0.6374790000000  0.5093960000000  0.4064970000000 1.0
C      1  0.4264060000000  0.5301470000000  0.5709480000000 1.0
C      1  0.5946830000000  0.5197680000000  0.4651810000000 1.0
C      1  0.3801780000000  0.4624400000000  0.5463640000000 1.0
C      1  0.5364040000000  0.4796190000000  0.4632320000000 1.0
C      1  0.5591770000000  0.4885680000000  0.4530660000000 1.0
C      1  0.6001940000000  0.4826590000000  0.3496010000000 1.0
C      1  0.5789790000000  0.5316670000000  0.4850250000000 1.0
C      1  0.5822460000000  0.5026890000000  0.4459530000000 1.0
C      1  0.4945470000000  0.5243740000000  0.5439100000000 1.0
C      1  0.5599360000000  0.5374810000000  0.5025070000000 1.0
C      1  0.5927380000000  0.4999870000000  0.4201450000000 1.0
C      1  0.4557770000000  0.4649150000000  0.5494030000000 1.0
C      1  0.4741440000000  0.5096920000000  0.5560770000000 1.0
C      1  0.5887260000000  0.4658700000000  0.3011150000000 1.0
C      1  0.3273750000000  0.5120290000000  0.5667500000000 1.0
C      1  0.4316110000000  0.4552660000000  0.5443010000000 1.0
C      1  0.6511410000000  0.5196310000000  0.4269830000000 1.0
C      1  0.2763680000000  0.5250670000000  0.5728080000000 1.0
C      1  0.5003790000000  0.4643810000000  0.5967570000000 1.0
C      1  0.5944130000000  0.4741930000000  0.3251570000000 1.0
C      1  0.3541830000000  0.5051860000000  0.5635430000000 1.0
C      1  0.5134870000000  0.4741600000000  0.4753860000000 1.0
C      1  0.4512680000000  0.5226080000000  0.5656340000000 1.0
C      1  0.3018800000000  0.5185450000000  0.5697830000000 1.0
C      1  0.6059620000000  0.4911210000000  0.3740290000000 1.0
C      1  0.5428640000000  0.4620230000000  0.5384970000000 1.0
C      1  0.3617240000000  0.4801610000000  0.5534910000000 1.0
C      1  0.5160860000000  0.5335730000000  0.5315370000000 1.0
C      1  0.6222330000000  0.5246520000000  0.4645020000000 1.0
C      1  0.6688540000000  0.5369230000000  0.4685600000000 1.0
C      1  0.4909690000000  0.4702490000000  0.4879270000000 1.0
C      1  0.5384050000000  0.5379880000000  0.5179500000000 1.0
C      1  0.3999310000000  0.5308900000000  0.5725860000000 1.0
C      1  0.4764890000000  0.4814210000000  0.5583300000000 1.0
C      1  0.2512750000000  0.5314840000000  0.5757790000000 1.0
C      1  0.4997640000000  0.4700290000000  0.5699930000000 1.0
C      1  0.6480280000000  0.5273510000000  0.4537840000000 1.0
END
