TITL C-627113-6568-1765 0.0201655831226876 125000 -440.497219460809 0 0 73 (C1) n - 1
REM
REM in /home/nfs/bkarasulu/CARBON/AIRSS/Generating-Clusters/LCBOP/Only-C1/SD-CG/FIRE-CG
REM
REM
REM
REM
REM
REM ./C.cell (11c1c37f851c82e70ff6c80c92926a4b)
REM AIRSS Version 0.9.1 bugfix July 2018 build 013d7b7c2542+ Fri, 06 Jul 2018 19:26:36 +0100
REM compiler GCC version 9.2.1 20190827 (Red Hat 9.2.1-1)
REM options -cpp -mtune=generic -march=x86-64 -g -O0 -fpre-include=/usr/include/finclude/math-vector-fortran.h
REM seed 348523332 1102158805 1893674131 1644721977 1063398671 -1231911240 1331931515 1394315654 2073031366 441942554 -2144282112 2033818501 1339402408 1407146808 2112173548 1013935088 1045774916 1440548743 304006321 -1868206942 -1300655780 633816824 671672899 429537808 204223636 1232937002 -972771981 -71481988 -1962350122 -1396744270 -1371379322 -559837779 419531125
REM
CELL 1.54180   50.00000   50.00000   50.00000   90.00000   90.00000   90.00000
LATT -1
SFAC C  
C      1  0.5801900000000  0.4415490000000  0.4566540000000 1.0
C      1  0.4239330000000  0.5115020000000  0.5243980000000 1.0
C      1  0.5818980000000  0.4493550000000  0.4827470000000 1.0
C      1  0.4316690000000  0.4627940000000  0.5203280000000 1.0
C      1  0.4667800000000  0.5275130000000  0.4300130000000 1.0
C      1  0.5019850000000  0.3878800000000  0.4442380000000 1.0
C      1  0.5018040000000  0.5099140000000  0.5701500000000 1.0
C      1  0.5726440000000  0.5520460000000  0.6086910000000 1.0
C      1  0.6056870000000  0.5578610000000  0.5707640000000 1.0
C      1  0.4507760000000  0.5614620000000  0.4558400000000 1.0
C      1  0.5450450000000  0.4973280000000  0.5294700000000 1.0
C      1  0.5610970000000  0.4522240000000  0.4388860000000 1.0
C      1  0.5348280000000  0.4145100000000  0.4190240000000 1.0
C      1  0.5234910000000  0.5368020000000  0.4483020000000 1.0
C      1  0.5169350000000  0.4777410000000  0.4850620000000 1.0
C      1  0.4927340000000  0.4527310000000  0.4144750000000 1.0
C      1  0.4563970000000  0.4545400000000  0.5325040000000 1.0
C      1  0.4759350000000  0.5497080000000  0.4464530000000 1.0
C      1  0.5190590000000  0.5303260000000  0.5712690000000 1.0
C      1  0.4913420000000  0.4716330000000  0.4825990000000 1.0
C      1  0.4943640000000  0.3837640000000  0.4695370000000 1.0
C      1  0.5330700000000  0.5526960000000  0.5612370000000 1.0
C      1  0.6044360000000  0.5590610000000  0.5432110000000 1.0
C      1  0.5793770000000  0.5543510000000  0.5820360000000 1.0
C      1  0.4319760000000  0.5395150000000  0.4575920000000 1.0
C      1  0.5012790000000  0.5485380000000  0.4903910000000 1.0
C      1  0.5493840000000  0.5458790000000  0.4895080000000 1.0
C      1  0.5285900000000  0.4866460000000  0.4302220000000 1.0
C      1  0.5416050000000  0.4418640000000  0.4203670000000 1.0
C      1  0.4283180000000  0.4879110000000  0.5080250000000 1.0
C      1  0.5622460000000  0.4787400000000  0.5203830000000 1.0
C      1  0.4710480000000  0.4718050000000  0.5491610000000 1.0
C      1  0.5178900000000  0.5729020000000  0.5489960000000 1.0
C      1  0.5435450000000  0.4769760000000  0.4767260000000 1.0
C      1  0.4865660000000  0.5653610000000  0.5081800000000 1.0
C      1  0.3900850000000  0.4276260000000  0.5208990000000 1.0
C      1  0.4394960000000  0.4924000000000  0.4541310000000 1.0
C      1  0.5794920000000  0.5494120000000  0.6561110000000 1.0
C      1  0.5690120000000  0.5543840000000  0.5074150000000 1.0
C      1  0.5280680000000  0.5160580000000  0.5204260000000 1.0
C      1  0.4895750000000  0.4243650000000  0.4135230000000 1.0
C      1  0.4165260000000  0.5786840000000  0.5301580000000 1.0
C      1  0.4588070000000  0.5666560000000  0.5100750000000 1.0
C      1  0.4857150000000  0.4904180000000  0.5614650000000 1.0
C      1  0.5625790000000  0.5492870000000  0.6346170000000 1.0
C      1  0.5092190000000  0.5436780000000  0.6409040000000 1.0
C      1  0.4098520000000  0.4452600000000  0.5212220000000 1.0
C      1  0.4226990000000  0.5356550000000  0.5089250000000 1.0
C      1  0.4664510000000  0.4290960000000  0.5246870000000 1.0
C      1  0.5226000000000  0.5139210000000  0.4317050000000 1.0
C      1  0.5013060000000  0.5777730000000  0.5287320000000 1.0
C      1  0.5249700000000  0.5365500000000  0.5016390000000 1.0
C      1  0.4698480000000  0.4590460000000  0.4700200000000 1.0
C      1  0.5642050000000  0.4680280000000  0.4945730000000 1.0
C      1  0.5485640000000  0.4767470000000  0.4489140000000 1.0
C      1  0.5612050000000  0.5537270000000  0.5589860000000 1.0
C      1  0.4831340000000  0.3934950000000  0.4918760000000 1.0
C      1  0.4995630000000  0.5467730000000  0.4614400000000 1.0
C      1  0.5350090000000  0.5463980000000  0.6383130000000 1.0
C      1  0.4226810000000  0.5270850000000  0.4815030000000 1.0
C      1  0.4696540000000  0.4168410000000  0.4995190000000 1.0
C      1  0.4454280000000  0.5879440000000  0.4584700000000 1.0
C      1  0.5477700000000  0.5446430000000  0.4613010000000 1.0
C      1  0.4622280000000  0.4336040000000  0.4781330000000 1.0
C      1  0.5771600000000  0.5562390000000  0.5339690000000 1.0
C      1  0.3707880000000  0.4101040000000  0.5204600000000 1.0
C      1  0.5198570000000  0.4621920000000  0.4165470000000 1.0
C      1  0.4322300000000  0.5608150000000  0.5168130000000 1.0
C      1  0.5083230000000  0.4055000000000  0.4234310000000 1.0
C      1  0.4418090000000  0.5172860000000  0.4399310000000 1.0
C      1  0.4705310000000  0.4676200000000  0.4233170000000 1.0
C      1  0.4577650000000  0.4719530000000  0.4480580000000 1.0
C      1  0.4278710000000  0.4973100000000  0.4803530000000 1.0
END
