TITL C-627112-676-260 0.535836774608248 125000 -481.801913409809 0 0 81 (C1) n - 1
REM
REM in /home/nfs/bkarasulu/CARBON/AIRSS/Generating-Clusters/LCBOP/Only-C1/SD-CG/FIRE-CG
REM
REM
REM
REM
REM
REM ./C.cell (11c1c37f851c82e70ff6c80c92926a4b)
REM AIRSS Version 0.9.1 bugfix July 2018 build 013d7b7c2542+ Fri, 06 Jul 2018 19:26:36 +0100
REM compiler GCC version 9.2.1 20190827 (Red Hat 9.2.1-1)
REM options -cpp -mtune=generic -march=x86-64 -g -O0 -fpre-include=/usr/include/finclude/math-vector-fortran.h
REM seed 108262858 -1199464665 1922791314 -2037331139 1726171142 1807133716 -1283671860 45846406 -937250492 148283156 -1074150212 302706837 2025792559 -502375620 2100338411 1459542644 -1746621902 -1955650973 -698129536 -1411779438 1784834834 270125502 284689268 1372977764 966319642 -156878736 -1060204772 -688458678 1668267216 339932447 2078040063 1181140222 -1458646121
REM
CELL 1.54180   50.00000   50.00000   50.00000   90.00000   90.00000   90.00000
LATT -1
SFAC C  
C      1  0.4334050000000  0.5253340000000  0.4953480000000 1.0
C      1  0.4661180000000  0.5475130000000  0.6216800000000 1.0
C      1  0.5375580000000  0.5353420000000  0.4811450000000 1.0
C      1  0.5446640000000  0.4316730000000  0.5118620000000 1.0
C      1  0.6255540000000  0.4601510000000  0.4671410000000 1.0
C      1  0.5827670000000  0.4829610000000  0.4582530000000 1.0
C      1  0.6369060000000  0.4930720000000  0.5278690000000 1.0
C      1  0.5284880000000  0.5065340000000  0.5928900000000 1.0
C      1  0.4196130000000  0.5354290000000  0.4724110000000 1.0
C      1  0.5675410000000  0.5463880000000  0.3957550000000 1.0
C      1  0.5092770000000  0.5218670000000  0.6063210000000 1.0
C      1  0.5425070000000  0.4675490000000  0.6180760000000 1.0
C      1  0.4741720000000  0.5170420000000  0.5485050000000 1.0
C      1  0.5686460000000  0.4748490000000  0.5094810000000 1.0
C      1  0.4975570000000  0.4614990000000  0.4899360000000 1.0
C      1  0.5377710000000  0.5140470000000  0.4602910000000 1.0
C      1  0.4380320000000  0.5511530000000  0.4568230000000 1.0
C      1  0.4733230000000  0.4878790000000  0.4289880000000 1.0
C      1  0.4076230000000  0.4895200000000  0.4540020000000 1.0
C      1  0.4935540000000  0.5193820000000  0.4015620000000 1.0
C      1  0.4414540000000  0.4550360000000  0.4699370000000 1.0
C      1  0.4436710000000  0.4533780000000  0.5754850000000 1.0
C      1  0.4728450000000  0.4350730000000  0.4336220000000 1.0
C      1  0.4584810000000  0.5342180000000  0.4465820000000 1.0
C      1  0.5285920000000  0.4712510000000  0.5357130000000 1.0
C      1  0.4606970000000  0.4545160000000  0.5557920000000 1.0
C      1  0.4618310000000  0.5720110000000  0.5217370000000 1.0
C      1  0.5494140000000  0.4579840000000  0.5212150000000 1.0
C      1  0.5284300000000  0.4781760000000  0.5971250000000 1.0
C      1  0.4691650000000  0.5151860000000  0.4658140000000 1.0
C      1  0.4497280000000  0.5759320000000  0.4642920000000 1.0
C      1  0.6617480000000  0.4895470000000  0.5349100000000 1.0
C      1  0.3958860000000  0.5244070000000  0.5948070000000 1.0
C      1  0.5462720000000  0.5195860000000  0.5752980000000 1.0
C      1  0.5137440000000  0.5021570000000  0.4524780000000 1.0
C      1  0.5685450000000  0.5294970000000  0.5277470000000 1.0
C      1  0.4851430000000  0.4433260000000  0.4107630000000 1.0
C      1  0.4381400000000  0.4665920000000  0.4965600000000 1.0
C      1  0.6105360000000  0.4963450000000  0.5196580000000 1.0
C      1  0.4757090000000  0.5407540000000  0.4256360000000 1.0
C      1  0.4862750000000  0.4976710000000  0.4521750000000 1.0
C      1  0.5197890000000  0.5572180000000  0.4804670000000 1.0
C      1  0.4996250000000  0.5558800000000  0.4327340000000 1.0
C      1  0.4034130000000  0.5156160000000  0.4600090000000 1.0
C      1  0.5255550000000  0.4151250000000  0.5022480000000 1.0
C      1  0.5426770000000  0.5456130000000  0.4035220000000 1.0
C      1  0.4091330000000  0.5183780000000  0.5731890000000 1.0
C      1  0.5969060000000  0.4763240000000  0.5041000000000 1.0
C      1  0.5954130000000  0.5195690000000  0.5263790000000 1.0
C      1  0.4881270000000  0.4363700000000  0.4795110000000 1.0
C      1  0.4572430000000  0.5101320000000  0.4911610000000 1.0
C      1  0.4815140000000  0.5766590000000  0.5024340000000 1.0
C      1  0.4766610000000  0.5775100000000  0.4735200000000 1.0
C      1  0.6029590000000  0.4725850000000  0.4759800000000 1.0
C      1  0.5202280000000  0.4981180000000  0.5330010000000 1.0
C      1  0.4992750000000  0.5131320000000  0.5403680000000 1.0
C      1  0.5569020000000  0.5307570000000  0.5534060000000 1.0
C      1  0.5006290000000  0.5658890000000  0.4593440000000 1.0
C      1  0.5140510000000  0.4611840000000  0.5796800000000 1.0
C      1  0.5100030000000  0.4571080000000  0.5521770000000 1.0
C      1  0.4290260000000  0.4714670000000  0.4493380000000 1.0
C      1  0.4598330000000  0.4845560000000  0.5032820000000 1.0
C      1  0.4878390000000  0.4922780000000  0.4046490000000 1.0
C      1  0.4838890000000  0.4514370000000  0.5377120000000 1.0
C      1  0.5088610000000  0.5680760000000  0.5050270000000 1.0
C      1  0.4479780000000  0.5544840000000  0.5366070000000 1.0
C      1  0.4825890000000  0.4708050000000  0.5122880000000 1.0
C      1  0.4881330000000  0.5351650000000  0.6151620000000 1.0
C      1  0.4931300000000  0.4652920000000  0.3962410000000 1.0
C      1  0.5529940000000  0.5241890000000  0.5042620000000 1.0
C      1  0.4844730000000  0.4234720000000  0.5251430000000 1.0
C      1  0.4171030000000  0.4713460000000  0.5149630000000 1.0
C      1  0.4972720000000  0.4178760000000  0.5000110000000 1.0
C      1  0.5172970000000  0.5436160000000  0.4132080000000 1.0
C      1  0.4468460000000  0.4789420000000  0.4289130000000 1.0
C      1  0.4658120000000  0.4390170000000  0.4613670000000 1.0
C      1  0.4245340000000  0.5120850000000  0.5506270000000 1.0
C      1  0.4157640000000  0.4904820000000  0.5342130000000 1.0
C      1  0.5591670000000  0.4958230000000  0.4666110000000 1.0
C      1  0.5577140000000  0.4968420000000  0.4954600000000 1.0
C      1  0.4482630000000  0.5277590000000  0.5459940000000 1.0
END
