TITL C-627106-156-488 5.8867165673445e-06 125000 -516.72745891031 0 0 86 (C1) n - 1
REM
REM in /home/nfs/bkarasulu/CARBON/AIRSS/Generating-Clusters/LCBOP/Only-C1/SD-CG/FIRE-CG
REM
REM
REM
REM
REM
REM ./C.cell (11c1c37f851c82e70ff6c80c92926a4b)
REM AIRSS Version 0.9.1 bugfix July 2018 build 013d7b7c2542+ Fri, 06 Jul 2018 19:26:36 +0100
REM compiler GCC version 9.2.1 20190827 (Red Hat 9.2.1-1)
REM options -cpp -mtune=generic -march=x86-64 -g -O0 -fpre-include=/usr/include/finclude/math-vector-fortran.h
REM seed -1874808613 -283139264 -1706772508 -237715052 1769203536 -1272261939 -1741940155 238891701 -411932370 -2073947262 1661361752 1271498454 -1819201234 -910440943 -1333938584 68293032 1926969089 -1744841865 -249336716 -144882039 1208130474 1626074502 642602837 858913552 -353474747 1822361115 182130809 1190684988 923507919 -485912079 307480883 -1010074140 907457485
REM
CELL 1.54180   50.00000   50.00000   50.00000   90.00000   90.00000   90.00000
LATT -1
SFAC C  
C      1  0.5691940000000  0.4649190000000  0.5150170000000 1.0
C      1  0.4394000000000  0.5177520000000  0.5638720000000 1.0
C      1  0.5782580000000  0.4804110000000  0.5841740000000 1.0
C      1  0.5226320000000  0.4425850000000  0.4513380000000 1.0
C      1  0.5257520000000  0.4665890000000  0.4151500000000 1.0
C      1  0.4464930000000  0.5490740000000  0.5066850000000 1.0
C      1  0.4625510000000  0.4322970000000  0.4752310000000 1.0
C      1  0.4420870000000  0.4778770000000  0.4586380000000 1.0
C      1  0.5671930000000  0.5678600000000  0.5403030000000 1.0
C      1  0.5345630000000  0.5234570000000  0.5728990000000 1.0
C      1  0.5615770000000  0.4481000000000  0.5346160000000 1.0
C      1  0.6017580000000  0.5039200000000  0.4792870000000 1.0
C      1  0.4789010000000  0.5546120000000  0.5421480000000 1.0
C      1  0.4929110000000  0.5478620000000  0.4837560000000 1.0
C      1  0.4557910000000  0.5650870000000  0.5303990000000 1.0
C      1  0.4676070000000  0.5031100000000  0.4957660000000 1.0
C      1  0.5500420000000  0.4604940000000  0.4384790000000 1.0
C      1  0.4629170000000  0.5876090000000  0.4450990000000 1.0
C      1  0.5106010000000  0.4324890000000  0.4744520000000 1.0
C      1  0.4306320000000  0.4067430000000  0.5374160000000 1.0
C      1  0.4095930000000  0.5581190000000  0.3732820000000 1.0
C      1  0.5727480000000  0.4730830000000  0.4473260000000 1.0
C      1  0.4206090000000  0.4673190000000  0.5450360000000 1.0
C      1  0.4189440000000  0.5134260000000  0.4883070000000 1.0
C      1  0.5526530000000  0.4736670000000  0.5882660000000 1.0
C      1  0.4878900000000  0.5077450000000  0.5825780000000 1.0
C      1  0.6054200000000  0.5088570000000  0.5500450000000 1.0
C      1  0.4943910000000  0.4542550000000  0.5435470000000 1.0
C      1  0.5099250000000  0.4949400000000  0.5002360000000 1.0
C      1  0.5399800000000  0.5500390000000  0.5807320000000 1.0
C      1  0.5898640000000  0.5518710000000  0.5343440000000 1.0
C      1  0.4224870000000  0.5337690000000  0.4180350000000 1.0
C      1  0.5376280000000  0.3864940000000  0.5650220000000 1.0
C      1  0.4628510000000  0.4806580000000  0.5140080000000 1.0
C      1  0.5969420000000  0.4930040000000  0.5697960000000 1.0
C      1  0.5903580000000  0.4884390000000  0.4605310000000 1.0
C      1  0.5092050000000  0.4496160000000  0.4972670000000 1.0
C      1  0.4981260000000  0.5047570000000  0.4534640000000 1.0
C      1  0.4832330000000  0.5857400000000  0.4279850000000 1.0
C      1  0.5220740000000  0.5539110000000  0.4159540000000 1.0
C      1  0.5188140000000  0.4562840000000  0.5580690000000 1.0
C      1  0.5353740000000  0.5702630000000  0.4984260000000 1.0
C      1  0.4618760000000  0.4335280000000  0.5040940000000 1.0
C      1  0.4128830000000  0.4194670000000  0.5530070000000 1.0
C      1  0.4503690000000  0.5007460000000  0.4422400000000 1.0
C      1  0.4244480000000  0.5215760000000  0.5417880000000 1.0
C      1  0.4868380000000  0.4175010000000  0.4697410000000 1.0
C      1  0.4900890000000  0.5320950000000  0.5276710000000 1.0
C      1  0.5495640000000  0.5170350000000  0.5495910000000 1.0
C      1  0.5257750000000  0.4721560000000  0.4982150000000 1.0
C      1  0.4157060000000  0.5458450000000  0.3954530000000 1.0
C      1  0.4573960000000  0.4533080000000  0.4557890000000 1.0
C      1  0.4826070000000  0.5080040000000  0.4069660000000 1.0
C      1  0.4368240000000  0.5569680000000  0.4789550000000 1.0
C      1  0.5304540000000  0.5312900000000  0.4275500000000 1.0
C      1  0.4620490000000  0.5123120000000  0.5771880000000 1.0
C      1  0.5509290000000  0.5109810000000  0.4971990000000 1.0
C      1  0.5154510000000  0.5029600000000  0.5796850000000 1.0
C      1  0.4725480000000  0.5328060000000  0.5017610000000 1.0
C      1  0.4321790000000  0.5230840000000  0.4418000000000 1.0
C      1  0.4490390000000  0.4142610000000  0.5196230000000 1.0
C      1  0.5392440000000  0.4115180000000  0.5579280000000 1.0
C      1  0.4247150000000  0.5333680000000  0.4673020000000 1.0
C      1  0.5119370000000  0.5146970000000  0.5214890000000 1.0
C      1  0.5245740000000  0.5166650000000  0.4508780000000 1.0
C      1  0.5552330000000  0.5672250000000  0.5661480000000 1.0
C      1  0.5366520000000  0.5261750000000  0.4756030000000 1.0
C      1  0.4767580000000  0.4527250000000  0.4341240000000 1.0
C      1  0.4087950000000  0.4458670000000  0.5557120000000 1.0
C      1  0.5217910000000  0.5500700000000  0.4844790000000 1.0
C      1  0.4819220000000  0.4542930000000  0.5152100000000 1.0
C      1  0.5516900000000  0.5768520000000  0.5185310000000 1.0
C      1  0.4464480000000  0.5782960000000  0.4638530000000 1.0
C      1  0.5403330000000  0.5184550000000  0.5236750000000 1.0
C      1  0.5264140000000  0.4762790000000  0.5774550000000 1.0
C      1  0.4257300000000  0.5266110000000  0.5140850000000 1.0
C      1  0.4399130000000  0.4777030000000  0.5299000000000 1.0
C      1  0.5530200000000  0.4810740000000  0.4987170000000 1.0
C      1  0.5043580000000  0.5738290000000  0.4169630000000 1.0
C      1  0.6055660000000  0.5176470000000  0.5020410000000 1.0
C      1  0.4232660000000  0.4863850000000  0.4790140000000 1.0
C      1  0.5401350000000  0.4383070000000  0.5501820000000 1.0
C      1  0.6017860000000  0.5268110000000  0.5285590000000 1.0
C      1  0.4774420000000  0.5045790000000  0.4336380000000 1.0
C      1  0.4907880000000  0.4976820000000  0.4796950000000 1.0
C      1  0.5044990000000  0.4518580000000  0.4295260000000 1.0
END
