TITL C-627113-6568-205 -0.000361043459769211 125000 -842.321711794372 0 0 137 (C1) n - 1
REM
REM in /home/nfs/bkarasulu/CARBON/AIRSS/Generating-Clusters/LCBOP/Only-C1/SD-CG/FIRE-CG
REM
REM
REM
REM
REM
REM ./C.cell (11c1c37f851c82e70ff6c80c92926a4b)
REM AIRSS Version 0.9.1 bugfix July 2018 build 013d7b7c2542+ Fri, 06 Jul 2018 19:26:36 +0100
REM compiler GCC version 9.2.1 20190827 (Red Hat 9.2.1-1)
REM options -cpp -mtune=generic -march=x86-64 -g -O0 -fpre-include=/usr/include/finclude/math-vector-fortran.h
REM seed -645567802 638047323 -47934097 638978390 2112656399 1144899182 1485336497 425915175 641274614 -1072990963 1935654642 2093353954 -401918892 -1367952583 -840517955 -198962844 -967254216 267196085 -2125905879 212794002 610267249 1824507830 -122555719 -1523380169 -199385293 -1325584497 1328890796 -779746179 -946472756 206098266 -587441884 -1500965064 741600448
REM
CELL 1.54180   50.00000   50.00000   50.00000   90.00000   90.00000   90.00000
LATT -1
SFAC C  
C      1  0.5124910000000  0.4561250000000  0.5372520000000 1.0
C      1  0.5496940000000  0.5835250000000  0.5589840000000 1.0
C      1  0.4148390000000  0.5640030000000  0.4759760000000 1.0
C      1  0.5621630000000  0.4072730000000  0.5825590000000 1.0
C      1  0.3474180000000  0.4333160000000  0.4534480000000 1.0
C      1  0.4663630000000  0.5475650000000  0.4053720000000 1.0
C      1  0.4792940000000  0.4223860000000  0.4590570000000 1.0
C      1  0.5781360000000  0.3921540000000  0.6258880000000 1.0
C      1  0.5798060000000  0.5743030000000  0.5136870000000 1.0
C      1  0.4828030000000  0.5432910000000  0.3819540000000 1.0
C      1  0.5459040000000  0.4988010000000  0.4507040000000 1.0
C      1  0.4870670000000  0.6318190000000  0.4886960000000 1.0
C      1  0.5660710000000  0.5697670000000  0.4415620000000 1.0
C      1  0.4966410000000  0.4684900000000  0.4915400000000 1.0
C      1  0.4906310000000  0.4233150000000  0.5762180000000 1.0
C      1  0.4118820000000  0.4535710000000  0.5272290000000 1.0
C      1  0.4015880000000  0.4921260000000  0.4595160000000 1.0
C      1  0.5442290000000  0.4852090000000  0.5621730000000 1.0
C      1  0.5450140000000  0.4856120000000  0.6100820000000 1.0
C      1  0.5514670000000  0.5978960000000  0.4745720000000 1.0
C      1  0.5777280000000  0.5301990000000  0.4708540000000 1.0
C      1  0.5595120000000  0.4383700000000  0.4662600000000 1.0
C      1  0.5821470000000  0.4604050000000  0.5061820000000 1.0
C      1  0.5623930000000  0.4377720000000  0.6201260000000 1.0
C      1  0.5630350000000  0.5152900000000  0.4076470000000 1.0
C      1  0.5300670000000  0.4046190000000  0.5439880000000 1.0
C      1  0.5008350000000  0.5269320000000  0.6278540000000 1.0
C      1  0.4530360000000  0.4223100000000  0.4714040000000 1.0
C      1  0.5082590000000  0.4430730000000  0.4185890000000 1.0
C      1  0.4649020000000  0.4344720000000  0.5638250000000 1.0
C      1  0.4318880000000  0.4762020000000  0.5715540000000 1.0
C      1  0.5442180000000  0.4722820000000  0.4095630000000 1.0
C      1  0.5214680000000  0.4852480000000  0.4543210000000 1.0
C      1  0.4989610000000  0.5233870000000  0.3723230000000 1.0
C      1  0.5602490000000  0.5021460000000  0.5159440000000 1.0
C      1  0.5738260000000  0.4361330000000  0.4914700000000 1.0
C      1  0.3894460000000  0.4160400000000  0.5075290000000 1.0
C      1  0.4246540000000  0.4916290000000  0.4429830000000 1.0
C      1  0.4837210000000  0.4383990000000  0.4352970000000 1.0
C      1  0.5338730000000  0.4454850000000  0.4753920000000 1.0
C      1  0.4923180000000  0.5207850000000  0.4439470000000 1.0
C      1  0.5006760000000  0.4090480000000  0.4730480000000 1.0
C      1  0.4692470000000  0.5711350000000  0.4240050000000 1.0
C      1  0.5004970000000  0.5697470000000  0.4818610000000 1.0
C      1  0.5546850000000  0.4632370000000  0.6209280000000 1.0
C      1  0.4363740000000  0.5810720000000  0.4696410000000 1.0
C      1  0.4642500000000  0.4234070000000  0.5372090000000 1.0
C      1  0.5404810000000  0.5262420000000  0.3946590000000 1.0
C      1  0.4242590000000  0.4746450000000  0.5423940000000 1.0
C      1  0.5377820000000  0.4462780000000  0.4212550000000 1.0
C      1  0.4721110000000  0.5566200000000  0.5311430000000 1.0
C      1  0.4730690000000  0.4728790000000  0.4033350000000 1.0
C      1  0.5832510000000  0.4904200000000  0.4992320000000 1.0
C      1  0.5176060000000  0.4671110000000  0.4743880000000 1.0
C      1  0.5086730000000  0.5382980000000  0.4290100000000 1.0
C      1  0.4955860000000  0.5262810000000  0.6010140000000 1.0
C      1  0.4894550000000  0.3868700000000  0.5134200000000 1.0
C      1  0.4409800000000  0.5895460000000  0.5457070000000 1.0
C      1  0.5216870000000  0.5085460000000  0.3815830000000 1.0
C      1  0.5174560000000  0.5332350000000  0.5087590000000 1.0
C      1  0.5634370000000  0.4886990000000  0.5412360000000 1.0
C      1  0.5295670000000  0.5739160000000  0.4044100000000 1.0
C      1  0.5571710000000  0.4426830000000  0.5499540000000 1.0
C      1  0.4453330000000  0.5985230000000  0.4914010000000 1.0
C      1  0.5341650000000  0.4040430000000  0.5142730000000 1.0
C      1  0.4605220000000  0.4645080000000  0.5720660000000 1.0
C      1  0.4551030000000  0.5121520000000  0.5119320000000 1.0
C      1  0.4482410000000  0.4866170000000  0.5270570000000 1.0
C      1  0.4113380000000  0.4327940000000  0.5072200000000 1.0
C      1  0.5879310000000  0.3733720000000  0.6410700000000 1.0
C      1  0.4477550000000  0.5772600000000  0.4432350000000 1.0
C      1  0.4816010000000  0.4001880000000  0.5367250000000 1.0
C      1  0.4486050000000  0.5215140000000  0.5873250000000 1.0
C      1  0.5223880000000  0.4814040000000  0.3912400000000 1.0
C      1  0.4942840000000  0.5851080000000  0.4337730000000 1.0
C      1  0.5302260000000  0.6052170000000  0.4917500000000 1.0
C      1  0.4624370000000  0.4985190000000  0.3983300000000 1.0
C      1  0.5269740000000  0.5464330000000  0.4086480000000 1.0
C      1  0.5958030000000  0.5150690000000  0.4883230000000 1.0
C      1  0.4743560000000  0.5657530000000  0.5801790000000 1.0
C      1  0.5519100000000  0.5176240000000  0.4714620000000 1.0
C      1  0.4786830000000  0.4646930000000  0.5962260000000 1.0
C      1  0.5713250000000  0.5788660000000  0.4863930000000 1.0
C      1  0.4720250000000  0.5292970000000  0.5260610000000 1.0
C      1  0.6097670000000  0.5322720000000  0.5061870000000 1.0
C      1  0.4909030000000  0.5855430000000  0.4617880000000 1.0
C      1  0.4963660000000  0.4524360000000  0.5151000000000 1.0
C      1  0.4824460000000  0.5250740000000  0.4703240000000 1.0
C      1  0.4286850000000  0.5007120000000  0.5868210000000 1.0
C      1  0.5072750000000  0.5159740000000  0.5552780000000 1.0
C      1  0.5133650000000  0.5139850000000  0.5825060000000 1.0
C      1  0.5658770000000  0.5823850000000  0.5372860000000 1.0
C      1  0.5598160000000  0.4141060000000  0.5053040000000 1.0
C      1  0.4399320000000  0.4681510000000  0.4384660000000 1.0
C      1  0.5743030000000  0.4609210000000  0.5347750000000 1.0
C      1  0.6014640000000  0.5559190000000  0.5164660000000 1.0
C      1  0.4706110000000  0.4787540000000  0.4856400000000 1.0
C      1  0.4628110000000  0.4574390000000  0.4259880000000 1.0
C      1  0.4628830000000  0.6203190000000  0.4870170000000 1.0
C      1  0.4314800000000  0.4272730000000  0.4872640000000 1.0
C      1  0.4331720000000  0.5158840000000  0.4307120000000 1.0
C      1  0.4689130000000  0.4428200000000  0.5175500000000 1.0
C      1  0.5417100000000  0.5171810000000  0.4994860000000 1.0
C      1  0.5577980000000  0.4349340000000  0.4382530000000 1.0
C      1  0.5573120000000  0.4934180000000  0.4245970000000 1.0
C      1  0.4995480000000  0.5416140000000  0.4850540000000 1.0
C      1  0.4715150000000  0.5385430000000  0.5906030000000 1.0
C      1  0.5177700000000  0.5819320000000  0.5011230000000 1.0
C      1  0.3836800000000  0.4707950000000  0.4600080000000 1.0
C      1  0.5335550000000  0.4593820000000  0.5549860000000 1.0
C      1  0.5225930000000  0.5893750000000  0.4271170000000 1.0
C      1  0.4386150000000  0.5935630000000  0.5189810000000 1.0
C      1  0.4953240000000  0.4422920000000  0.5974890000000 1.0
C      1  0.5104800000000  0.3981360000000  0.4976780000000 1.0
C      1  0.3966140000000  0.5155880000000  0.4739850000000 1.0
C      1  0.3654100000000  0.4518520000000  0.4569600000000 1.0
C      1  0.4999690000000  0.4643470000000  0.3980600000000 1.0
C      1  0.4970020000000  0.5673710000000  0.5399690000000 1.0
C      1  0.5676460000000  0.4122540000000  0.6096400000000 1.0
C      1  0.4520470000000  0.5800400000000  0.5686910000000 1.0
C      1  0.4524130000000  0.5223010000000  0.4112740000000 1.0
C      1  0.4706910000000  0.4813380000000  0.5487510000000 1.0
C      1  0.5186860000000  0.5628940000000  0.5219850000000 1.0
C      1  0.4992540000000  0.5198950000000  0.5290880000000 1.0
C      1  0.5356730000000  0.4970500000000  0.5863920000000 1.0
C      1  0.5136500000000  0.6279450000000  0.4907290000000 1.0
C      1  0.5266720000000  0.5807360000000  0.5733040000000 1.0
C      1  0.5453450000000  0.5904380000000  0.4461890000000 1.0
C      1  0.4654360000000  0.5068760000000  0.4847980000000 1.0
C      1  0.4056870000000  0.5041060000000  0.6014470000000 1.0
C      1  0.5033880000000  0.4055030000000  0.5561780000000 1.0
C      1  0.4544810000000  0.4651140000000  0.5060870000000 1.0
C      1  0.5524150000000  0.4160830000000  0.5579930000000 1.0
C      1  0.5772240000000  0.5582430000000  0.4656460000000 1.0
C      1  0.5000180000000  0.5727650000000  0.5676150000000 1.0
C      1  0.4994920000000  0.4942790000000  0.4401420000000 1.0
C      1  0.4014730000000  0.5412540000000  0.4788240000000 1.0
END
