TITL C-627107-135-707 0.000852646577762667 125000 -97.1715251423891 0 0 18 (C1) n - 1
REM
REM in /home/nfs/bkarasulu/CARBON/AIRSS/Generating-Clusters/LCBOP/Only-C1/SD-CG/FIRE-CG
REM
REM
REM
REM
REM
REM ./C.cell (11c1c37f851c82e70ff6c80c92926a4b)
REM AIRSS Version 0.9.1 bugfix July 2018 build 013d7b7c2542+ Fri, 06 Jul 2018 19:26:36 +0100
REM compiler GCC version 9.2.1 20190827 (Red Hat 9.2.1-1)
REM options -cpp -mtune=generic -march=x86-64 -g -O0 -fpre-include=/usr/include/finclude/math-vector-fortran.h
REM seed 1046300522 1500576949 -147013851 -1994717007 -2044602303 1256220597 151544489 -707809821 -1502090307 -1996730969 -1474936737 758199464 1834521196 -1544527211 -2048440469 -1171163618 1304253954 -1346485283 513500417 -2045100756 -412572974 929472212 -951815552 142308365 390990100 -2011826145 1769637207 -556630470 1696568304 304337274 1833511853 1471429723 -1087449270
REM
CELL 1.54180   50.00000   50.00000   50.00000   90.00000   90.00000   90.00000
LATT -1
SFAC C  
C      1  0.5314050000000  0.4936750000000  0.4888070000000 1.0
C      1  0.5256040000000  0.5175630000000  0.4737620000000 1.0
C      1  0.4465230000000  0.4873450000000  0.5308860000000 1.0
C      1  0.4428950000000  0.5348400000000  0.5373580000000 1.0
C      1  0.4563360000000  0.5132690000000  0.5272370000000 1.0
C      1  0.5119240000000  0.5294780000000  0.5474300000000 1.0
C      1  0.5430650000000  0.5377250000000  0.4686500000000 1.0
C      1  0.4805020000000  0.5169130000000  0.5128330000000 1.0
C      1  0.4383270000000  0.4627900000000  0.5338960000000 1.0
C      1  0.4798970000000  0.5230240000000  0.4852320000000 1.0
C      1  0.5291120000000  0.4694450000000  0.4733060000000 1.0
C      1  0.5087240000000  0.4709430000000  0.4533410000000 1.0
C      1  0.5376240000000  0.4775840000000  0.5342340000000 1.0
C      1  0.5450180000000  0.4476350000000  0.4768990000000 1.0
C      1  0.4937860000000  0.4933340000000  0.4486830000000 1.0
C      1  0.5058160000000  0.5135160000000  0.5259380000000 1.0
C      1  0.4981670000000  0.5163890000000  0.4648740000000 1.0
C      1  0.5252750000000  0.4945320000000  0.5166360000000 1.0
END
