TITL C-627110-360-375 1.05185319743636e-06 125000 -1047.1796299102 0 0 172 (C1) n - 1
REM
REM in /home/nfs/bkarasulu/CARBON/AIRSS/Generating-Clusters/LCBOP/Only-C1/SD-CG/FIRE-CG
REM
REM
REM
REM
REM
REM ./C.cell (11c1c37f851c82e70ff6c80c92926a4b)
REM AIRSS Version 0.9.1 bugfix July 2018 build 013d7b7c2542+ Fri, 06 Jul 2018 19:26:36 +0100
REM compiler GCC version 9.2.1 20190827 (Red Hat 9.2.1-1)
REM options -cpp -mtune=generic -march=x86-64 -g -O0 -fpre-include=/usr/include/finclude/math-vector-fortran.h
REM seed -143612019 -547982166 -610681164 -1911544045 1122794654 -1160384800 429505591 1471124691 -1967677997 -688862122 -1756791523 1863291382 -190895611 -1600942495 1958305662 -995465561 -1981176422 1354768680 -441329782 86252365 -2051840999 908867855 1662529575 76454977 1148543475 -2038128612 -1516853023 -690439016 -957287712 -599973335 -970829651 1980247129 -88346395
REM
CELL 1.54180   50.00000   50.00000   50.00000   90.00000   90.00000   90.00000
LATT -1
SFAC C  
C      1  0.4918480000000  0.5281540000000  0.6290460000000 1.0
C      1  0.5705640000000  0.4896970000000  0.4868060000000 1.0
C      1  0.6038700000000  0.5516160000000  0.4278350000000 1.0
C      1  0.4141240000000  0.5251470000000  0.4403450000000 1.0
C      1  0.5567950000000  0.6003600000000  0.4335920000000 1.0
C      1  0.5177060000000  0.6191950000000  0.4965750000000 1.0
C      1  0.5875920000000  0.4700120000000  0.5322140000000 1.0
C      1  0.5025800000000  0.3908770000000  0.3948910000000 1.0
C      1  0.5019190000000  0.5475000000000  0.4318350000000 1.0
C      1  0.4021220000000  0.4839550000000  0.4637210000000 1.0
C      1  0.5000360000000  0.4047400000000  0.4182520000000 1.0
C      1  0.5118610000000  0.5090060000000  0.4938240000000 1.0
C      1  0.5324850000000  0.5122810000000  0.5896740000000 1.0
C      1  0.4336070000000  0.4991530000000  0.5854850000000 1.0
C      1  0.4271490000000  0.5223260000000  0.5711410000000 1.0
C      1  0.5714330000000  0.4879390000000  0.5158680000000 1.0
C      1  0.5548000000000  0.5270530000000  0.3758220000000 1.0
C      1  0.4155040000000  0.5870200000000  0.5561250000000 1.0
C      1  0.4671540000000  0.4748750000000  0.4972470000000 1.0
C      1  0.4760250000000  0.4625460000000  0.5903820000000 1.0
C      1  0.4752660000000  0.4452090000000  0.4920250000000 1.0
C      1  0.5296600000000  0.4438210000000  0.4051360000000 1.0
C      1  0.5003910000000  0.4895250000000  0.5574310000000 1.0
C      1  0.4340350000000  0.4176120000000  0.5679310000000 1.0
C      1  0.3998710000000  0.4247300000000  0.4037100000000 1.0
C      1  0.4840040000000  0.4696050000000  0.4326520000000 1.0
C      1  0.4982730000000  0.4247190000000  0.4956640000000 1.0
C      1  0.6186150000000  0.4732980000000  0.4861430000000 1.0
C      1  0.5289180000000  0.4653560000000  0.5833730000000 1.0
C      1  0.5980440000000  0.5678080000000  0.4501650000000 1.0
C      1  0.4553310000000  0.4190980000000  0.5855300000000 1.0
C      1  0.5460350000000  0.5016660000000  0.4372570000000 1.0
C      1  0.5378880000000  0.5287700000000  0.5280930000000 1.0
C      1  0.4431270000000  0.5446170000000  0.4925580000000 1.0
C      1  0.5924380000000  0.5179610000000  0.5674810000000 1.0
C      1  0.6144870000000  0.5209600000000  0.5139410000000 1.0
C      1  0.4198730000000  0.4620440000000  0.5056320000000 1.0
C      1  0.5532010000000  0.3942310000000  0.5272960000000 1.0
C      1  0.6223300000000  0.4969920000000  0.4995890000000 1.0
C      1  0.4227090000000  0.4291950000000  0.4180190000000 1.0
C      1  0.5110120000000  0.4304440000000  0.4220140000000 1.0
C      1  0.5289980000000  0.4091320000000  0.5302290000000 1.0
C      1  0.5319850000000  0.5929740000000  0.4468840000000 1.0
C      1  0.3939810000000  0.4190810000000  0.5119490000000 1.0
C      1  0.3981400000000  0.5756800000000  0.5368700000000 1.0
C      1  0.5439700000000  0.4549160000000  0.6258060000000 1.0
C      1  0.5442730000000  0.4535760000000  0.5635570000000 1.0
C      1  0.5220420000000  0.4645320000000  0.4867970000000 1.0
C      1  0.4512420000000  0.4057810000000  0.4722440000000 1.0
C      1  0.4096380000000  0.4577900000000  0.5674760000000 1.0
C      1  0.5513270000000  0.4562490000000  0.4194700000000 1.0
C      1  0.5477260000000  0.4044320000000  0.5830510000000 1.0
C      1  0.5718310000000  0.5149120000000  0.4746610000000 1.0
C      1  0.3958940000000  0.5369130000000  0.5061490000000 1.0
C      1  0.5306790000000  0.5159140000000  0.3783490000000 1.0
C      1  0.5156210000000  0.4528940000000  0.4639370000000 1.0
C      1  0.5760790000000  0.4437700000000  0.4790000000000 1.0
C      1  0.5660800000000  0.4706040000000  0.6224810000000 1.0
C      1  0.5866380000000  0.4679560000000  0.5604090000000 1.0
C      1  0.4983090000000  0.4789650000000  0.3875750000000 1.0
C      1  0.4448550000000  0.4794330000000  0.5200880000000 1.0
C      1  0.5379810000000  0.5504350000000  0.5455110000000 1.0
C      1  0.4483380000000  0.4688470000000  0.4070480000000 1.0
C      1  0.5959200000000  0.5414670000000  0.4045130000000 1.0
C      1  0.5240840000000  0.4491490000000  0.6063460000000 1.0
C      1  0.5568480000000  0.6168890000000  0.4112210000000 1.0
C      1  0.6023640000000  0.4494890000000  0.4912500000000 1.0
C      1  0.5567490000000  0.4747110000000  0.4408430000000 1.0
C      1  0.4507010000000  0.5471310000000  0.4656030000000 1.0
C      1  0.5400730000000  0.5608460000000  0.4831730000000 1.0
C      1  0.5103470000000  0.4115280000000  0.5515400000000 1.0
C      1  0.6061470000000  0.5595890000000  0.4761120000000 1.0
C      1  0.4857640000000  0.6060490000000  0.5551260000000 1.0
C      1  0.5788530000000  0.5400920000000  0.5808430000000 1.0
C      1  0.4765180000000  0.4782960000000  0.5664110000000 1.0
C      1  0.4354470000000  0.5278570000000  0.5450320000000 1.0
C      1  0.4693010000000  0.5150100000000  0.6224550000000 1.0
C      1  0.4400470000000  0.4083190000000  0.4253280000000 1.0
C      1  0.5708700000000  0.4450410000000  0.5681020000000 1.0
C      1  0.5144590000000  0.5015290000000  0.3962310000000 1.0
C      1  0.4377480000000  0.4963390000000  0.3144450000000 1.0
C      1  0.5490450000000  0.5865830000000  0.4907470000000 1.0
C      1  0.4460090000000  0.5536140000000  0.5399550000000 1.0
C      1  0.5017970000000  0.3866280000000  0.4634150000000 1.0
C      1  0.5429860000000  0.5485630000000  0.4575280000000 1.0
C      1  0.4573710000000  0.4832290000000  0.3614100000000 1.0
C      1  0.5535750000000  0.5724600000000  0.5373790000000 1.0
C      1  0.6065280000000  0.5213060000000  0.5420250000000 1.0
C      1  0.5165800000000  0.5384100000000  0.6249270000000 1.0
C      1  0.4535080000000  0.3720190000000  0.5095280000000 1.0
C      1  0.5310580000000  0.6045000000000  0.4746630000000 1.0
C      1  0.4914370000000  0.3971290000000  0.4878580000000 1.0
C      1  0.4860140000000  0.3940180000000  0.4404430000000 1.0
C      1  0.4279720000000  0.6036180000000  0.4887380000000 1.0
C      1  0.4200600000000  0.4629680000000  0.4536900000000 1.0
C      1  0.4423460000000  0.5776990000000  0.5552470000000 1.0
C      1  0.4201100000000  0.6226710000000  0.4680370000000 1.0
C      1  0.3978870000000  0.5652040000000  0.5105530000000 1.0
C      1  0.4155440000000  0.4342820000000  0.5527230000000 1.0
C      1  0.5319900000000  0.5989740000000  0.5726270000000 1.0
C      1  0.4515520000000  0.4330000000000  0.4795470000000 1.0
C      1  0.5807050000000  0.5895450000000  0.4445780000000 1.0
C      1  0.5241310000000  0.5638700000000  0.4412650000000 1.0
C      1  0.4099720000000  0.4377970000000  0.5241990000000 1.0
C      1  0.4540910000000  0.6018190000000  0.4992280000000 1.0
C      1  0.3994550000000  0.6237110000000  0.5921200000000 1.0
C      1  0.5578300000000  0.4249050000000  0.4916750000000 1.0
C      1  0.4552910000000  0.5025840000000  0.4521200000000 1.0
C      1  0.4955770000000  0.5102340000000  0.4717150000000 1.0
C      1  0.4311580000000  0.5078250000000  0.5244660000000 1.0
C      1  0.4046310000000  0.5840800000000  0.4903520000000 1.0
C      1  0.4748230000000  0.5620870000000  0.4635610000000 1.0
C      1  0.4474270000000  0.4898140000000  0.3377550000000 1.0
C      1  0.5457200000000  0.3557920000000  0.4596830000000 1.0
C      1  0.4406490000000  0.5265980000000  0.4493510000000 1.0
C      1  0.4307380000000  0.4758090000000  0.5689900000000 1.0
C      1  0.4540440000000  0.4695060000000  0.5483760000000 1.0
C      1  0.5561050000000  0.5537440000000  0.5933570000000 1.0
C      1  0.4707190000000  0.5797060000000  0.5055190000000 1.0
C      1  0.5141570000000  0.5555630000000  0.4948540000000 1.0
C      1  0.4550060000000  0.5576930000000  0.5142150000000 1.0
C      1  0.4581000000000  0.3998920000000  0.4449100000000 1.0
C      1  0.5255440000000  0.6108000000000  0.5242290000000 1.0
C      1  0.4961500000000  0.5545080000000  0.5799640000000 1.0
C      1  0.4068340000000  0.6058980000000  0.5745870000000 1.0
C      1  0.5481090000000  0.5926340000000  0.5187220000000 1.0
C      1  0.4697510000000  0.4960830000000  0.4768960000000 1.0
C      1  0.4769820000000  0.5719400000000  0.5865130000000 1.0
C      1  0.3864800000000  0.5924330000000  0.4690640000000 1.0
C      1  0.5550820000000  0.5234250000000  0.4538330000000 1.0
C      1  0.4027710000000  0.4861960000000  0.4932450000000 1.0
C      1  0.5199880000000  0.4910020000000  0.5776020000000 1.0
C      1  0.5471730000000  0.5807700000000  0.5867020000000 1.0
C      1  0.4783720000000  0.4343240000000  0.5947510000000 1.0
C      1  0.4903690000000  0.5692820000000  0.4870360000000 1.0
C      1  0.5156680000000  0.5512270000000  0.5623000000000 1.0
C      1  0.5142110000000  0.6079800000000  0.5508740000000 1.0
C      1  0.6007380000000  0.4483980000000  0.5195380000000 1.0
C      1  0.5091710000000  0.4820640000000  0.5319760000000 1.0
C      1  0.5254020000000  0.4252220000000  0.5058310000000 1.0
C      1  0.5814110000000  0.4849450000000  0.6053210000000 1.0
C      1  0.3959480000000  0.6153140000000  0.4566470000000 1.0
C      1  0.4493470000000  0.5032820000000  0.6086950000000 1.0
C      1  0.5161750000000  0.4839910000000  0.5053160000000 1.0
C      1  0.3963880000000  0.5061020000000  0.4474080000000 1.0
C      1  0.4988190000000  0.5164600000000  0.4409050000000 1.0
C      1  0.5887470000000  0.4906860000000  0.5782140000000 1.0
C      1  0.5006670000000  0.4487910000000  0.4409870000000 1.0
C      1  0.4641220000000  0.3894980000000  0.4919140000000 1.0
C      1  0.4073680000000  0.5108480000000  0.5075760000000 1.0
C      1  0.4300440000000  0.4558810000000  0.4263850000000 1.0
C      1  0.5212230000000  0.5047720000000  0.4240700000000 1.0
C      1  0.4654720000000  0.4410200000000  0.5416240000000 1.0
C      1  0.4293720000000  0.4494870000000  0.4779800000000 1.0
C      1  0.5706860000000  0.4187600000000  0.5785520000000 1.0
C      1  0.4758940000000  0.4969990000000  0.4324100000000 1.0
C      1  0.5365940000000  0.5355130000000  0.6050300000000 1.0
C      1  0.4855330000000  0.5565990000000  0.4118640000000 1.0
C      1  0.5684590000000  0.4022390000000  0.5058580000000 1.0
C      1  0.5567820000000  0.6319600000000  0.3899600000000 1.0
C      1  0.4658860000000  0.5889740000000  0.5669090000000 1.0
C      1  0.5243200000000  0.3704820000000  0.4619800000000 1.0
C      1  0.5196700000000  0.4096860000000  0.5789630000000 1.0
C      1  0.5783080000000  0.5346920000000  0.3857360000000 1.0
C      1  0.5179290000000  0.5312500000000  0.5083680000000 1.0
C      1  0.4685340000000  0.4766490000000  0.3865680000000 1.0
C      1  0.4849460000000  0.4226860000000  0.5451560000000 1.0
C      1  0.5666570000000  0.4681100000000  0.4675220000000 1.0
C      1  0.5157340000000  0.4564570000000  0.3837240000000 1.0
C      1  0.5064650000000  0.4269100000000  0.5985260000000 1.0
C      1  0.5560710000000  0.5077610000000  0.5287040000000 1.0
C      1  0.6113890000000  0.5443320000000  0.4977030000000 1.0
END
