TITL C-627107-135-1627 -35.6716344781139 125000 -1154.43857822009 0 0 188 (C1) n - 1
REM
REM in /home/nfs/bkarasulu/CARBON/AIRSS/Generating-Clusters/LCBOP/Only-C1/SD-CG/FIRE-CG
REM
REM
REM
REM
REM
REM ./C.cell (11c1c37f851c82e70ff6c80c92926a4b)
REM AIRSS Version 0.9.1 bugfix July 2018 build 013d7b7c2542+ Fri, 06 Jul 2018 19:26:36 +0100
REM compiler GCC version 9.2.1 20190827 (Red Hat 9.2.1-1)
REM options -cpp -mtune=generic -march=x86-64 -g -O0 -fpre-include=/usr/include/finclude/math-vector-fortran.h
REM seed -75505535 1380564614 -1143860215 -1503072614 -862391521 -1181107040 214247006 -696465612 -1026485402 -1288192304 258424847 928566371 1204749051 -710873446 -1486250647 -935603509 -884865864 542746181 1884274103 750795875 2014355678 926048609 745146818 -287295936 -243723617 151541189 1943493164 405414578 -2141965132 -1019411205 1549795052 382420344 1420219949
REM
CELL 1.54180   50.00000   50.00000   50.00000   90.00000   90.00000   90.00000
LATT -1
SFAC C  
C      1  0.4290410000000  0.5179580000000  0.5113350000000 1.0
C      1  0.5803800000000  0.5895550000000  0.5287050000000 1.0
C      1  0.5089450000000  0.5943500000000  0.5935780000000 1.0
C      1  0.4519260000000  0.4792540000000  0.4601450000000 1.0
C      1  0.3779520000000  0.5642920000000  0.5945570000000 1.0
C      1  0.5979680000000  0.5928030000000  0.4829830000000 1.0
C      1  0.5227640000000  0.6294020000000  0.5162350000000 1.0
C      1  0.4484510000000  0.5400370000000  0.5112390000000 1.0
C      1  0.5084260000000  0.5750410000000  0.5302630000000 1.0
C      1  0.5924580000000  0.5199600000000  0.5612440000000 1.0
C      1  0.5470440000000  0.5589990000000  0.4807520000000 1.0
C      1  0.3828830000000  0.4144170000000  0.6038460000000 1.0
C      1  0.4739370000000  0.4896900000000  0.6196300000000 1.0
C      1  0.4930230000000  0.3930400000000  0.5499840000000 1.0
C      1  0.4359200000000  0.4110590000000  0.4414800000000 1.0
C      1  0.5184170000000  0.4957250000000  0.4635880000000 1.0
C      1  0.6152340000000  0.4916340000000  0.4827020000000 1.0
C      1  0.4480650000000  0.5914410000000  0.4560110000000 1.0
C      1  0.4636140000000  0.5733710000000  0.4405880000000 1.0
C      1  0.5430340000000  0.5064930000000  0.4740780000000 1.0
C      1  0.5481940000000  0.6406740000000  0.5114580000000 1.0
C      1  0.4579180000000  0.5694830000000  0.5543500000000 1.0
C      1  0.4262820000000  0.4777410000000  0.5383700000000 1.0
C      1  0.5135650000000  0.6232790000000  0.5421730000000 1.0
C      1  0.3665850000000  0.5050970000000  0.4755330000000 1.0
C      1  0.5549840000000  0.6064890000000  0.5728230000000 1.0
C      1  0.6157610000000  0.4518300000000  0.5327220000000 1.0
C      1  0.5705830000000  0.5486450000000  0.5916430000000 1.0
C      1  0.4160700000000  0.4145440000000  0.4856720000000 1.0
C      1  0.5251360000000  0.4690880000000  0.4612230000000 1.0
C      1  0.4372520000000  0.5869450000000  0.5469750000000 1.0
C      1  0.5594310000000  0.4303870000000  0.5480290000000 1.0
C      1  0.6132860000000  0.5625770000000  0.4196320000000 1.0
C      1  0.5209150000000  0.4781820000000  0.3911870000000 1.0
C      1  0.5091230000000  0.5972060000000  0.5485700000000 1.0
C      1  0.5448680000000  0.5482350000000  0.6028450000000 1.0
C      1  0.4453770000000  0.5045450000000  0.4450570000000 1.0
C      1  0.4922460000000  0.5305650000000  0.4440280000000 1.0
C      1  0.4319360000000  0.4751330000000  0.4076870000000 1.0
C      1  0.3810300000000  0.4778630000000  0.5171270000000 1.0
C      1  0.5398740000000  0.4480020000000  0.6108950000000 1.0
C      1  0.5327470000000  0.6064140000000  0.5882640000000 1.0
C      1  0.3894600000000  0.5037900000000  0.5565040000000 1.0
C      1  0.3807850000000  0.5562750000000  0.5125910000000 1.0
C      1  0.5111380000000  0.4358620000000  0.5277690000000 1.0
C      1  0.3931500000000  0.5437370000000  0.5847560000000 1.0
C      1  0.3979830000000  0.4835810000000  0.5388290000000 1.0
C      1  0.4987620000000  0.5676630000000  0.5908940000000 1.0
C      1  0.4169050000000  0.4191950000000  0.5622940000000 1.0
C      1  0.4599000000000  0.4018710000000  0.4288630000000 1.0
C      1  0.4875280000000  0.4300350000000  0.3929980000000 1.0
C      1  0.4438170000000  0.4791980000000  0.5836280000000 1.0
C      1  0.5201910000000  0.5891230000000  0.4147290000000 1.0
C      1  0.5684850000000  0.4538650000000  0.6107740000000 1.0
C      1  0.5190600000000  0.5452150000000  0.4025600000000 1.0
C      1  0.5260320000000  0.4798090000000  0.5134610000000 1.0
C      1  0.4791420000000  0.5273810000000  0.5577500000000 1.0
C      1  0.5407020000000  0.5056490000000  0.5604390000000 1.0
C      1  0.5386380000000  0.5014310000000  0.5020130000000 1.0
C      1  0.5727940000000  0.5505700000000  0.4973800000000 1.0
C      1  0.3815020000000  0.5207570000000  0.4573300000000 1.0
C      1  0.4639590000000  0.4313610000000  0.4747030000000 1.0
C      1  0.5164500000000  0.5015630000000  0.5737810000000 1.0
C      1  0.5832570000000  0.5066000000000  0.4410580000000 1.0
C      1  0.5517860000000  0.4580980000000  0.5462020000000 1.0
C      1  0.6041330000000  0.5725070000000  0.4656810000000 1.0
C      1  0.5538380000000  0.5172910000000  0.5185430000000 1.0
C      1  0.5830770000000  0.4323230000000  0.4712140000000 1.0
C      1  0.4705870000000  0.5061420000000  0.4007990000000 1.0
C      1  0.5315560000000  0.6044500000000  0.4766000000000 1.0
C      1  0.4588370000000  0.4795480000000  0.3947190000000 1.0
C      1  0.6248150000000  0.5108730000000  0.4646410000000 1.0
C      1  0.5182950000000  0.4543650000000  0.4390000000000 1.0
C      1  0.3926630000000  0.4224430000000  0.4715230000000 1.0
C      1  0.6075220000000  0.5527380000000  0.4447930000000 1.0
C      1  0.4783640000000  0.3706570000000  0.4670540000000 1.0
C      1  0.5722550000000  0.5905470000000  0.5572430000000 1.0
C      1  0.5271090000000  0.4630130000000  0.4131550000000 1.0
C      1  0.4409260000000  0.4937160000000  0.5194110000000 1.0
C      1  0.4914220000000  0.4253250000000  0.4863930000000 1.0
C      1  0.3967800000000  0.5636950000000  0.4901970000000 1.0
C      1  0.5470630000000  0.5339280000000  0.4349110000000 1.0
C      1  0.4511050000000  0.4961390000000  0.6046550000000 1.0
C      1  0.5132820000000  0.5242780000000  0.3843890000000 1.0
C      1  0.4178840000000  0.5150910000000  0.4857180000000 1.0
C      1  0.4221310000000  0.4956890000000  0.4265620000000 1.0
C      1  0.4830400000000  0.3750240000000  0.4945880000000 1.0
C      1  0.4855660000000  0.4799410000000  0.5452070000000 1.0
C      1  0.5835830000000  0.5615460000000  0.5224520000000 1.0
C      1  0.4773380000000  0.5117120000000  0.4870810000000 1.0
C      1  0.5604230000000  0.4840580000000  0.5555290000000 1.0
C      1  0.5060670000000  0.5700720000000  0.3991520000000 1.0
C      1  0.5428270000000  0.5826430000000  0.4631370000000 1.0
C      1  0.5864310000000  0.5034110000000  0.6085170000000 1.0
C      1  0.5248670000000  0.4208260000000  0.4711260000000 1.0
C      1  0.5348220000000  0.4265150000000  0.5917670000000 1.0
C      1  0.5593530000000  0.4222210000000  0.5754160000000 1.0
C      1  0.4640850000000  0.4544660000000  0.4579560000000 1.0
C      1  0.5326530000000  0.5028000000000  0.3856120000000 1.0
C      1  0.6064550000000  0.5236570000000  0.4472990000000 1.0
C      1  0.6070080000000  0.4402370000000  0.4863990000000 1.0
C      1  0.4195020000000  0.5820800000000  0.4976060000000 1.0
C      1  0.4830640000000  0.3673860000000  0.5427650000000 1.0
C      1  0.4734020000000  0.4237700000000  0.4170670000000 1.0
C      1  0.3936180000000  0.5471940000000  0.4658510000000 1.0
C      1  0.4214460000000  0.4488220000000  0.4113780000000 1.0
C      1  0.5890280000000  0.4971000000000  0.4930890000000 1.0
C      1  0.4791860000000  0.5605680000000  0.3942890000000 1.0
C      1  0.3682360000000  0.4877400000000  0.4958240000000 1.0
C      1  0.5857160000000  0.6059850000000  0.5058420000000 1.0
C      1  0.4914260000000  0.5027210000000  0.5608540000000 1.0
C      1  0.5496370000000  0.4636630000000  0.4753410000000 1.0
C      1  0.3863770000000  0.5315030000000  0.5599220000000 1.0
C      1  0.5650250000000  0.4172530000000  0.5219740000000 1.0
C      1  0.3918660000000  0.4282480000000  0.4450000000000 1.0
C      1  0.4661820000000  0.4907420000000  0.5050310000000 1.0
C      1  0.4724160000000  0.4472530000000  0.4326520000000 1.0
C      1  0.4147810000000  0.4051170000000  0.5116210000000 1.0
C      1  0.5231870000000  0.5509480000000  0.5368010000000 1.0
C      1  0.5007820000000  0.5172750000000  0.4696210000000 1.0
C      1  0.4600900000000  0.5455440000000  0.5360170000000 1.0
C      1  0.5138480000000  0.6098370000000  0.4971190000000 1.0
C      1  0.4876200000000  0.4085800000000  0.5729980000000 1.0
C      1  0.4970290000000  0.4773930000000  0.6249250000000 1.0
C      1  0.5191100000000  0.5370540000000  0.4301040000000 1.0
C      1  0.5242780000000  0.4256120000000  0.4429090000000 1.0
C      1  0.3961760000000  0.5057420000000  0.4359630000000 1.0
C      1  0.5037570000000  0.4078760000000  0.5282570000000 1.0
C      1  0.4177940000000  0.5468780000000  0.4499110000000 1.0
C      1  0.5550310000000  0.4212230000000  0.4886290000000 1.0
C      1  0.5500530000000  0.4451160000000  0.4096240000000 1.0
C      1  0.4748380000000  0.5526580000000  0.4566900000000 1.0
C      1  0.5592680000000  0.5169750000000  0.4539770000000 1.0
C      1  0.6075410000000  0.4742840000000  0.5449150000000 1.0
C      1  0.5137420000000  0.4174570000000  0.3941580000000 1.0
C      1  0.5097860000000  0.4147980000000  0.5888720000000 1.0
C      1  0.6211050000000  0.4640680000000  0.4798310000000 1.0
C      1  0.3787790000000  0.5466710000000  0.5374330000000 1.0
C      1  0.4594900000000  0.5371670000000  0.4811870000000 1.0
C      1  0.5349490000000  0.4194160000000  0.4147410000000 1.0
C      1  0.5771240000000  0.5219710000000  0.5024870000000 1.0
C      1  0.4919360000000  0.4471640000000  0.5085290000000 1.0
C      1  0.4814390000000  0.4714800000000  0.5181920000000 1.0
C      1  0.5288340000000  0.4578920000000  0.5304640000000 1.0
C      1  0.5195040000000  0.4632480000000  0.6223590000000 1.0
C      1  0.4126860000000  0.4064670000000  0.5379220000000 1.0
C      1  0.5180600000000  0.5493080000000  0.6008290000000 1.0
C      1  0.6099470000000  0.4318040000000  0.5135050000000 1.0
C      1  0.5879790000000  0.4928360000000  0.5529390000000 1.0
C      1  0.4693110000000  0.5887420000000  0.4987390000000 1.0
C      1  0.4399900000000  0.4158980000000  0.4702440000000 1.0
C      1  0.5380240000000  0.5854020000000  0.4351080000000 1.0
C      1  0.5857320000000  0.5240540000000  0.5897490000000 1.0
C      1  0.5729790000000  0.4578690000000  0.4219050000000 1.0
C      1  0.4444090000000  0.5890260000000  0.4839890000000 1.0
C      1  0.5617180000000  0.5324440000000  0.4098810000000 1.0
C      1  0.4638690000000  0.4236420000000  0.5733660000000 1.0
C      1  0.5887510000000  0.5459010000000  0.5471750000000 1.0
C      1  0.4153560000000  0.5344910000000  0.5993090000000 1.0
C      1  0.5594850000000  0.5057890000000  0.3980620000000 1.0
C      1  0.5798180000000  0.4341440000000  0.5926780000000 1.0
C      1  0.4353780000000  0.5261100000000  0.4636080000000 1.0
C      1  0.4154760000000  0.4275580000000  0.4291680000000 1.0
C      1  0.4837880000000  0.5259130000000  0.3848590000000 1.0
C      1  0.5401110000000  0.5275800000000  0.5409640000000 1.0
C      1  0.3992280000000  0.4161980000000  0.5836270000000 1.0
C      1  0.4593750000000  0.5692020000000  0.4120880000000 1.0
C      1  0.5219500000000  0.5433610000000  0.4826270000000 1.0
C      1  0.5725530000000  0.6308780000000  0.5053650000000 1.0
C      1  0.4353170000000  0.5190640000000  0.6078700000000 1.0
C      1  0.4209390000000  0.5894980000000  0.5255060000000 1.0
C      1  0.4155730000000  0.5557410000000  0.4235690000000 1.0
C      1  0.4703510000000  0.5133100000000  0.4290840000000 1.0
C      1  0.4751160000000  0.4562920000000  0.3847160000000 1.0
C      1  0.5927070000000  0.4106770000000  0.5206120000000 1.0
C      1  0.5778920000000  0.5644570000000  0.5686230000000 1.0
C      1  0.5708550000000  0.4751130000000  0.4879810000000 1.0
C      1  0.5799810000000  0.4786450000000  0.6160890000000 1.0
C      1  0.4771790000000  0.5595170000000  0.5741830000000 1.0
C      1  0.4372930000000  0.4638870000000  0.5610670000000 1.0
C      1  0.5754470000000  0.4878190000000  0.4181270000000 1.0
C      1  0.4725700000000  0.3803530000000  0.4424880000000 1.0
C      1  0.5825490000000  0.4428190000000  0.4444610000000 1.0
C      1  0.4323490000000  0.5659220000000  0.4054570000000 1.0
C      1  0.4399200000000  0.4356750000000  0.5646500000000 1.0
C      1  0.4967310000000  0.5881440000000  0.5062520000000 1.0
C      1  0.4926040000000  0.4004700000000  0.5024960000000 1.0
C      1  0.4784270000000  0.3585500000000  0.5172950000000 1.0
END
