TITL C-627107-135-1016 43433.9646982581 125000 -837.029301292931 0 0 138 (C1) n - 1
REM
REM in /home/nfs/bkarasulu/CARBON/AIRSS/Generating-Clusters/LCBOP/Only-C1/SD-CG/FIRE-CG
REM
REM
REM
REM
REM
REM ./C.cell (11c1c37f851c82e70ff6c80c92926a4b)
REM AIRSS Version 0.9.1 bugfix July 2018 build 013d7b7c2542+ Fri, 06 Jul 2018 19:26:36 +0100
REM compiler GCC version 9.2.1 20190827 (Red Hat 9.2.1-1)
REM options -cpp -mtune=generic -march=x86-64 -g -O0 -fpre-include=/usr/include/finclude/math-vector-fortran.h
REM seed -280742229 -28822409 -1178464059 454160873 65184679 220858791 -65079825 -1320877610 1839178 1240373551 -77480072 -366130752 291389388 1132137725 -1619038475 1639869378 -513918168 482485705 16379191 -1177883952 -716297931 276330921 1828259592 -68777903 -1116864600 -121653796 -935288832 75933943 -1390435599 2122426395 -1609505866 -797889853 345191221
REM
CELL 1.54180   50.00000   50.00000   50.00000   90.00000   90.00000   90.00000
LATT -1
SFAC C  
C      1  0.4850990000000  0.4829370000000  0.3938410000000 1.0
C      1  0.5089720000000  0.5473030000000  0.5317190000000 1.0
C      1  0.4656290000000  0.5377910000000  0.4574570000000 1.0
C      1  0.3697330000000  0.4854890000000  0.5222360000000 1.0
C      1  0.5721930000000  0.5227280000000  0.5864250000000 1.0
C      1  0.4990330000000  0.3930980000000  0.4894730000000 1.0
C      1  0.4808210000000  0.6134980000000  0.4536600000000 1.0
C      1  0.5355090000000  0.5607690000000  0.4784040000000 1.0
C      1  0.4882110000000  0.4851540000000  0.5467330000000 1.0
C      1  0.4837490000000  0.4571470000000  0.5450330000000 1.0
C      1  0.5864990000000  0.4732500000000  0.4955790000000 1.0
C      1  0.4201380000000  0.4782500000000  0.4374350000000 1.0
C      1  0.5898390000000  0.4819250000000  0.4476660000000 1.0
C      1  0.5175510000000  0.5781860000000  0.5717300000000 1.0
C      1  0.4275040000000  0.5487280000000  0.5187770000000 1.0
C      1  0.4341990000000  0.5420680000000  0.4215010000000 1.0
C      1  0.5483940000000  0.6091070000000  0.4938060000000 1.0
C      1  0.4945890000000  0.5063170000000  0.5017170000000 1.0
C      1  0.5710820000000  0.4146120000000  0.4766110000000 1.0
C      1  0.4222830000000  0.5138020000000  0.5622800000000 1.0
C      1  0.5734730000000  0.5305870000000  0.4961640000000 1.0
C      1  0.5475660000000  0.4137350000000  0.5422930000000 1.0
C      1  0.3895530000000  0.5351360000000  0.4853400000000 1.0
C      1  0.5080350000000  0.5319600000000  0.5563740000000 1.0
C      1  0.5121410000000  0.6080960000000  0.5335850000000 1.0
C      1  0.5086950000000  0.4716790000000  0.4052530000000 1.0
C      1  0.6055670000000  0.4780780000000  0.5405990000000 1.0
C      1  0.5213070000000  0.5109280000000  0.5032500000000 1.0
C      1  0.5532560000000  0.4406170000000  0.5365430000000 1.0
C      1  0.5258090000000  0.4583480000000  0.4244050000000 1.0
C      1  0.4211040000000  0.5175940000000  0.4178750000000 1.0
C      1  0.4617940000000  0.5364050000000  0.5811860000000 1.0
C      1  0.4532150000000  0.4942250000000  0.5159900000000 1.0
C      1  0.5338300000000  0.3624870000000  0.4145160000000 1.0
C      1  0.5556340000000  0.5819320000000  0.5384350000000 1.0
C      1  0.5864890000000  0.4748990000000  0.5622820000000 1.0
C      1  0.4944480000000  0.4403790000000  0.5260830000000 1.0
C      1  0.5287040000000  0.5121010000000  0.5590610000000 1.0
C      1  0.5207160000000  0.5476750000000  0.4361670000000 1.0
C      1  0.4895520000000  0.5053040000000  0.3771270000000 1.0
C      1  0.5840460000000  0.5540400000000  0.4598660000000 1.0
C      1  0.5275540000000  0.4882710000000  0.5739970000000 1.0
C      1  0.5490840000000  0.5464460000000  0.4992120000000 1.0
C      1  0.5245480000000  0.4737100000000  0.4697230000000 1.0
C      1  0.4758540000000  0.5587910000000  0.4974900000000 1.0
C      1  0.4580780000000  0.4919040000000  0.5864220000000 1.0
C      1  0.4925100000000  0.4240310000000  0.4133560000000 1.0
C      1  0.4411460000000  0.5023200000000  0.4904270000000 1.0
C      1  0.4782250000000  0.4649500000000  0.4484760000000 1.0
C      1  0.5530100000000  0.5165800000000  0.5466100000000 1.0
C      1  0.4970620000000  0.4786340000000  0.6232540000000 1.0
C      1  0.4157200000000  0.4698840000000  0.5111570000000 1.0
C      1  0.3891520000000  0.5208610000000  0.4627120000000 1.0
C      1  0.4766630000000  0.4622180000000  0.6150740000000 1.0
C      1  0.4004080000000  0.5072670000000  0.4417690000000 1.0
C      1  0.4668620000000  0.4185600000000  0.4191500000000 1.0
C      1  0.4311900000000  0.5442670000000  0.5461680000000 1.0
C      1  0.5302780000000  0.5205140000000  0.6157850000000 1.0
C      1  0.4414230000000  0.4700990000000  0.5264470000000 1.0
C      1  0.5281730000000  0.5355430000000  0.5140140000000 1.0
C      1  0.4414870000000  0.5147200000000  0.5834750000000 1.0
C      1  0.4174830000000  0.4278350000000  0.5440840000000 1.0
C      1  0.5413040000000  0.4653580000000  0.5755450000000 1.0
C      1  0.4659650000000  0.6093050000000  0.5195660000000 1.0
C      1  0.5863250000000  0.5133710000000  0.5146810000000 1.0
C      1  0.4867580000000  0.5759970000000  0.5706620000000 1.0
C      1  0.5402700000000  0.5612390000000  0.5825050000000 1.0
C      1  0.5044820000000  0.6177650000000  0.4654320000000 1.0
C      1  0.4382810000000  0.4146400000000  0.5258710000000 1.0
C      1  0.4430310000000  0.4526330000000  0.5732730000000 1.0
C      1  0.4818800000000  0.4971680000000  0.5715340000000 1.0
C      1  0.5275610000000  0.6172930000000  0.4790140000000 1.0
C      1  0.4350100000000  0.4903040000000  0.4152920000000 1.0
C      1  0.4912640000000  0.5671960000000  0.5194110000000 1.0
C      1  0.4597440000000  0.3943060000000  0.5262290000000 1.0
C      1  0.5212290000000  0.4500400000000  0.4900850000000 1.0
C      1  0.6030060000000  0.4894790000000  0.5140110000000 1.0
C      1  0.5374640000000  0.4927950000000  0.4889700000000 1.0
C      1  0.5367870000000  0.5356300000000  0.4164780000000 1.0
C      1  0.4374000000000  0.5915100000000  0.4322780000000 1.0
C      1  0.5894530000000  0.4631150000000  0.4694710000000 1.0
C      1  0.4662310000000  0.4392760000000  0.4857940000000 1.0
C      1  0.4238090000000  0.4794560000000  0.4847240000000 1.0
C      1  0.4967970000000  0.4811530000000  0.4609240000000 1.0
C      1  0.5303720000000  0.5936860000000  0.5490750000000 1.0
C      1  0.4511610000000  0.4261500000000  0.4396740000000 1.0
C      1  0.4564240000000  0.5587650000000  0.5657120000000 1.0
C      1  0.5794120000000  0.5265900000000  0.4693250000000 1.0
C      1  0.4799710000000  0.5402880000000  0.4082820000000 1.0
C      1  0.6103610000000  0.4827820000000  0.4295800000000 1.0
C      1  0.4891410000000  0.5954920000000  0.5238370000000 1.0
C      1  0.5162150000000  0.4301760000000  0.4286190000000 1.0
C      1  0.4937630000000  0.4419850000000  0.4975360000000 1.0
C      1  0.4153270000000  0.4526530000000  0.5635430000000 1.0
C      1  0.4869110000000  0.5251400000000  0.5731710000000 1.0
C      1  0.4576670000000  0.6054850000000  0.4428730000000 1.0
C      1  0.5794460000000  0.5504650000000  0.4317560000000 1.0
C      1  0.4554190000000  0.4487620000000  0.4585670000000 1.0
C      1  0.5478530000000  0.4029240000000  0.4834100000000 1.0
C      1  0.4970380000000  0.5299440000000  0.3882510000000 1.0
C      1  0.5479950000000  0.5362910000000  0.5994640000000 1.0
C      1  0.5133830000000  0.5559740000000  0.4616730000000 1.0
C      1  0.5215710000000  0.4010910000000  0.4726330000000 1.0
C      1  0.5575200000000  0.4785830000000  0.5062190000000 1.0
C      1  0.4558610000000  0.4557390000000  0.5475500000000 1.0
C      1  0.5850760000000  0.4353970000000  0.4671320000000 1.0
C      1  0.5628620000000  0.5008150000000  0.5268220000000 1.0
C      1  0.5305750000000  0.3842080000000  0.4285480000000 1.0
C      1  0.4474370000000  0.5276310000000  0.4791030000000 1.0
C      1  0.4583830000000  0.4809240000000  0.4032150000000 1.0
C      1  0.5139440000000  0.4999910000000  0.6230530000000 1.0
C      1  0.5064590000000  0.3840870000000  0.5358900000000 1.0
C      1  0.5814570000000  0.5747150000000  0.4825510000000 1.0
C      1  0.5626830000000  0.4576520000000  0.5584760000000 1.0
C      1  0.5668900000000  0.5005560000000  0.4455780000000 1.0
C      1  0.5615100000000  0.5622010000000  0.5594830000000 1.0
C      1  0.5704800000000  0.5351310000000  0.5595370000000 1.0
C      1  0.4300690000000  0.4661110000000  0.4604300000000 1.0
C      1  0.5226300000000  0.4064450000000  0.4441210000000 1.0
C      1  0.4862380000000  0.5018420000000  0.4757580000000 1.0
C      1  0.5398850000000  0.4753080000000  0.4434450000000 1.0
C      1  0.4493030000000  0.5481890000000  0.5004100000000 1.0
C      1  0.4449850000000  0.4288690000000  0.5018500000000 1.0
C      1  0.4867990000000  0.3888410000000  0.5159360000000 1.0
C      1  0.5653600000000  0.5887650000000  0.5050490000000 1.0
C      1  0.4795150000000  0.4988850000000  0.5232710000000 1.0
C      1  0.5432950000000  0.4525300000000  0.5119950000000 1.0
C      1  0.4615460000000  0.5390860000000  0.4294350000000 1.0
C      1  0.5299500000000  0.3938160000000  0.5441070000000 1.0
C      1  0.4559980000000  0.4652770000000  0.5954030000000 1.0
C      1  0.4257730000000  0.5688880000000  0.4233250000000 1.0
C      1  0.4069280000000  0.4821920000000  0.5556130000000 1.0
C      1  0.5838830000000  0.4961220000000  0.5831440000000 1.0
C      1  0.4865870000000  0.5535950000000  0.4708810000000 1.0
C      1  0.5624550000000  0.5281500000000  0.4241470000000 1.0
C      1  0.4021280000000  0.5458360000000  0.5064780000000 1.0
C      1  0.3955010000000  0.4798520000000  0.5286900000000 1.0
C      1  0.5246790000000  0.5343270000000  0.3913420000000 1.0
END
