TITL C-627112-676-122 -9.44565948653173e-07 125000 -398.145493178585 0 0 66 (C1) n - 1
REM
REM in /home/nfs/bkarasulu/CARBON/AIRSS/Generating-Clusters/LCBOP/Only-C1/SD-CG/FIRE-CG
REM
REM
REM
REM
REM
REM ./C.cell (11c1c37f851c82e70ff6c80c92926a4b)
REM AIRSS Version 0.9.1 bugfix July 2018 build 013d7b7c2542+ Fri, 06 Jul 2018 19:26:36 +0100
REM compiler GCC version 9.2.1 20190827 (Red Hat 9.2.1-1)
REM options -cpp -mtune=generic -march=x86-64 -g -O0 -fpre-include=/usr/include/finclude/math-vector-fortran.h
REM seed -887713960 314426813 -1496142131 -186724420 -1786338072 1502607806 -1714964085 1756486766 916801944 339639809 949086473 -2052744508 -2059934554 1180439012 1234141281 1746315999 -2121498448 -1815455854 -2133218708 767035441 -549944543 1554898690 -1782514438 -119311769 -674128363 -115547461 2138467957 928488926 152874323 -802884323 497697137 -883216306 -1857342752
REM
CELL 1.54180   50.00000   50.00000   50.00000   90.00000   90.00000   90.00000
LATT -1
SFAC C  
C      1  0.5985710000000  0.5478760000000  0.4481600000000 1.0
C      1  0.5556740000000  0.5387640000000  0.5321330000000 1.0
C      1  0.4640400000000  0.4326730000000  0.4551000000000 1.0
C      1  0.5225200000000  0.5625420000000  0.5054680000000 1.0
C      1  0.4370980000000  0.5545360000000  0.5163100000000 1.0
C      1  0.5315840000000  0.4988770000000  0.5586000000000 1.0
C      1  0.4859040000000  0.5838290000000  0.4797860000000 1.0
C      1  0.4424050000000  0.4351830000000  0.5235770000000 1.0
C      1  0.4026910000000  0.4532800000000  0.4527820000000 1.0
C      1  0.5228650000000  0.5418550000000  0.4539790000000 1.0
C      1  0.4885260000000  0.4826130000000  0.5134870000000 1.0
C      1  0.4636910000000  0.5185800000000  0.4498550000000 1.0
C      1  0.5097130000000  0.5842400000000  0.4928040000000 1.0
C      1  0.4393660000000  0.5086380000000  0.4598630000000 1.0
C      1  0.3822560000000  0.4454500000000  0.4386330000000 1.0
C      1  0.4923300000000  0.5033140000000  0.5311290000000 1.0
C      1  0.4899480000000  0.4942380000000  0.6005950000000 1.0
C      1  0.4755180000000  0.5359210000000  0.5686120000000 1.0
C      1  0.5086780000000  0.5374530000000  0.5003240000000 1.0
C      1  0.4923950000000  0.5303750000000  0.5227700000000 1.0
C      1  0.4875660000000  0.5113390000000  0.5782230000000 1.0
C      1  0.4478240000000  0.5422980000000  0.5678160000000 1.0
C      1  0.4997100000000  0.5507700000000  0.4400220000000 1.0
C      1  0.4248490000000  0.4617630000000  0.4676460000000 1.0
C      1  0.5064220000000  0.4725180000000  0.6024060000000 1.0
C      1  0.5572440000000  0.4648240000000  0.5415220000000 1.0
C      1  0.5269930000000  0.4307350000000  0.5245800000000 1.0
C      1  0.5157130000000  0.5617310000000  0.5516320000000 1.0
C      1  0.5262530000000  0.4612440000000  0.5874570000000 1.0
C      1  0.5700610000000  0.4905980000000  0.5368320000000 1.0
C      1  0.5544440000000  0.4815640000000  0.4538000000000 1.0
C      1  0.5663210000000  0.4759240000000  0.4789250000000 1.0
C      1  0.4968170000000  0.4810460000000  0.4883880000000 1.0
C      1  0.4871820000000  0.4740900000000  0.4296810000000 1.0
C      1  0.4558570000000  0.4347960000000  0.4999410000000 1.0
C      1  0.4722000000000  0.4666790000000  0.4082360000000 1.0
C      1  0.4732730000000  0.5460350000000  0.4512220000000 1.0
C      1  0.5354980000000  0.5594770000000  0.5312320000000 1.0
C      1  0.4832640000000  0.4256590000000  0.4961170000000 1.0
C      1  0.4448840000000  0.4430420000000  0.4741410000000 1.0
C      1  0.5376270000000  0.4371570000000  0.4733070000000 1.0
C      1  0.5030200000000  0.4228770000000  0.5156630000000 1.0
C      1  0.5145980000000  0.5248040000000  0.4756270000000 1.0
C      1  0.5763800000000  0.5400140000000  0.4621490000000 1.0
C      1  0.4914100000000  0.5474960000000  0.5470860000000 1.0
C      1  0.4371140000000  0.5490140000000  0.5424730000000 1.0
C      1  0.5527600000000  0.5130930000000  0.5445140000000 1.0
C      1  0.4833900000000  0.4983530000000  0.4455440000000 1.0
C      1  0.4896510000000  0.4269010000000  0.4673600000000 1.0
C      1  0.5485870000000  0.4485370000000  0.5197580000000 1.0
C      1  0.4261520000000  0.4892610000000  0.4755720000000 1.0
C      1  0.5394750000000  0.4710350000000  0.5645070000000 1.0
C      1  0.5505150000000  0.5456270000000  0.4520280000000 1.0
C      1  0.5748610000000  0.5395770000000  0.5113120000000 1.0
C      1  0.4323730000000  0.5421220000000  0.5903100000000 1.0
C      1  0.4460780000000  0.5591820000000  0.4915500000000 1.0
C      1  0.5794760000000  0.5260830000000  0.4870600000000 1.0
C      1  0.5539750000000  0.4530010000000  0.4916130000000 1.0
C      1  0.5112620000000  0.4604600000000  0.4394640000000 1.0
C      1  0.5064870000000  0.4979840000000  0.4662340000000 1.0
C      1  0.5814090000000  0.4977570000000  0.4881170000000 1.0
C      1  0.5272240000000  0.4828030000000  0.4495440000000 1.0
C      1  0.4142840000000  0.4967800000000  0.4991200000000 1.0
C      1  0.5038160000000  0.5015520000000  0.5565850000000 1.0
C      1  0.5137390000000  0.4377760000000  0.4572050000000 1.0
C      1  0.4661880000000  0.5643820000000  0.4725150000000 1.0
END
