TITL C-627112-676-1721 0.00924987080400596 125000 -1095.36706539571 0 0 179 (C1) n - 1
REM
REM in /home/nfs/bkarasulu/CARBON/AIRSS/Generating-Clusters/LCBOP/Only-C1/SD-CG/FIRE-CG
REM
REM
REM
REM
REM
REM ./C.cell (11c1c37f851c82e70ff6c80c92926a4b)
REM AIRSS Version 0.9.1 bugfix July 2018 build 013d7b7c2542+ Fri, 06 Jul 2018 19:26:36 +0100
REM compiler GCC version 9.2.1 20190827 (Red Hat 9.2.1-1)
REM options -cpp -mtune=generic -march=x86-64 -g -O0 -fpre-include=/usr/include/finclude/math-vector-fortran.h
REM seed -1168151155 -1975977093 2094639789 340097093 752756447 -682098720 -657117782 224909134 -1713185062 -488393151 -1854044707 -1914268491 -1431117480 38574391 430131396 -2084334980 -1556768016 904117958 2043463333 -1730326603 25674624 -1712286879 1299224286 479789096 -1530058452 239082324 2055378472 1126161958 -352452032 304561754 -230809480 1359634545 -1624396848
REM
CELL 1.54180   50.00000   50.00000   50.00000   90.00000   90.00000   90.00000
LATT -1
SFAC C  
C      1  0.5587010000000  0.6114730000000  0.5310580000000 1.0
C      1  0.4970410000000  0.3864180000000  0.4198630000000 1.0
C      1  0.4239990000000  0.4882740000000  0.5946360000000 1.0
C      1  0.5911070000000  0.4729590000000  0.4650820000000 1.0
C      1  0.5576720000000  0.5040530000000  0.4422810000000 1.0
C      1  0.5759960000000  0.6461370000000  0.4677170000000 1.0
C      1  0.5112710000000  0.6268320000000  0.5240540000000 1.0
C      1  0.5020540000000  0.5870110000000  0.5641700000000 1.0
C      1  0.5021290000000  0.5145340000000  0.4915680000000 1.0
C      1  0.4626150000000  0.4768560000000  0.5519050000000 1.0
C      1  0.4933000000000  0.4601280000000  0.4674710000000 1.0
C      1  0.4330850000000  0.4496730000000  0.3933280000000 1.0
C      1  0.5125290000000  0.5016440000000  0.5141780000000 1.0
C      1  0.4065810000000  0.5061550000000  0.4535610000000 1.0
C      1  0.4788720000000  0.4530530000000  0.5438540000000 1.0
C      1  0.3970840000000  0.4782530000000  0.4548160000000 1.0
C      1  0.4491240000000  0.3945990000000  0.4353950000000 1.0
C      1  0.4956980000000  0.5506990000000  0.4491560000000 1.0
C      1  0.4793620000000  0.5280520000000  0.4556160000000 1.0
C      1  0.4837690000000  0.4040250000000  0.5756040000000 1.0
C      1  0.4188280000000  0.4312930000000  0.4462490000000 1.0
C      1  0.5616860000000  0.5122060000000  0.6185220000000 1.0
C      1  0.4189650000000  0.5551860000000  0.5009210000000 1.0
C      1  0.5255190000000  0.3862080000000  0.5562510000000 1.0
C      1  0.4350780000000  0.5047580000000  0.4606050000000 1.0
C      1  0.4636090000000  0.4293510000000  0.5442220000000 1.0
C      1  0.4770060000000  0.4847710000000  0.5748600000000 1.0
C      1  0.4700610000000  0.4749800000000  0.6007950000000 1.0
C      1  0.4884900000000  0.5314630000000  0.5607190000000 1.0
C      1  0.5739570000000  0.6202280000000  0.4696630000000 1.0
C      1  0.5178040000000  0.5287170000000  0.3921310000000 1.0
C      1  0.6215100000000  0.5057310000000  0.4919170000000 1.0
C      1  0.5225090000000  0.5640930000000  0.5146500000000 1.0
C      1  0.4485760000000  0.4934930000000  0.6088610000000 1.0
C      1  0.5804950000000  0.5035650000000  0.5353470000000 1.0
C      1  0.4352530000000  0.4218570000000  0.5028880000000 1.0
C      1  0.4901140000000  0.5946730000000  0.6076110000000 1.0
C      1  0.5857310000000  0.3869640000000  0.5041850000000 1.0
C      1  0.4853020000000  0.4497650000000  0.6024600000000 1.0
C      1  0.4623580000000  0.4670410000000  0.5072220000000 1.0
C      1  0.4265500000000  0.5267180000000  0.5029410000000 1.0
C      1  0.4468280000000  0.4784330000000  0.4603650000000 1.0
C      1  0.4671020000000  0.4987090000000  0.3498530000000 1.0
C      1  0.4678620000000  0.5858750000000  0.4611180000000 1.0
C      1  0.5862350000000  0.5773320000000  0.5450380000000 1.0
C      1  0.4868680000000  0.5018050000000  0.4469730000000 1.0
C      1  0.5800020000000  0.5205530000000  0.5120640000000 1.0
C      1  0.5521580000000  0.4927970000000  0.4880400000000 1.0
C      1  0.6145430000000  0.4877360000000  0.4707210000000 1.0
C      1  0.5552640000000  0.6095480000000  0.5611850000000 1.0
C      1  0.6231410000000  0.5138250000000  0.5948350000000 1.0
C      1  0.5322830000000  0.4905360000000  0.4401620000000 1.0
C      1  0.4937390000000  0.5338680000000  0.5894350000000 1.0
C      1  0.4364310000000  0.4091950000000  0.4559880000000 1.0
C      1  0.3879050000000  0.5361450000000  0.5365700000000 1.0
C      1  0.5456480000000  0.5263680000000  0.5512410000000 1.0
C      1  0.4750160000000  0.5690520000000  0.4398330000000 1.0
C      1  0.4451560000000  0.4026740000000  0.4839540000000 1.0
C      1  0.5168350000000  0.3759600000000  0.4827150000000 1.0
C      1  0.5127010000000  0.4029930000000  0.5746860000000 1.0
C      1  0.4172160000000  0.4143150000000  0.5228630000000 1.0
C      1  0.4209360000000  0.5017680000000  0.5180760000000 1.0
C      1  0.4695670000000  0.4022870000000  0.5499120000000 1.0
C      1  0.3946280000000  0.5314120000000  0.4603560000000 1.0
C      1  0.4219570000000  0.5687280000000  0.4755110000000 1.0
C      1  0.5030860000000  0.5099390000000  0.5464850000000 1.0
C      1  0.4557020000000  0.5212750000000  0.6150690000000 1.0
C      1  0.5543260000000  0.4030060000000  0.4687910000000 1.0
C      1  0.4742830000000  0.4236090000000  0.5955010000000 1.0
C      1  0.5078540000000  0.4397550000000  0.5076390000000 1.0
C      1  0.4681280000000  0.4922020000000  0.5068500000000 1.0
C      1  0.4271930000000  0.5569460000000  0.4298800000000 1.0
C      1  0.4743350000000  0.4769730000000  0.4540170000000 1.0
C      1  0.5732610000000  0.5921970000000  0.4700010000000 1.0
C      1  0.5695640000000  0.4551990000000  0.3953340000000 1.0
C      1  0.4410580000000  0.5899410000000  0.4728120000000 1.0
C      1  0.5126440000000  0.4598590000000  0.4888590000000 1.0
C      1  0.5637010000000  0.5783760000000  0.4462290000000 1.0
C      1  0.5349150000000  0.4643890000000  0.4282430000000 1.0
C      1  0.4470510000000  0.6098180000000  0.4931660000000 1.0
C      1  0.4705220000000  0.3881030000000  0.4210570000000 1.0
C      1  0.5448990000000  0.5242810000000  0.6000730000000 1.0
C      1  0.4879980000000  0.6110630000000  0.5248030000000 1.0
C      1  0.5779610000000  0.5899420000000  0.5199240000000 1.0
C      1  0.5534920000000  0.5373680000000  0.5765710000000 1.0
C      1  0.5607050000000  0.3901900000000  0.4940440000000 1.0
C      1  0.5301240000000  0.3888130000000  0.4597610000000 1.0
C      1  0.4175040000000  0.5728300000000  0.5226010000000 1.0
C      1  0.3765380000000  0.5345130000000  0.5116480000000 1.0
C      1  0.5685860000000  0.4897440000000  0.4646190000000 1.0
C      1  0.5745850000000  0.4992360000000  0.6370850000000 1.0
C      1  0.5170240000000  0.5250860000000  0.6026200000000 1.0
C      1  0.3782230000000  0.5329710000000  0.4843260000000 1.0
C      1  0.5060500000000  0.6059180000000  0.5859850000000 1.0
C      1  0.5327690000000  0.6175090000000  0.5789390000000 1.0
C      1  0.5011340000000  0.4150030000000  0.5005040000000 1.0
C      1  0.5247420000000  0.4637560000000  0.3800400000000 1.0
C      1  0.6344810000000  0.4918360000000  0.5131680000000 1.0
C      1  0.4915920000000  0.5373600000000  0.3980840000000 1.0
C      1  0.5553370000000  0.4994320000000  0.5479590000000 1.0
C      1  0.5031580000000  0.4906380000000  0.5677700000000 1.0
C      1  0.5465780000000  0.5905990000000  0.4287020000000 1.0
C      1  0.5594910000000  0.5299730000000  0.4295490000000 1.0
C      1  0.5501760000000  0.5649050000000  0.5756240000000 1.0
C      1  0.4381040000000  0.5266270000000  0.5546830000000 1.0
C      1  0.5613630000000  0.4290390000000  0.4595920000000 1.0
C      1  0.4721060000000  0.5504060000000  0.5067040000000 1.0
C      1  0.5289380000000  0.4813010000000  0.5000790000000 1.0
C      1  0.4112500000000  0.5545070000000  0.4531510000000 1.0
C      1  0.3970650000000  0.4382960000000  0.5619910000000 1.0
C      1  0.5127560000000  0.5005620000000  0.4585720000000 1.0
C      1  0.5375740000000  0.6254540000000  0.5189180000000 1.0
C      1  0.4747160000000  0.6088690000000  0.5004490000000 1.0
C      1  0.5103800000000  0.4833700000000  0.3663210000000 1.0
C      1  0.5847980000000  0.4450160000000  0.4643290000000 1.0
C      1  0.4632190000000  0.5410000000000  0.5520990000000 1.0
C      1  0.5847000000000  0.5782230000000  0.4932430000000 1.0
C      1  0.5189930000000  0.5097510000000  0.3712710000000 1.0
C      1  0.5981830000000  0.5484600000000  0.4562220000000 1.0
C      1  0.5950380000000  0.4508700000000  0.3919500000000 1.0
C      1  0.6091120000000  0.4516840000000  0.5293290000000 1.0
C      1  0.4101880000000  0.5364970000000  0.5527770000000 1.0
C      1  0.5249860000000  0.4253330000000  0.5878370000000 1.0
C      1  0.4440870000000  0.4480190000000  0.4982650000000 1.0
C      1  0.4546840000000  0.5567470000000  0.4226580000000 1.0
C      1  0.5343580000000  0.5451220000000  0.5310420000000 1.0
C      1  0.3862770000000  0.4722230000000  0.5303250000000 1.0
C      1  0.5434990000000  0.4752380000000  0.5582410000000 1.0
C      1  0.4047820000000  0.4180450000000  0.5461690000000 1.0
C      1  0.5410670000000  0.5392820000000  0.4779270000000 1.0
C      1  0.5074600000000  0.4489660000000  0.5347030000000 1.0
C      1  0.6038940000000  0.4948530000000  0.5485480000000 1.0
C      1  0.4722980000000  0.4527380000000  0.3608920000000 1.0
C      1  0.3965760000000  0.4658090000000  0.5562200000000 1.0
C      1  0.5181650000000  0.5551990000000  0.4681000000000 1.0
C      1  0.4729910000000  0.5432150000000  0.6070530000000 1.0
C      1  0.5235960000000  0.5698840000000  0.5676120000000 1.0
C      1  0.5234470000000  0.4746380000000  0.5789740000000 1.0
C      1  0.4638700000000  0.5367120000000  0.4043690000000 1.0
C      1  0.5364160000000  0.4526930000000  0.5417690000000 1.0
C      1  0.5412440000000  0.4426470000000  0.4449770000000 1.0
C      1  0.4096150000000  0.4583020000000  0.4356930000000 1.0
C      1  0.4319700000000  0.4957180000000  0.4070830000000 1.0
C      1  0.4357010000000  0.4963640000000  0.5462120000000 1.0
C      1  0.5407020000000  0.5341500000000  0.4081830000000 1.0
C      1  0.4853670000000  0.5880530000000  0.5419560000000 1.0
C      1  0.4394050000000  0.5794050000000  0.5363500000000 1.0
C      1  0.6199080000000  0.4775340000000  0.5327300000000 1.0
C      1  0.5314190000000  0.3765830000000  0.5320340000000 1.0
C      1  0.4658850000000  0.5653390000000  0.5340530000000 1.0
C      1  0.5194640000000  0.3874800000000  0.4341440000000 1.0
C      1  0.4043550000000  0.4706760000000  0.4825050000000 1.0
C      1  0.4649190000000  0.3845180000000  0.4973450000000 1.0
C      1  0.5564020000000  0.5210380000000  0.4948210000000 1.0
C      1  0.4885760000000  0.3737360000000  0.4851660000000 1.0
C      1  0.4012350000000  0.4824200000000  0.5086570000000 1.0
C      1  0.4469740000000  0.5159690000000  0.3933720000000 1.0
C      1  0.4762250000000  0.5713900000000  0.6131290000000 1.0
C      1  0.5141120000000  0.4513690000000  0.5938700000000 1.0
C      1  0.6118640000000  0.5037290000000  0.5736190000000 1.0
C      1  0.4445010000000  0.5205750000000  0.4821410000000 1.0
C      1  0.4232520000000  0.4686170000000  0.4118630000000 1.0
C      1  0.5427470000000  0.4608810000000  0.4010430000000 1.0
C      1  0.4500670000000  0.5123110000000  0.3654710000000 1.0
C      1  0.5687350000000  0.5840510000000  0.5669950000000 1.0
C      1  0.5107260000000  0.5736660000000  0.4892760000000 1.0
C      1  0.4847290000000  0.4774950000000  0.3556670000000 1.0
C      1  0.5854540000000  0.4389450000000  0.5290670000000 1.0
C      1  0.4735580000000  0.5268990000000  0.4856520000000 1.0
C      1  0.5365780000000  0.3776760000000  0.5045540000000 1.0
C      1  0.4518720000000  0.4434000000000  0.3754360000000 1.0
C      1  0.4312580000000  0.4612430000000  0.4774550000000 1.0
C      1  0.6000510000000  0.5534170000000  0.4846210000000 1.0
C      1  0.4659720000000  0.3852740000000  0.5269790000000 1.0
C      1  0.4887340000000  0.5914390000000  0.4817720000000 1.0
C      1  0.5744210000000  0.5520700000000  0.4411730000000 1.0
C      1  0.5587940000000  0.4383600000000  0.5321700000000 1.0
C      1  0.4160980000000  0.4836700000000  0.5673830000000 1.0
C      1  0.6039920000000  0.5285850000000  0.4988360000000 1.0
END
