TITL C-627108-131-223 -2.38973709737062e-07 125000 -711.882325716474 0 0 117 (C1) n - 1
REM
REM in /home/nfs/bkarasulu/CARBON/AIRSS/Generating-Clusters/LCBOP/Only-C1/SD-CG/FIRE-CG
REM
REM
REM
REM
REM
REM ./C.cell (11c1c37f851c82e70ff6c80c92926a4b)
REM AIRSS Version 0.9.1 bugfix July 2018 build 013d7b7c2542+ Fri, 06 Jul 2018 19:26:36 +0100
REM compiler GCC version 9.2.1 20190827 (Red Hat 9.2.1-1)
REM options -cpp -mtune=generic -march=x86-64 -g -O0 -fpre-include=/usr/include/finclude/math-vector-fortran.h
REM seed -1921080789 1652432757 119395159 271195934 1241240156 666802878 1857645451 1517082432 1959754018 -1061381277 1414930724 1836460416 -6717731 -4606777 1558982680 1589338765 474529011 -2045706110 -1628957505 1092077901 1007948010 -2106622186 1978493127 549770639 1831744743 253953203 286226330 -1505937601 1184853551 -546344507 1456126753 -729724113 -589525302
REM
CELL 1.54180   50.00000   50.00000   50.00000   90.00000   90.00000   90.00000
LATT -1
SFAC C  
C      1  0.5704320000000  0.4726070000000  0.5532240000000 1.0
C      1  0.4784750000000  0.5136400000000  0.4346160000000 1.0
C      1  0.4623810000000  0.4292250000000  0.5702050000000 1.0
C      1  0.5508560000000  0.4689010000000  0.4560500000000 1.0
C      1  0.5063280000000  0.5979180000000  0.5101290000000 1.0
C      1  0.5758810000000  0.4591510000000  0.4645420000000 1.0
C      1  0.4144720000000  0.5201300000000  0.4701450000000 1.0
C      1  0.4357960000000  0.5317560000000  0.5777360000000 1.0
C      1  0.5521600000000  0.4702940000000  0.5299830000000 1.0
C      1  0.4473940000000  0.4139140000000  0.5016480000000 1.0
C      1  0.5018420000000  0.4835430000000  0.5370320000000 1.0
C      1  0.4415790000000  0.5418410000000  0.4198660000000 1.0
C      1  0.5064170000000  0.5925390000000  0.4813040000000 1.0
C      1  0.5311980000000  0.4255930000000  0.5387540000000 1.0
C      1  0.5010240000000  0.4495360000000  0.5024220000000 1.0
C      1  0.4630290000000  0.5220260000000  0.4084070000000 1.0
C      1  0.4480340000000  0.4984830000000  0.3977100000000 1.0
C      1  0.5616660000000  0.5864240000000  0.5169350000000 1.0
C      1  0.5420550000000  0.5688170000000  0.5118800000000 1.0
C      1  0.4813880000000  0.5811730000000  0.4724380000000 1.0
C      1  0.4416090000000  0.4771450000000  0.5535840000000 1.0
C      1  0.4223970000000  0.4430250000000  0.4641030000000 1.0
C      1  0.5939950000000  0.4785200000000  0.5116440000000 1.0
C      1  0.4306620000000  0.4814570000000  0.4089530000000 1.0
C      1  0.5204490000000  0.4356820000000  0.5165070000000 1.0
C      1  0.4264680000000  0.5249720000000  0.5517100000000 1.0
C      1  0.5848300000000  0.5869410000000  0.5304590000000 1.0
C      1  0.5421350000000  0.4266360000000  0.4452780000000 1.0
C      1  0.5411470000000  0.4539190000000  0.4332760000000 1.0
C      1  0.5291850000000  0.4952400000000  0.4933810000000 1.0
C      1  0.4873500000000  0.5296830000000  0.3905260000000 1.0
C      1  0.5003540000000  0.4115310000000  0.5961770000000 1.0
C      1  0.4784210000000  0.3925820000000  0.5319890000000 1.0
C      1  0.5691700000000  0.4409300000000  0.4863080000000 1.0
C      1  0.5245840000000  0.5168890000000  0.4743070000000 1.0
C      1  0.5018250000000  0.4758110000000  0.4136840000000 1.0
C      1  0.4779690000000  0.4262400000000  0.5935230000000 1.0
C      1  0.5104600000000  0.5310260000000  0.5268200000000 1.0
C      1  0.5068910000000  0.3883310000000  0.5319750000000 1.0
C      1  0.5353760000000  0.5420600000000  0.5168500000000 1.0
C      1  0.4357470000000  0.5111520000000  0.5984620000000 1.0
C      1  0.4478040000000  0.5696880000000  0.5095630000000 1.0
C      1  0.4418460000000  0.5030090000000  0.5415070000000 1.0
C      1  0.5217340000000  0.3865290000000  0.5069650000000 1.0
C      1  0.5013450000000  0.5329810000000  0.4722880000000 1.0
C      1  0.4259220000000  0.4939670000000  0.4777550000000 1.0
C      1  0.6157100000000  0.5730740000000  0.5908810000000 1.0
C      1  0.4658600000000  0.4073560000000  0.5526870000000 1.0
C      1  0.5396380000000  0.5023190000000  0.4219350000000 1.0
C      1  0.4630750000000  0.3931160000000  0.5083660000000 1.0
C      1  0.4856110000000  0.4637020000000  0.4558880000000 1.0
C      1  0.4474850000000  0.4904610000000  0.4975120000000 1.0
C      1  0.5233010000000  0.4050380000000  0.5811380000000 1.0
C      1  0.4996470000000  0.5726410000000  0.5588790000000 1.0
C      1  0.4445090000000  0.4319330000000  0.4536500000000 1.0
C      1  0.5623030000000  0.4367890000000  0.5906350000000 1.0
C      1  0.5862780000000  0.5247020000000  0.5190540000000 1.0
C      1  0.4471360000000  0.5617290000000  0.4402690000000 1.0
C      1  0.4121940000000  0.4707510000000  0.4613810000000 1.0
C      1  0.4147850000000  0.5317010000000  0.4223070000000 1.0
C      1  0.4863850000000  0.4851730000000  0.4362360000000 1.0
C      1  0.5961800000000  0.4786400000000  0.5410640000000 1.0
C      1  0.5377590000000  0.3989070000000  0.4886160000000 1.0
C      1  0.4577050000000  0.4652970000000  0.5074770000000 1.0
C      1  0.5054580000000  0.4591410000000  0.4759940000000 1.0
C      1  0.4583550000000  0.5090630000000  0.5182940000000 1.0
C      1  0.4704890000000  0.5654580000000  0.4939340000000 1.0
C      1  0.5300550000000  0.4730820000000  0.4750360000000 1.0
C      1  0.5674590000000  0.4593780000000  0.5774540000000 1.0
C      1  0.4244140000000  0.5536820000000  0.5080100000000 1.0
C      1  0.5507010000000  0.4201090000000  0.4739510000000 1.0
C      1  0.4912300000000  0.5406420000000  0.4452760000000 1.0
C      1  0.4834330000000  0.5244850000000  0.5158230000000 1.0
C      1  0.6026570000000  0.5426510000000  0.5329780000000 1.0
C      1  0.4787740000000  0.5111540000000  0.5803200000000 1.0
C      1  0.4985320000000  0.5029340000000  0.5606980000000 1.0
C      1  0.5942080000000  0.5050220000000  0.4997560000000 1.0
C      1  0.5928520000000  0.5155450000000  0.4732610000000 1.0
C      1  0.4833260000000  0.5402930000000  0.4927530000000 1.0
C      1  0.5836040000000  0.5352870000000  0.4570570000000 1.0
C      1  0.4689410000000  0.4418590000000  0.4500140000000 1.0
C      1  0.3824710000000  0.4714710000000  0.4657420000000 1.0
C      1  0.4487820000000  0.4530750000000  0.5633900000000 1.0
C      1  0.5947020000000  0.5680140000000  0.5742340000000 1.0
C      1  0.4176960000000  0.4754890000000  0.4314150000000 1.0
C      1  0.4153350000000  0.5418570000000  0.5319980000000 1.0
C      1  0.4605590000000  0.4984850000000  0.5991800000000 1.0
C      1  0.5288540000000  0.4858120000000  0.5218910000000 1.0
C      1  0.4737590000000  0.5655560000000  0.4490070000000 1.0
C      1  0.5299850000000  0.4752120000000  0.4164660000000 1.0
C      1  0.5978000000000  0.5672360000000  0.5459630000000 1.0
C      1  0.5193410000000  0.5527280000000  0.5669560000000 1.0
C      1  0.5375710000000  0.5114310000000  0.4493060000000 1.0
C      1  0.3735100000000  0.5128850000000  0.4443240000000 1.0
C      1  0.5662810000000  0.5524500000000  0.4417870000000 1.0
C      1  0.4001090000000  0.5221580000000  0.4446040000000 1.0
C      1  0.5403420000000  0.5253400000000  0.4046400000000 1.0
C      1  0.5427770000000  0.5582680000000  0.5808370000000 1.0
C      1  0.5131260000000  0.5275050000000  0.5549520000000 1.0
C      1  0.4648810000000  0.5384250000000  0.5761430000000 1.0
C      1  0.5600140000000  0.5443170000000  0.4146630000000 1.0
C      1  0.4844830000000  0.4663650000000  0.5190320000000 1.0
C      1  0.5503000000000  0.5728940000000  0.4543300000000 1.0
C      1  0.4744020000000  0.5638400000000  0.5685660000000 1.0
C      1  0.5137290000000  0.5368040000000  0.4003280000000 1.0
C      1  0.5028270000000  0.5900300000000  0.5361600000000 1.0
C      1  0.4272230000000  0.5646910000000  0.4606060000000 1.0
C      1  0.5478320000000  0.4143200000000  0.5915710000000 1.0
C      1  0.5097340000000  0.5513240000000  0.4246650000000 1.0
C      1  0.4192710000000  0.5459550000000  0.4810730000000 1.0
C      1  0.3652690000000  0.4898700000000  0.4558490000000 1.0
C      1  0.5302080000000  0.5869480000000  0.4661050000000 1.0
C      1  0.5585650000000  0.5269760000000  0.5219670000000 1.0
C      1  0.5705790000000  0.4592550000000  0.5086880000000 1.0
C      1  0.4452740000000  0.4402910000000  0.5057210000000 1.0
C      1  0.5215610000000  0.4028280000000  0.5527550000000 1.0
C      1  0.5687150000000  0.5633220000000  0.5838820000000 1.0
END
