TITL C-627107-135-1683 -2.96049923609894e-07 125000 -326.828161266308 0 0 54 (C1) n - 1
REM
REM in /home/nfs/bkarasulu/CARBON/AIRSS/Generating-Clusters/LCBOP/Only-C1/SD-CG/FIRE-CG
REM
REM
REM
REM
REM
REM ./C.cell (11c1c37f851c82e70ff6c80c92926a4b)
REM AIRSS Version 0.9.1 bugfix July 2018 build 013d7b7c2542+ Fri, 06 Jul 2018 19:26:36 +0100
REM compiler GCC version 9.2.1 20190827 (Red Hat 9.2.1-1)
REM options -cpp -mtune=generic -march=x86-64 -g -O0 -fpre-include=/usr/include/finclude/math-vector-fortran.h
REM seed -892830910 1093256392 -249373792 -497641140 -754374789 -120198259 248999135 -1838013104 522675268 420119799 -247930065 995312049 -326908007 1305272025 -927616888 -323419724 -924893704 862131722 485647158 1742973128 981005830 1679364464 -1280279088 -666636677 -1880146104 60705965 -1025423229 139696615 -1667606371 -1729048116 -882477763 -1732417943 -499672577
REM
CELL 1.54180   50.00000   50.00000   50.00000   90.00000   90.00000   90.00000
LATT -1
SFAC C  
C      1  0.5355630000000  0.4293070000000  0.5318270000000 1.0
C      1  0.5428260000000  0.5204490000000  0.4470210000000 1.0
C      1  0.4327150000000  0.4486060000000  0.4770340000000 1.0
C      1  0.4800750000000  0.4988380000000  0.5711770000000 1.0
C      1  0.4455590000000  0.5164870000000  0.4556120000000 1.0
C      1  0.4281320000000  0.4944650000000  0.4597520000000 1.0
C      1  0.4803550000000  0.5720530000000  0.5490340000000 1.0
C      1  0.5669310000000  0.4860510000000  0.5478220000000 1.0
C      1  0.4993640000000  0.4535680000000  0.5483640000000 1.0
C      1  0.4747150000000  0.5379470000000  0.5120630000000 1.0
C      1  0.4943330000000  0.5690600000000  0.4757670000000 1.0
C      1  0.5142480000000  0.4239620000000  0.5136990000000 1.0
C      1  0.4887000000000  0.5828220000000  0.4984170000000 1.0
C      1  0.4792960000000  0.5258340000000  0.5717070000000 1.0
C      1  0.4478970000000  0.4873400000000  0.5201340000000 1.0
C      1  0.4674500000000  0.4348160000000  0.5089970000000 1.0
C      1  0.5420420000000  0.5499000000000  0.5118690000000 1.0
C      1  0.5403740000000  0.5476470000000  0.5732940000000 1.0
C      1  0.4997970000000  0.5257830000000  0.5161160000000 1.0
C      1  0.4902880000000  0.4366200000000  0.5254770000000 1.0
C      1  0.4578350000000  0.4366740000000  0.4822950000000 1.0
C      1  0.4665490000000  0.4432970000000  0.4345240000000 1.0
C      1  0.4677170000000  0.4921800000000  0.4209860000000 1.0
C      1  0.4756890000000  0.4348970000000  0.4599260000000 1.0
C      1  0.5183380000000  0.4538540000000  0.4488610000000 1.0
C      1  0.5287000000000  0.4504260000000  0.5502410000000 1.0
C      1  0.5729290000000  0.5239200000000  0.4836000000000 1.0
C      1  0.4648760000000  0.4655660000000  0.4197210000000 1.0
C      1  0.5807430000000  0.4992570000000  0.5292480000000 1.0
C      1  0.5842190000000  0.5116500000000  0.5058910000000 1.0
C      1  0.5194820000000  0.4785790000000  0.4389130000000 1.0
C      1  0.4917830000000  0.5497010000000  0.5626870000000 1.0
C      1  0.4529820000000  0.5431650000000  0.4975740000000 1.0
C      1  0.4952730000000  0.5234730000000  0.4467430000000 1.0
C      1  0.4741910000000  0.4866880000000  0.5154640000000 1.0
C      1  0.5520310000000  0.5442600000000  0.4865610000000 1.0
C      1  0.4249520000000  0.4845990000000  0.5064860000000 1.0
C      1  0.5152020000000  0.4215350000000  0.4858800000000 1.0
C      1  0.5208160000000  0.4848160000000  0.5007000000000 1.0
C      1  0.5344010000000  0.5437370000000  0.4636500000000 1.0
C      1  0.4993980000000  0.4980760000000  0.5108490000000 1.0
C      1  0.5218600000000  0.5394840000000  0.5279530000000 1.0
C      1  0.5192720000000  0.5458290000000  0.5554100000000 1.0
C      1  0.5187940000000  0.5064700000000  0.4403680000000 1.0
C      1  0.5476630000000  0.4698200000000  0.5565800000000 1.0
C      1  0.4693540000000  0.5131010000000  0.4400590000000 1.0
C      1  0.5040470000000  0.4347250000000  0.4637340000000 1.0
C      1  0.5608740000000  0.5480380000000  0.5893780000000 1.0
C      1  0.5679350000000  0.5120190000000  0.4577980000000 1.0
C      1  0.4827140000000  0.5842520000000  0.5248260000000 1.0
C      1  0.4428960000000  0.5378350000000  0.4734760000000 1.0
C      1  0.4237340000000  0.4751800000000  0.4798570000000 1.0
C      1  0.4864710000000  0.4738920000000  0.5631910000000 1.0
C      1  0.5056210000000  0.5474530000000  0.4613840000000 1.0
END
