TITL C-627107-135-1084 3.83184734494485e-07 125000 -575.965403482306 0 0 95 (C1) n - 1
REM
REM in /home/nfs/bkarasulu/CARBON/AIRSS/Generating-Clusters/LCBOP/Only-C1/SD-CG/FIRE-CG
REM
REM
REM
REM
REM
REM ./C.cell (11c1c37f851c82e70ff6c80c92926a4b)
REM AIRSS Version 0.9.1 bugfix July 2018 build 013d7b7c2542+ Fri, 06 Jul 2018 19:26:36 +0100
REM compiler GCC version 9.2.1 20190827 (Red Hat 9.2.1-1)
REM options -cpp -mtune=generic -march=x86-64 -g -O0 -fpre-include=/usr/include/finclude/math-vector-fortran.h
REM seed -433414734 -778342414 183923095 1473978619 -1461122317 1341750729 1567253012 676913415 -683164780 -1817065132 520093951 296573200 968318184 2036784197 -149818549 -1559661408 560518734 -780511219 -1516340706 677009158 375568147 -755090558 -1752244860 1328600592 -606053146 972243658 -342647968 325669491 -739623028 -1015614565 -537567653 -1576882804 1636840413
REM
CELL 1.54180   50.00000   50.00000   50.00000   90.00000   90.00000   90.00000
LATT -1
SFAC C  
C      1  0.5811890000000  0.5400820000000  0.5790670000000 1.0
C      1  0.4171640000000  0.4406220000000  0.3957250000000 1.0
C      1  0.4284790000000  0.4839480000000  0.4127500000000 1.0
C      1  0.5789670000000  0.5240550000000  0.5328930000000 1.0
C      1  0.5365060000000  0.5203940000000  0.4140080000000 1.0
C      1  0.4349220000000  0.3907720000000  0.5753600000000 1.0
C      1  0.4801050000000  0.4691130000000  0.5315140000000 1.0
C      1  0.5200360000000  0.4808670000000  0.4715520000000 1.0
C      1  0.5194980000000  0.5152780000000  0.5442440000000 1.0
C      1  0.4849460000000  0.5044240000000  0.4468370000000 1.0
C      1  0.5211050000000  0.5308940000000  0.4984360000000 1.0
C      1  0.5490020000000  0.4711070000000  0.5690250000000 1.0
C      1  0.4890090000000  0.5710260000000  0.5335670000000 1.0
C      1  0.5060460000000  0.4855780000000  0.4463850000000 1.0
C      1  0.4543170000000  0.4956380000000  0.4075920000000 1.0
C      1  0.4235200000000  0.4788930000000  0.5710820000000 1.0
C      1  0.5233690000000  0.4708830000000  0.5815750000000 1.0
C      1  0.5459900000000  0.4912310000000  0.4800520000000 1.0
C      1  0.4613660000000  0.5009960000000  0.5957440000000 1.0
C      1  0.4633740000000  0.5114930000000  0.4299040000000 1.0
C      1  0.4429120000000  0.4994510000000  0.5745590000000 1.0
C      1  0.5643130000000  0.4952570000000  0.5693340000000 1.0
C      1  0.4794760000000  0.4289020000000  0.5058460000000 1.0
C      1  0.5499300000000  0.4958900000000  0.5077990000000 1.0
C      1  0.4131070000000  0.4677080000000  0.3958610000000 1.0
C      1  0.4963510000000  0.3840360000000  0.5185260000000 1.0
C      1  0.5093060000000  0.4594510000000  0.4045140000000 1.0
C      1  0.5313850000000  0.4385760000000  0.4890290000000 1.0
C      1  0.4153630000000  0.5238300000000  0.4864890000000 1.0
C      1  0.3941700000000  0.4790770000000  0.3796700000000 1.0
C      1  0.4488620000000  0.4118890000000  0.5690970000000 1.0
C      1  0.5440730000000  0.5861260000000  0.5502660000000 1.0
C      1  0.5588700000000  0.5901640000000  0.4879230000000 1.0
C      1  0.5293810000000  0.5123150000000  0.5184520000000 1.0
C      1  0.4695150000000  0.5699370000000  0.4890260000000 1.0
C      1  0.5781840000000  0.5247470000000  0.4664040000000 1.0
C      1  0.5757330000000  0.4988710000000  0.5188700000000 1.0
C      1  0.6011000000000  0.4572760000000  0.5325730000000 1.0
C      1  0.4320840000000  0.5362000000000  0.4661200000000 1.0
C      1  0.5592230000000  0.5688680000000  0.4470860000000 1.0
C      1  0.4817830000000  0.4523240000000  0.5547580000000 1.0
C      1  0.5434890000000  0.5876320000000  0.4633550000000 1.0
C      1  0.4792850000000  0.5107060000000  0.4736230000000 1.0
C      1  0.4504610000000  0.5111740000000  0.5496880000000 1.0
C      1  0.4652010000000  0.5671500000000  0.5193420000000 1.0
C      1  0.5568290000000  0.4477000000000  0.5531960000000 1.0
C      1  0.4462660000000  0.4940680000000  0.5079940000000 1.0
C      1  0.5005600000000  0.4103270000000  0.5126560000000 1.0
C      1  0.5939590000000  0.5352220000000  0.4887330000000 1.0
C      1  0.4346310000000  0.5306460000000  0.5334850000000 1.0
C      1  0.4983830000000  0.5782690000000  0.4865460000000 1.0
C      1  0.4148320000000  0.4620680000000  0.5518110000000 1.0
C      1  0.5583800000000  0.5449110000000  0.4633470000000 1.0
C      1  0.4275090000000  0.4428200000000  0.5026580000000 1.0
C      1  0.5608830000000  0.4542850000000  0.4467770000000 1.0
C      1  0.4621080000000  0.4910200000000  0.5315870000000 1.0
C      1  0.5669420000000  0.4990220000000  0.4614840000000 1.0
C      1  0.5846110000000  0.4440400000000  0.5491600000000 1.0
C      1  0.5099430000000  0.5786890000000  0.5149480000000 1.0
C      1  0.5810350000000  0.5460440000000  0.5135420000000 1.0
C      1  0.4247270000000  0.5670840000000  0.5012170000000 1.0
C      1  0.4179540000000  0.4557690000000  0.4791840000000 1.0
C      1  0.5425580000000  0.4929440000000  0.4198480000000 1.0
C      1  0.4380800000000  0.5179510000000  0.4449000000000 1.0
C      1  0.5073270000000  0.5330560000000  0.5600630000000 1.0
C      1  0.4624370000000  0.4332850000000  0.5613200000000 1.0
C      1  0.4606030000000  0.4936980000000  0.4847300000000 1.0
C      1  0.4386880000000  0.5578420000000  0.5254570000000 1.0
C      1  0.4868090000000  0.4986040000000  0.6039570000000 1.0
C      1  0.5114500000000  0.4600900000000  0.4886960000000 1.0
C      1  0.5147590000000  0.5785300000000  0.4622830000000 1.0
C      1  0.5517600000000  0.5647500000000  0.4204380000000 1.0
C      1  0.4217130000000  0.4930330000000  0.4398480000000 1.0
C      1  0.5046500000000  0.4534240000000  0.5704210000000 1.0
C      1  0.4895550000000  0.4563100000000  0.5070540000000 1.0
C      1  0.5960230000000  0.4796790000000  0.5187600000000 1.0
C      1  0.5288490000000  0.5473060000000  0.4195690000000 1.0
C      1  0.4147790000000  0.4741240000000  0.4597640000000 1.0
C      1  0.4959030000000  0.5273940000000  0.4877870000000 1.0
C      1  0.5117340000000  0.4894040000000  0.5994390000000 1.0
C      1  0.4515160000000  0.4273470000000  0.5019140000000 1.0
C      1  0.4429610000000  0.5612800000000  0.4774470000000 1.0
C      1  0.5400440000000  0.4314490000000  0.5366020000000 1.0
C      1  0.5270910000000  0.4226650000000  0.5126610000000 1.0
C      1  0.5365980000000  0.5765220000000  0.5257680000000 1.0
C      1  0.5501250000000  0.4393340000000  0.4672290000000 1.0
C      1  0.5568860000000  0.5656160000000  0.5067210000000 1.0
C      1  0.5183550000000  0.4778790000000  0.4222210000000 1.0
C      1  0.5417760000000  0.5465940000000  0.4873420000000 1.0
C      1  0.4257060000000  0.5138710000000  0.5106850000000 1.0
C      1  0.5749940000000  0.5205930000000  0.5609920000000 1.0
C      1  0.5627990000000  0.4823480000000  0.4383930000000 1.0
C      1  0.4164420000000  0.4497320000000  0.5279530000000 1.0
C      1  0.5100850000000  0.5599320000000  0.4391310000000 1.0
C      1  0.4949270000000  0.5565790000000  0.5567600000000 1.0
END
