TITL C-627113-6568-761 -7.76572080463103e-07 125000 -1092.11291425932 0 0 180 (C1) n - 1
REM
REM in /home/nfs/bkarasulu/CARBON/AIRSS/Generating-Clusters/LCBOP/Only-C1/SD-CG/FIRE-CG
REM
REM
REM
REM
REM
REM ./C.cell (11c1c37f851c82e70ff6c80c92926a4b)
REM AIRSS Version 0.9.1 bugfix July 2018 build 013d7b7c2542+ Fri, 06 Jul 2018 19:26:36 +0100
REM compiler GCC version 9.2.1 20190827 (Red Hat 9.2.1-1)
REM options -cpp -mtune=generic -march=x86-64 -g -O0 -fpre-include=/usr/include/finclude/math-vector-fortran.h
REM seed -1660150735 692580439 -1098946299 415381767 1816252363 509950029 19383803 -411183683 1715292304 1454907731 183391255 -1223869405 -664012607 153927951 1631608380 -1668048682 1614428434 -346641737 1533220909 -500345305 678214690 727227619 1587510462 -1988174330 -439247084 1275469925 630050324 831081674 -1765659459 -286493605 788541506 38864994 1427702669
REM
CELL 1.54180   50.00000   50.00000   50.00000   90.00000   90.00000   90.00000
LATT -1
SFAC C  
C      1  0.6013320000000  0.4689260000000  0.4862320000000 1.0
C      1  0.5765750000000  0.4187810000000  0.5312320000000 1.0
C      1  0.5573740000000  0.5529420000000  0.3912330000000 1.0
C      1  0.4370440000000  0.5337290000000  0.4223940000000 1.0
C      1  0.5394580000000  0.3725460000000  0.5349910000000 1.0
C      1  0.4720130000000  0.4086300000000  0.4368920000000 1.0
C      1  0.5233250000000  0.4529300000000  0.5664830000000 1.0
C      1  0.5166470000000  0.4833690000000  0.5134680000000 1.0
C      1  0.5788470000000  0.5345480000000  0.5384410000000 1.0
C      1  0.4474420000000  0.5597420000000  0.5165090000000 1.0
C      1  0.4753160000000  0.5422860000000  0.3892240000000 1.0
C      1  0.5426140000000  0.5022930000000  0.3957750000000 1.0
C      1  0.5199940000000  0.5532990000000  0.5685940000000 1.0
C      1  0.5236030000000  0.5281100000000  0.4283070000000 1.0
C      1  0.4281560000000  0.4667920000000  0.4652370000000 1.0
C      1  0.4074080000000  0.4182110000000  0.4050220000000 1.0
C      1  0.4367340000000  0.4818390000000  0.6079110000000 1.0
C      1  0.5121900000000  0.3971730000000  0.5632390000000 1.0
C      1  0.5218520000000  0.4571100000000  0.4024320000000 1.0
C      1  0.4935560000000  0.3840750000000  0.5446070000000 1.0
C      1  0.5965630000000  0.3974610000000  0.4414080000000 1.0
C      1  0.3761470000000  0.4951300000000  0.5811370000000 1.0
C      1  0.5385630000000  0.5142170000000  0.5499900000000 1.0
C      1  0.3786950000000  0.5240140000000  0.5448550000000 1.0
C      1  0.5884250000000  0.5244470000000  0.4222720000000 1.0
C      1  0.4955150000000  0.6237870000000  0.4572280000000 1.0
C      1  0.4452700000000  0.4168920000000  0.4442610000000 1.0
C      1  0.5938780000000  0.5888640000000  0.5090840000000 1.0
C      1  0.5230150000000  0.6108270000000  0.5721820000000 1.0
C      1  0.5810430000000  0.4765420000000  0.4352470000000 1.0
C      1  0.5496760000000  0.5816250000000  0.3901730000000 1.0
C      1  0.5463290000000  0.4483490000000  0.4151700000000 1.0
C      1  0.5059270000000  0.4667010000000  0.5874210000000 1.0
C      1  0.4873570000000  0.5244790000000  0.5403840000000 1.0
C      1  0.4896890000000  0.4831310000000  0.5039390000000 1.0
C      1  0.5124730000000  0.5328010000000  0.6210870000000 1.0
C      1  0.4742100000000  0.3839590000000  0.4246130000000 1.0
C      1  0.4069630000000  0.5778760000000  0.4890830000000 1.0
C      1  0.5401980000000  0.3934320000000  0.5558340000000 1.0
C      1  0.4464420000000  0.4689160000000  0.3978200000000 1.0
C      1  0.4549750000000  0.5746600000000  0.5902020000000 1.0
C      1  0.5423750000000  0.5594830000000  0.4876250000000 1.0
C      1  0.5592300000000  0.5891170000000  0.4538830000000 1.0
C      1  0.4959550000000  0.5226520000000  0.4313450000000 1.0
C      1  0.5939400000000  0.4419490000000  0.5337430000000 1.0
C      1  0.5488870000000  0.5391130000000  0.5361590000000 1.0
C      1  0.5628350000000  0.4891140000000  0.5166690000000 1.0
C      1  0.5186640000000  0.4457290000000  0.5384410000000 1.0
C      1  0.5367090000000  0.5950220000000  0.4126120000000 1.0
C      1  0.5169900000000  0.5851930000000  0.6132580000000 1.0
C      1  0.4273800000000  0.5772220000000  0.5066460000000 1.0
C      1  0.4988410000000  0.5758820000000  0.4407420000000 1.0
C      1  0.5766930000000  0.5492260000000  0.4150010000000 1.0
C      1  0.5693380000000  0.4016960000000  0.5085210000000 1.0
C      1  0.5246820000000  0.4815730000000  0.3847950000000 1.0
C      1  0.4834320000000  0.4354440000000  0.5051000000000 1.0
C      1  0.5653450000000  0.5454050000000  0.4961310000000 1.0
C      1  0.5878280000000  0.5119300000000  0.5567880000000 1.0
C      1  0.4451080000000  0.4861290000000  0.5308350000000 1.0
C      1  0.5689240000000  0.5647030000000  0.5769410000000 1.0
C      1  0.5510960000000  0.4752460000000  0.5976730000000 1.0
C      1  0.5394360000000  0.6033640000000  0.6155570000000 1.0
C      1  0.4834300000000  0.4588010000000  0.4878290000000 1.0
C      1  0.4256930000000  0.3951380000000  0.4833110000000 1.0
C      1  0.4963060000000  0.4245730000000  0.4378880000000 1.0
C      1  0.6042700000000  0.5405680000000  0.5243340000000 1.0
C      1  0.4250700000000  0.4439970000000  0.4815460000000 1.0
C      1  0.4502470000000  0.4107460000000  0.5436860000000 1.0
C      1  0.5674140000000  0.5835630000000  0.5572950000000 1.0
C      1  0.4334510000000  0.4188140000000  0.4705120000000 1.0
C      1  0.5360380000000  0.5523930000000  0.4320820000000 1.0
C      1  0.3950680000000  0.5693540000000  0.4665370000000 1.0
C      1  0.6196190000000  0.5154520000000  0.5254280000000 1.0
C      1  0.3897000000000  0.5671880000000  0.5648090000000 1.0
C      1  0.4770830000000  0.5077410000000  0.5603970000000 1.0
C      1  0.5336610000000  0.5278350000000  0.5785320000000 1.0
C      1  0.5620880000000  0.5381230000000  0.5857870000000 1.0
C      1  0.4102910000000  0.5434230000000  0.4243960000000 1.0
C      1  0.4815010000000  0.5363580000000  0.4502660000000 1.0
C      1  0.4311620000000  0.4577780000000  0.5297180000000 1.0
C      1  0.5232370000000  0.5555170000000  0.5391880000000 1.0
C      1  0.5539000000000  0.5977580000000  0.5355710000000 1.0
C      1  0.4803170000000  0.4604690000000  0.5978950000000 1.0
C      1  0.4381720000000  0.4430270000000  0.5795770000000 1.0
C      1  0.5733520000000  0.4922860000000  0.5989960000000 1.0
C      1  0.4721820000000  0.4542810000000  0.5501340000000 1.0
C      1  0.4988440000000  0.3410680000000  0.4674160000000 1.0
C      1  0.4468210000000  0.5121450000000  0.4672740000000 1.0
C      1  0.5794760000000  0.5150310000000  0.5835650000000 1.0
C      1  0.5037520000000  0.5946310000000  0.5882870000000 1.0
C      1  0.4883810000000  0.4975450000000  0.4229800000000 1.0
C      1  0.3630630000000  0.4388390000000  0.5210010000000 1.0
C      1  0.4960740000000  0.4507490000000  0.4211340000000 1.0
C      1  0.4499320000000  0.4839780000000  0.4604160000000 1.0
C      1  0.4988910000000  0.5554460000000  0.4622310000000 1.0
C      1  0.5799500000000  0.4021490000000  0.4609300000000 1.0
C      1  0.4268430000000  0.4191880000000  0.4230070000000 1.0
C      1  0.5422750000000  0.4647370000000  0.4610640000000 1.0
C      1  0.5368100000000  0.4486540000000  0.4848250000000 1.0
C      1  0.5439760000000  0.6094290000000  0.4375800000000 1.0
C      1  0.5206640000000  0.5743940000000  0.4243730000000 1.0
C      1  0.4639710000000  0.4947300000000  0.5081170000000 1.0
C      1  0.5425830000000  0.6183990000000  0.5924370000000 1.0
C      1  0.5250630000000  0.4876820000000  0.4513550000000 1.0
C      1  0.5622590000000  0.4084040000000  0.4816360000000 1.0
C      1  0.4908150000000  0.4426340000000  0.5327710000000 1.0
C      1  0.5058820000000  0.6086410000000  0.5266250000000 1.0
C      1  0.5659250000000  0.5958310000000  0.5081520000000 1.0
C      1  0.5801530000000  0.5043000000000  0.4405720000000 1.0
C      1  0.4675820000000  0.5204650000000  0.5834710000000 1.0
C      1  0.6233510000000  0.4591380000000  0.4762580000000 1.0
C      1  0.4163640000000  0.3732530000000  0.4939500000000 1.0
C      1  0.4346070000000  0.5553060000000  0.5905440000000 1.0
C      1  0.4508710000000  0.5253670000000  0.3979750000000 1.0
C      1  0.5218350000000  0.6235700000000  0.4498100000000 1.0
C      1  0.5375420000000  0.5305700000000  0.3840060000000 1.0
C      1  0.5791530000000  0.5270850000000  0.4827410000000 1.0
C      1  0.4419470000000  0.5277160000000  0.5927890000000 1.0
C      1  0.4755140000000  0.5673880000000  0.5207730000000 1.0
C      1  0.6043300000000  0.4664460000000  0.5407560000000 1.0
C      1  0.4041620000000  0.5011620000000  0.5776350000000 1.0
C      1  0.4720160000000  0.3972010000000  0.5313430000000 1.0
C      1  0.5599450000000  0.3757150000000  0.5161890000000 1.0
C      1  0.5117810000000  0.3653410000000  0.5312550000000 1.0
C      1  0.4394330000000  0.5323100000000  0.5154520000000 1.0
C      1  0.4815980000000  0.4943300000000  0.3961660000000 1.0
C      1  0.5621420000000  0.4117030000000  0.5557400000000 1.0
C      1  0.4572690000000  0.5901790000000  0.4466890000000 1.0
C      1  0.5374730000000  0.4214480000000  0.4756590000000 1.0
C      1  0.5375820000000  0.4961320000000  0.5280300000000 1.0
C      1  0.5646900000000  0.4299020000000  0.5769690000000 1.0
C      1  0.5361750000000  0.5026950000000  0.4238810000000 1.0
C      1  0.3957170000000  0.5567760000000  0.4427770000000 1.0
C      1  0.5127430000000  0.5596590000000  0.6241830000000 1.0
C      1  0.5281650000000  0.6086300000000  0.5439170000000 1.0
C      1  0.4250410000000  0.5047710000000  0.5961060000000 1.0
C      1  0.4783510000000  0.4072940000000  0.5047230000000 1.0
C      1  0.4673960000000  0.4522710000000  0.4061250000000 1.0
C      1  0.4839980000000  0.3881620000000  0.4853650000000 1.0
C      1  0.4665950000000  0.4826530000000  0.5523190000000 1.0
C      1  0.4517380000000  0.5166770000000  0.4946270000000 1.0
C      1  0.4740270000000  0.5687930000000  0.4002390000000 1.0
C      1  0.4701490000000  0.6132320000000  0.4584850000000 1.0
C      1  0.4090800000000  0.5641820000000  0.5829810000000 1.0
C      1  0.4282050000000  0.5120240000000  0.5337280000000 1.0
C      1  0.4516310000000  0.5361320000000  0.4495390000000 1.0
C      1  0.5526920000000  0.5862470000000  0.4829810000000 1.0
C      1  0.4846890000000  0.5940710000000  0.5188720000000 1.0
C      1  0.4961960000000  0.5489460000000  0.5295430000000 1.0
C      1  0.5493180000000  0.4527660000000  0.5800460000000 1.0
C      1  0.5223500000000  0.5424560000000  0.4756220000000 1.0
C      1  0.4455680000000  0.5660500000000  0.4575790000000 1.0
C      1  0.4758950000000  0.4703700000000  0.4623590000000 1.0
C      1  0.5628050000000  0.5627530000000  0.4375740000000 1.0
C      1  0.4968840000000  0.4756320000000  0.4413170000000 1.0
C      1  0.5208910000000  0.5141570000000  0.6014890000000 1.0
C      1  0.4454240000000  0.4393760000000  0.5507330000000 1.0
C      1  0.4151700000000  0.4476810000000  0.5083080000000 1.0
C      1  0.6082680000000  0.5667550000000  0.5150090000000 1.0
C      1  0.5282830000000  0.4558740000000  0.5118100000000 1.0
C      1  0.3884970000000  0.4178160000000  0.3870850000000 1.0
C      1  0.5181470000000  0.4165660000000  0.4549530000000 1.0
C      1  0.5238600000000  0.4859470000000  0.6009480000000 1.0
C      1  0.3612870000000  0.5074870000000  0.5612830000000 1.0
C      1  0.4057090000000  0.5128830000000  0.5503620000000 1.0
C      1  0.5059840000000  0.5285190000000  0.3781010000000 1.0
C      1  0.4907430000000  0.3646140000000  0.4751390000000 1.0
C      1  0.3383760000000  0.4368730000000  0.5291410000000 1.0
C      1  0.5648770000000  0.5127120000000  0.4637230000000 1.0
C      1  0.3770250000000  0.5520200000000  0.5465290000000 1.0
C      1  0.5339110000000  0.5130960000000  0.4694490000000 1.0
C      1  0.5805720000000  0.4786730000000  0.4996980000000 1.0
C      1  0.4535470000000  0.4965830000000  0.3926490000000 1.0
C      1  0.6071860000000  0.4950380000000  0.5429100000000 1.0
C      1  0.3883090000000  0.4418480000000  0.5135630000000 1.0
C      1  0.5597010000000  0.4581620000000  0.4384580000000 1.0
C      1  0.4749520000000  0.5811380000000  0.4256780000000 1.0
C      1  0.4517260000000  0.4599120000000  0.5982990000000 1.0
C      1  0.5019490000000  0.4982580000000  0.3774700000000 1.0
C      1  0.4768420000000  0.5886240000000  0.5845830000000 1.0
END
