TITL C-627112-676-1556 2.42451250502242 125000 -689.354943327578 0 0 116 (C1) n - 1
REM
REM in /home/nfs/bkarasulu/CARBON/AIRSS/Generating-Clusters/LCBOP/Only-C1/SD-CG/FIRE-CG
REM
REM
REM
REM
REM
REM ./C.cell (11c1c37f851c82e70ff6c80c92926a4b)
REM AIRSS Version 0.9.1 bugfix July 2018 build 013d7b7c2542+ Fri, 06 Jul 2018 19:26:36 +0100
REM compiler GCC version 9.2.1 20190827 (Red Hat 9.2.1-1)
REM options -cpp -mtune=generic -march=x86-64 -g -O0 -fpre-include=/usr/include/finclude/math-vector-fortran.h
REM seed -1290677934 580848207 -163704589 -1949373575 1160420896 885090710 -1161228818 -591428752 789091108 819083380 -1692839248 668713964 -1759927769 1027610880 444181210 533308226 541999380 -746489953 -673002267 -1277692830 1553457299 1176369683 -892670530 1138026821 -982864575 -620995971 1966923887 -1488050497 -1066961869 704734514 887881148 -280258120 -882777655
REM
CELL 1.54180   50.00000   50.00000   50.00000   90.00000   90.00000   90.00000
LATT -1
SFAC C  
C      1  0.4219960000000  0.5070510000000  0.5753790000000 1.0
C      1  0.5136710000000  0.5266560000000  0.5996490000000 1.0
C      1  0.4109500000000  0.4760760000000  0.4826830000000 1.0
C      1  0.5443860000000  0.4308960000000  0.5787030000000 1.0
C      1  0.5367170000000  0.5356680000000  0.5185500000000 1.0
C      1  0.4197750000000  0.4741480000000  0.4540710000000 1.0
C      1  0.4879660000000  0.4533890000000  0.4172040000000 1.0
C      1  0.4841260000000  0.5585050000000  0.5036780000000 1.0
C      1  0.4839960000000  0.5602600000000  0.5608980000000 1.0
C      1  0.5244990000000  0.4809770000000  0.4489200000000 1.0
C      1  0.4493860000000  0.4302590000000  0.5289400000000 1.0
C      1  0.5032210000000  0.4810960000000  0.5140430000000 1.0
C      1  0.5151350000000  0.4009750000000  0.5525660000000 1.0
C      1  0.4038600000000  0.4986690000000  0.5020860000000 1.0
C      1  0.4024910000000  0.5467310000000  0.5153060000000 1.0
C      1  0.4842960000000  0.5133800000000  0.5450490000000 1.0
C      1  0.4903970000000  0.4271040000000  0.4598950000000 1.0
C      1  0.4473030000000  0.5374200000000  0.4687940000000 1.0
C      1  0.5902940000000  0.5273710000000  0.5384750000000 1.0
C      1  0.5528470000000  0.4984400000000  0.4846540000000 1.0
C      1  0.5556080000000  0.4216980000000  0.4397720000000 1.0
C      1  0.4713980000000  0.4074630000000  0.4661020000000 1.0
C      1  0.5934960000000  0.4630330000000  0.4708640000000 1.0
C      1  0.5005550000000  0.4425600000000  0.4821280000000 1.0
C      1  0.5278350000000  0.4167310000000  0.4296340000000 1.0
C      1  0.4987750000000  0.5131970000000  0.4172400000000 1.0
C      1  0.5367900000000  0.5870220000000  0.4915090000000 1.0
C      1  0.5625220000000  0.5089500000000  0.4604550000000 1.0
C      1  0.5631060000000  0.5797310000000  0.4755070000000 1.0
C      1  0.5379230000000  0.4584330000000  0.4559740000000 1.0
C      1  0.5151220000000  0.5963070000000  0.4730500000000 1.0
C      1  0.4061600000000  0.5687670000000  0.5324720000000 1.0
C      1  0.4975730000000  0.4811240000000  0.4492240000000 1.0
C      1  0.5749790000000  0.5717260000000  0.5265250000000 1.0
C      1  0.5282490000000  0.4656300000000  0.5526500000000 1.0
C      1  0.5044890000000  0.4492270000000  0.5628020000000 1.0
C      1  0.5755460000000  0.5338040000000  0.4643360000000 1.0
C      1  0.5634440000000  0.4181920000000  0.4683840000000 1.0
C      1  0.4568230000000  0.4000330000000  0.4872440000000 1.0
C      1  0.4356620000000  0.4534970000000  0.4389000000000 1.0
C      1  0.5424490000000  0.6042460000000  0.5147960000000 1.0
C      1  0.5810700000000  0.5680090000000  0.4972580000000 1.0
C      1  0.4200310000000  0.4538980000000  0.4985510000000 1.0
C      1  0.5405320000000  0.4142180000000  0.4843400000000 1.0
C      1  0.5617150000000  0.5961910000000  0.5322420000000 1.0
C      1  0.4187280000000  0.5660210000000  0.5575120000000 1.0
C      1  0.3895930000000  0.6175050000000  0.5161240000000 1.0
C      1  0.4782150000000  0.5702850000000  0.4467370000000 1.0
C      1  0.4069420000000  0.5272030000000  0.4951990000000 1.0
C      1  0.4399840000000  0.4552990000000  0.5189430000000 1.0
C      1  0.4504410000000  0.4828980000000  0.5232410000000 1.0
C      1  0.5296520000000  0.4426230000000  0.4834220000000 1.0
C      1  0.5022940000000  0.4312680000000  0.4331100000000 1.0
C      1  0.4598040000000  0.5220840000000  0.4893770000000 1.0
C      1  0.5271810000000  0.5464460000000  0.4723030000000 1.0
C      1  0.5322310000000  0.4773020000000  0.5249250000000 1.0
C      1  0.5179130000000  0.4230160000000  0.5697140000000 1.0
C      1  0.5310740000000  0.5575610000000  0.4998000000000 1.0
C      1  0.5331290000000  0.4823990000000  0.3981570000000 1.0
C      1  0.5719130000000  0.5488790000000  0.5450560000000 1.0
C      1  0.5214450000000  0.3922470000000  0.5280750000000 1.0
C      1  0.4029880000000  0.5494660000000  0.4517530000000 1.0
C      1  0.5102950000000  0.5245150000000  0.4781980000000 1.0
C      1  0.4951790000000  0.5884660000000  0.4567990000000 1.0
C      1  0.4650480000000  0.5453640000000  0.4462830000000 1.0
C      1  0.4021030000000  0.4927520000000  0.5324000000000 1.0
C      1  0.4564950000000  0.5010870000000  0.4386100000000 1.0
C      1  0.4612590000000  0.5238520000000  0.6026560000000 1.0
C      1  0.5410770000000  0.5090260000000  0.5265090000000 1.0
C      1  0.5970670000000  0.5252370000000  0.5107570000000 1.0
C      1  0.5891870000000  0.5414140000000  0.4889060000000 1.0
C      1  0.6086070000000  0.4931750000000  0.5763950000000 1.0
C      1  0.5603840000000  0.4910730000000  0.4073890000000 1.0
C      1  0.5315500000000  0.3964340000000  0.5037060000000 1.0
C      1  0.4670610000000  0.4769710000000  0.4821250000000 1.0
C      1  0.4284960000000  0.4981760000000  0.4406990000000 1.0
C      1  0.6005950000000  0.5101860000000  0.5577340000000 1.0
C      1  0.4970780000000  0.5353600000000  0.5585120000000 1.0
C      1  0.4589210000000  0.4746830000000  0.5685520000000 1.0
C      1  0.4765540000000  0.5793720000000  0.5184980000000 1.0
C      1  0.5753460000000  0.4484350000000  0.4868010000000 1.0
C      1  0.4584440000000  0.4521510000000  0.4225150000000 1.0
C      1  0.4875590000000  0.5296990000000  0.4970270000000 1.0
C      1  0.4887780000000  0.4641060000000  0.4956040000000 1.0
C      1  0.4940090000000  0.5085800000000  0.5188100000000 1.0
C      1  0.4041220000000  0.5138410000000  0.5527780000000 1.0
C      1  0.4878120000000  0.5233450000000  0.6079420000000 1.0
C      1  0.4302850000000  0.5535260000000  0.5781600000000 1.0
C      1  0.4374450000000  0.5278040000000  0.5875500000000 1.0
C      1  0.3973570000000  0.5940070000000  0.5242950000000 1.0
C      1  0.5226100000000  0.5341900000000  0.5732400000000 1.0
C      1  0.4187090000000  0.5379500000000  0.4709680000000 1.0
C      1  0.5041330000000  0.4835000000000  0.4063440000000 1.0
C      1  0.5485510000000  0.5436110000000  0.5630800000000 1.0
C      1  0.4110300000000  0.4698090000000  0.5496640000000 1.0
C      1  0.5386400000000  0.5043330000000  0.4436980000000 1.0
C      1  0.5948900000000  0.4734530000000  0.4454030000000 1.0
C      1  0.4729780000000  0.5226870000000  0.4290430000000 1.0
C      1  0.4298030000000  0.4784400000000  0.5720760000000 1.0
C      1  0.4757740000000  0.4512330000000  0.5661430000000 1.0
C      1  0.5503540000000  0.4566830000000  0.5022750000000 1.0
C      1  0.5472330000000  0.5415400000000  0.4226620000000 1.0
C      1  0.4639660000000  0.4930600000000  0.5472070000000 1.0
C      1  0.4763000000000  0.5805890000000  0.5452900000000 1.0
C      1  0.6158160000000  0.4761210000000  0.5947470000000 1.0
C      1  0.5650880000000  0.5214740000000  0.4085440000000 1.0
C      1  0.5738290000000  0.4714260000000  0.4255720000000 1.0
C      1  0.5542550000000  0.5551520000000  0.4549520000000 1.0
C      1  0.4713980000000  0.4840950000000  0.4557730000000 1.0
C      1  0.5260530000000  0.5025380000000  0.4859870000000 1.0
C      1  0.5507280000000  0.4556280000000  0.5681330000000 1.0
C      1  0.4497340000000  0.4082280000000  0.5116380000000 1.0
C      1  0.5572290000000  0.4502580000000  0.4363300000000 1.0
C      1  0.4539070000000  0.4960720000000  0.4982090000000 1.0
C      1  0.5245750000000  0.5242530000000  0.4277520000000 1.0
C      1  0.4616120000000  0.4297820000000  0.5541070000000 1.0
END
