TITL C-627110-360-1741 0.0611600270456307 125000 -416.815088655398 0 0 70 (C1) n - 1
REM
REM in /home/nfs/bkarasulu/CARBON/AIRSS/Generating-Clusters/LCBOP/Only-C1/SD-CG/FIRE-CG
REM
REM
REM
REM
REM
REM ./C.cell (11c1c37f851c82e70ff6c80c92926a4b)
REM AIRSS Version 0.9.1 bugfix July 2018 build 013d7b7c2542+ Fri, 06 Jul 2018 19:26:36 +0100
REM compiler GCC version 9.2.1 20190827 (Red Hat 9.2.1-1)
REM options -cpp -mtune=generic -march=x86-64 -g -O0 -fpre-include=/usr/include/finclude/math-vector-fortran.h
REM seed -1960926385 1108348783 -2077657336 -1966485916 -969380848 -923754574 780342098 -1719396990 1555216414 1651078463 -1981011185 604687479 -1329992509 503210022 1644510319 -1457901077 -1605155114 1190803890 -1079468767 -323102889 1400320745 -914286289 -1103375083 -211765596 2102400147 -1013876102 -13470057 -870353093 -722817471 -1616908140 2012852510 -646245213 639775568
REM
CELL 1.54180   50.00000   50.00000   50.00000   90.00000   90.00000   90.00000
LATT -1
SFAC C  
C      1  0.5473500000000  0.4622300000000  0.4740250000000 1.0
C      1  0.4702690000000  0.4574410000000  0.4255610000000 1.0
C      1  0.4895270000000  0.5380290000000  0.4140190000000 1.0
C      1  0.4143160000000  0.5385760000000  0.5185980000000 1.0
C      1  0.4252320000000  0.4489170000000  0.5424470000000 1.0
C      1  0.6584010000000  0.5264350000000  0.4644290000000 1.0
C      1  0.5128680000000  0.5233230000000  0.5694450000000 1.0
C      1  0.4810310000000  0.4962260000000  0.6016720000000 1.0
C      1  0.4879730000000  0.4527500000000  0.5017530000000 1.0
C      1  0.4553580000000  0.4995250000000  0.4080640000000 1.0
C      1  0.4264180000000  0.4744970000000  0.4706030000000 1.0
C      1  0.5306480000000  0.5054990000000  0.5245590000000 1.0
C      1  0.4849060000000  0.4393530000000  0.6336010000000 1.0
C      1  0.4237700000000  0.5596970000000  0.5052440000000 1.0
C      1  0.4643630000000  0.4739470000000  0.6062580000000 1.0
C      1  0.4666150000000  0.4603580000000  0.6312070000000 1.0
C      1  0.5212330000000  0.4487460000000  0.4312510000000 1.0
C      1  0.4993710000000  0.5133230000000  0.5922410000000 1.0
C      1  0.4070310000000  0.4919620000000  0.5359560000000 1.0
C      1  0.4456660000000  0.4643210000000  0.5874990000000 1.0
C      1  0.5148520000000  0.5046140000000  0.5479630000000 1.0
C      1  0.4510440000000  0.4678590000000  0.6524170000000 1.0
C      1  0.4774470000000  0.4786900000000  0.5029820000000 1.0
C      1  0.6090360000000  0.5207150000000  0.4698510000000 1.0
C      1  0.4914740000000  0.5360040000000  0.4423130000000 1.0
C      1  0.4140440000000  0.4667450000000  0.5220510000000 1.0
C      1  0.4345980000000  0.4232290000000  0.5379440000000 1.0
C      1  0.4073420000000  0.4848830000000  0.5639910000000 1.0
C      1  0.4682840000000  0.5775220000000  0.5104390000000 1.0
C      1  0.4710720000000  0.4897670000000  0.5282010000000 1.0
C      1  0.4707240000000  0.5206710000000  0.4021250000000 1.0
C      1  0.5080150000000  0.5103180000000  0.4806090000000 1.0
C      1  0.5416080000000  0.4546090000000  0.4474870000000 1.0
C      1  0.4448400000000  0.3997750000000  0.5330390000000 1.0
C      1  0.4548070000000  0.5563870000000  0.4687480000000 1.0
C      1  0.5368270000000  0.4450820000000  0.4938130000000 1.0
C      1  0.4617900000000  0.5076070000000  0.4662710000000 1.0
C      1  0.5139200000000  0.5258490000000  0.4566890000000 1.0
C      1  0.6000280000000  0.5416560000000  0.5184480000000 1.0
C      1  0.5611840000000  0.5079880000000  0.4601490000000 1.0
C      1  0.6472630000000  0.4990460000000  0.4109210000000 1.0
C      1  0.6054840000000  0.5319350000000  0.4948920000000 1.0
C      1  0.6285660000000  0.5051950000000  0.4303780000000 1.0
C      1  0.4681830000000  0.5986850000000  0.5303510000000 1.0
C      1  0.4169170000000  0.4660250000000  0.4941770000000 1.0
C      1  0.5044760000000  0.5556070000000  0.3995150000000 1.0
C      1  0.4449390000000  0.4879960000000  0.4542640000000 1.0
C      1  0.5021430000000  0.4198730000000  0.6352200000000 1.0
C      1  0.5872330000000  0.4878130000000  0.4082390000000 1.0
C      1  0.5507910000000  0.4899870000000  0.4800490000000 1.0
C      1  0.4952760000000  0.4481940000000  0.4252600000000 1.0
C      1  0.4229310000000  0.5141220000000  0.5286880000000 1.0
C      1  0.6648680000000  0.4932560000000  0.3926000000000 1.0
C      1  0.4920370000000  0.4880520000000  0.5464920000000 1.0
C      1  0.5881530000000  0.5093680000000  0.4533580000000 1.0
C      1  0.6340770000000  0.5181560000000  0.4556400000000 1.0
C      1  0.5008130000000  0.5687250000000  0.5459030000000 1.0
C      1  0.5305050000000  0.5021520000000  0.4965760000000 1.0
C      1  0.4825390000000  0.4979270000000  0.4830700000000 1.0
C      1  0.4481350000000  0.5675740000000  0.4936200000000 1.0
C      1  0.4534110000000  0.4797940000000  0.4281590000000 1.0
C      1  0.4666980000000  0.5341360000000  0.4568510000000 1.0
C      1  0.5116790000000  0.4403330000000  0.5018840000000 1.0
C      1  0.4866310000000  0.5936280000000  0.5505510000000 1.0
C      1  0.4505080000000  0.5085420000000  0.5305830000000 1.0
C      1  0.5130430000000  0.5506350000000  0.5630410000000 1.0
C      1  0.6001970000000  0.4997480000000  0.4288990000000 1.0
C      1  0.4253370000000  0.4626280000000  0.5684940000000 1.0
C      1  0.4907880000000  0.5609600000000  0.5194460000000 1.0
C      1  0.5410950000000  0.5247830000000  0.4489160000000 1.0
END
