TITL C-627112-676-354 0.115088077339703 125000 -332.348242042096 0 0 56 (C1) n - 1
REM
REM in /home/nfs/bkarasulu/CARBON/AIRSS/Generating-Clusters/LCBOP/Only-C1/SD-CG/FIRE-CG
REM
REM
REM
REM
REM
REM ./C.cell (11c1c37f851c82e70ff6c80c92926a4b)
REM AIRSS Version 0.9.1 bugfix July 2018 build 013d7b7c2542+ Fri, 06 Jul 2018 19:26:36 +0100
REM compiler GCC version 9.2.1 20190827 (Red Hat 9.2.1-1)
REM options -cpp -mtune=generic -march=x86-64 -g -O0 -fpre-include=/usr/include/finclude/math-vector-fortran.h
REM seed -512560995 -694065028 1433156449 -793853814 -1218209542 -2138539452 356758193 584363629 -155077972 1720669473 -1216783314 252536045 1909975878 1063433906 -410498769 582824335 1580599009 1477486807 -1599348290 1282826230 1740864024 2141770095 623680709 -721314147 1521733896 799699153 212905493 -2105712096 142035709 -1055978302 -785104067 -478937437 1865574827
REM
CELL 1.54180   50.00000   50.00000   50.00000   90.00000   90.00000   90.00000
LATT -1
SFAC C  
C      1  0.5048330000000  0.5858080000000  0.5558950000000 1.0
C      1  0.5374570000000  0.4630560000000  0.5215090000000 1.0
C      1  0.5443560000000  0.4086550000000  0.4467490000000 1.0
C      1  0.5356310000000  0.5485740000000  0.5363090000000 1.0
C      1  0.4940210000000  0.4926490000000  0.4479100000000 1.0
C      1  0.4835360000000  0.4246220000000  0.4905030000000 1.0
C      1  0.5320740000000  0.4385350000000  0.4829810000000 1.0
C      1  0.4256130000000  0.4703760000000  0.4732410000000 1.0
C      1  0.4696140000000  0.4813480000000  0.4559250000000 1.0
C      1  0.4655200000000  0.5430300000000  0.4268740000000 1.0
C      1  0.4560410000000  0.5465630000000  0.5579960000000 1.0
C      1  0.4891640000000  0.4744000000000  0.5280780000000 1.0
C      1  0.4657720000000  0.5488230000000  0.4751900000000 1.0
C      1  0.5640570000000  0.4934090000000  0.4708260000000 1.0
C      1  0.5240680000000  0.5283870000000  0.4659140000000 1.0
C      1  0.4762970000000  0.5374290000000  0.4513540000000 1.0
C      1  0.4375580000000  0.5297290000000  0.5432810000000 1.0
C      1  0.4636160000000  0.5885710000000  0.5023170000000 1.0
C      1  0.5421320000000  0.5466330000000  0.5084710000000 1.0
C      1  0.5982140000000  0.4623270000000  0.4864570000000 1.0
C      1  0.4016620000000  0.4791070000000  0.4804570000000 1.0
C      1  0.5126890000000  0.4756120000000  0.4359310000000 1.0
C      1  0.5072080000000  0.4377830000000  0.4980250000000 1.0
C      1  0.5123150000000  0.5659570000000  0.5376720000000 1.0
C      1  0.5053750000000  0.5264210000000  0.5697730000000 1.0
C      1  0.4786860000000  0.3713520000000  0.4973360000000 1.0
C      1  0.4585500000000  0.5326270000000  0.4976810000000 1.0
C      1  0.4785310000000  0.5735670000000  0.4834570000000 1.0
C      1  0.5345040000000  0.4325100000000  0.4555290000000 1.0
C      1  0.4990540000000  0.5200770000000  0.4541020000000 1.0
C      1  0.4820680000000  0.5265890000000  0.5130060000000 1.0
C      1  0.4790800000000  0.5337520000000  0.5703510000000 1.0
C      1  0.4903650000000  0.5005300000000  0.5177050000000 1.0
C      1  0.4523630000000  0.4637390000000  0.4691030000000 1.0
C      1  0.5092790000000  0.4564430000000  0.5204460000000 1.0
C      1  0.5469010000000  0.5122110000000  0.4631200000000 1.0
C      1  0.4630250000000  0.4399550000000  0.4792440000000 1.0
C      1  0.6233830000000  0.4542020000000  0.4878820000000 1.0
C      1  0.4794750000000  0.5887670000000  0.5651190000000 1.0
C      1  0.5071590000000  0.5718190000000  0.4820890000000 1.0
C      1  0.4669640000000  0.4683830000000  0.5441770000000 1.0
C      1  0.4519680000000  0.5856880000000  0.5265740000000 1.0
C      1  0.5511290000000  0.4555160000000  0.4972440000000 1.0
C      1  0.4358620000000  0.5329640000000  0.5147110000000 1.0
C      1  0.3788860000000  0.4886730000000  0.4887830000000 1.0
C      1  0.4447460000000  0.4801330000000  0.5534730000000 1.0
C      1  0.5260830000000  0.4526670000000  0.4378870000000 1.0
C      1  0.5297070000000  0.5294110000000  0.5571810000000 1.0
C      1  0.4579200000000  0.5751000000000  0.5523770000000 1.0
C      1  0.6485560000000  0.4460270000000  0.4893160000000 1.0
C      1  0.4927710000000  0.5497050000000  0.5248050000000 1.0
C      1  0.4806320000000  0.3971430000000  0.4941470000000 1.0
C      1  0.4323510000000  0.5039240000000  0.5534550000000 1.0
C      1  0.6733150000000  0.4379850000000  0.4907260000000 1.0
C      1  0.5715860000000  0.4703230000000  0.4849030000000 1.0
C      1  0.5262760000000  0.5504150000000  0.4844310000000 1.0
END
