TITL C-627113-6568-2052 29550.582241679 125000 -1220.94850781715 0 0 196 (C1) n - 1
REM
REM in /home/nfs/bkarasulu/CARBON/AIRSS/Generating-Clusters/LCBOP/Only-C1/SD-CG/FIRE-CG
REM
REM
REM
REM
REM
REM ./C.cell (11c1c37f851c82e70ff6c80c92926a4b)
REM AIRSS Version 0.9.1 bugfix July 2018 build 013d7b7c2542+ Fri, 06 Jul 2018 19:26:36 +0100
REM compiler GCC version 9.2.1 20190827 (Red Hat 9.2.1-1)
REM options -cpp -mtune=generic -march=x86-64 -g -O0 -fpre-include=/usr/include/finclude/math-vector-fortran.h
REM seed -1542341712 1164380580 2045610999 -199862890 -1611201296 -1799621749 1494208967 1837501858 846352048 -602824787 -923258902 -1697777745 -326714673 -2095770034 809741523 1539746610 -338390771 730922619 415040571 -2086265500 -1591574854 -1088143591 678909979 718426134 214889615 -303238137 30202834 -1457424290 -1224322637 -1169875034 -1733997569 384171845 -806953086
REM
CELL 1.54180   50.00000   50.00000   50.00000   90.00000   90.00000   90.00000
LATT -1
SFAC C  
C      1  0.4579590000000  0.4740170000000  0.4400200000000 1.0
C      1  0.4867290000000  0.5746650000000  0.5733950000000 1.0
C      1  0.4364670000000  0.4999170000000  0.3873160000000 1.0
C      1  0.4432850000000  0.5390160000000  0.5086350000000 1.0
C      1  0.6087950000000  0.5746930000000  0.5494520000000 1.0
C      1  0.5049570000000  0.4860280000000  0.6369650000000 1.0
C      1  0.4524310000000  0.5973820000000  0.5429540000000 1.0
C      1  0.6084100000000  0.4911040000000  0.4832050000000 1.0
C      1  0.5766690000000  0.4279590000000  0.4845450000000 1.0
C      1  0.4719400000000  0.5470030000000  0.5125360000000 1.0
C      1  0.5514840000000  0.5536500000000  0.4619780000000 1.0
C      1  0.5790090000000  0.4394330000000  0.5812000000000 1.0
C      1  0.5534380000000  0.5322280000000  0.4419420000000 1.0
C      1  0.4723670000000  0.6172380000000  0.5343970000000 1.0
C      1  0.5157620000000  0.4851190000000  0.5434820000000 1.0
C      1  0.5648720000000  0.6045050000000  0.5111180000000 1.0
C      1  0.4040550000000  0.4904710000000  0.4220730000000 1.0
C      1  0.4676090000000  0.4222970000000  0.5002220000000 1.0
C      1  0.5726930000000  0.4899120000000  0.3625630000000 1.0
C      1  0.5888870000000  0.4298170000000  0.5564790000000 1.0
C      1  0.5344070000000  0.3982140000000  0.3921830000000 1.0
C      1  0.5200160000000  0.3751690000000  0.4824200000000 1.0
C      1  0.6073270000000  0.4808500000000  0.5104900000000 1.0
C      1  0.5083350000000  0.3750250000000  0.4581610000000 1.0
C      1  0.3887520000000  0.4409730000000  0.5763920000000 1.0
C      1  0.4391010000000  0.4114550000000  0.4158680000000 1.0
C      1  0.4066950000000  0.4054250000000  0.5337950000000 1.0
C      1  0.4722630000000  0.5648080000000  0.4302550000000 1.0
C      1  0.4586120000000  0.5742790000000  0.4536980000000 1.0
C      1  0.4997370000000  0.6181250000000  0.5473560000000 1.0
C      1  0.5199530000000  0.5317040000000  0.5991000000000 1.0
C      1  0.6127140000000  0.5206020000000  0.4812660000000 1.0
C      1  0.5142020000000  0.4347220000000  0.4441090000000 1.0
C      1  0.5373440000000  0.3889010000000  0.5002730000000 1.0
C      1  0.5830890000000  0.6098710000000  0.5320570000000 1.0
C      1  0.3900730000000  0.5731300000000  0.4829790000000 1.0
C      1  0.5295960000000  0.4930620000000  0.4178900000000 1.0
C      1  0.4914870000000  0.4599060000000  0.3808640000000 1.0
C      1  0.4310170000000  0.5985470000000  0.4972220000000 1.0
C      1  0.4559790000000  0.5360170000000  0.5736810000000 1.0
C      1  0.3853060000000  0.5453270000000  0.4852610000000 1.0
C      1  0.5464630000000  0.4174930000000  0.3769210000000 1.0
C      1  0.4222830000000  0.5083840000000  0.4105330000000 1.0
C      1  0.5277000000000  0.5663060000000  0.5956280000000 1.0
C      1  0.5226950000000  0.4472770000000  0.4193090000000 1.0
C      1  0.4608870000000  0.5854850000000  0.5676110000000 1.0
C      1  0.4708360000000  0.4386720000000  0.4781740000000 1.0
C      1  0.5333600000000  0.5173650000000  0.4939720000000 1.0
C      1  0.5669180000000  0.5949060000000  0.4833210000000 1.0
C      1  0.5163640000000  0.5333990000000  0.3778530000000 1.0
C      1  0.4862980000000  0.4655740000000  0.6252700000000 1.0
C      1  0.4374440000000  0.4476590000000  0.5610520000000 1.0
C      1  0.4329790000000  0.4686610000000  0.5413950000000 1.0
C      1  0.5261350000000  0.4543160000000  0.4955800000000 1.0
C      1  0.4244060000000  0.4044280000000  0.4388220000000 1.0
C      1  0.5805480000000  0.5160290000000  0.3652650000000 1.0
C      1  0.5562980000000  0.5722460000000  0.5953650000000 1.0
C      1  0.4782860000000  0.5729870000000  0.4999470000000 1.0
C      1  0.5832470000000  0.5215610000000  0.5330830000000 1.0
C      1  0.4048190000000  0.5345760000000  0.5583900000000 1.0
C      1  0.5591030000000  0.4781370000000  0.5583540000000 1.0
C      1  0.4178390000000  0.4261340000000  0.4882580000000 1.0
C      1  0.5493870000000  0.4724900000000  0.5065310000000 1.0
C      1  0.5044260000000  0.6229930000000  0.4996730000000 1.0
C      1  0.4614990000000  0.4844780000000  0.4648200000000 1.0
C      1  0.5086640000000  0.3917030000000  0.5504970000000 1.0
C      1  0.4632150000000  0.5060980000000  0.3801070000000 1.0
C      1  0.5101320000000  0.6122620000000  0.5736090000000 1.0
C      1  0.5170070000000  0.4394370000000  0.5221560000000 1.0
C      1  0.5649400000000  0.4257890000000  0.6011460000000 1.0
C      1  0.4334740000000  0.3995320000000  0.5265500000000 1.0
C      1  0.4708760000000  0.5270040000000  0.5979400000000 1.0
C      1  0.4156130000000  0.4415310000000  0.5780300000000 1.0
C      1  0.4225070000000  0.4931540000000  0.4970970000000 1.0
C      1  0.4552560000000  0.3864330000000  0.5395020000000 1.0
C      1  0.3999540000000  0.5017450000000  0.4806410000000 1.0
C      1  0.4190030000000  0.4478780000000  0.4462850000000 1.0
C      1  0.5653510000000  0.4777440000000  0.5306230000000 1.0
C      1  0.5414100000000  0.6005560000000  0.4682840000000 1.0
C      1  0.4005540000000  0.5417250000000  0.5313780000000 1.0
C      1  0.5935290000000  0.5436410000000  0.4847020000000 1.0
C      1  0.4403230000000  0.4144860000000  0.5032980000000 1.0
C      1  0.4643860000000  0.4428810000000  0.5709800000000 1.0
C      1  0.5981730000000  0.4713640000000  0.4651050000000 1.0
C      1  0.5587990000000  0.4046430000000  0.4867010000000 1.0
C      1  0.4752520000000  0.6233440000000  0.5056020000000 1.0
C      1  0.5301750000000  0.3952390000000  0.5291780000000 1.0
C      1  0.4566380000000  0.6101020000000  0.4883660000000 1.0
C      1  0.4603970000000  0.4830570000000  0.6209940000000 1.0
C      1  0.5416960000000  0.5199740000000  0.4199180000000 1.0
C      1  0.3784050000000  0.5011570000000  0.5015240000000 1.0
C      1  0.5419690000000  0.4679000000000  0.4294230000000 1.0
C      1  0.4205980000000  0.4698110000000  0.5154810000000 1.0
C      1  0.4677690000000  0.4296620000000  0.4516250000000 1.0
C      1  0.4817910000000  0.3830650000000  0.5443250000000 1.0
C      1  0.5516030000000  0.4729370000000  0.3715710000000 1.0
C      1  0.4158090000000  0.5836630000000  0.4771590000000 1.0
C      1  0.4008500000000  0.5280110000000  0.4665530000000 1.0
C      1  0.4025070000000  0.4674180000000  0.4355350000000 1.0
C      1  0.4912530000000  0.4227550000000  0.5159190000000 1.0
C      1  0.4918640000000  0.5467110000000  0.3796460000000 1.0
C      1  0.4498240000000  0.4909040000000  0.5480040000000 1.0
C      1  0.5879210000000  0.4947810000000  0.5256540000000 1.0
C      1  0.4989180000000  0.5015570000000  0.5291700000000 1.0
C      1  0.4781780000000  0.4758590000000  0.4208840000000 1.0
C      1  0.6368360000000  0.5305930000000  0.4940190000000 1.0
C      1  0.5390050000000  0.5172090000000  0.6156710000000 1.0
C      1  0.3756610000000  0.4369710000000  0.5530650000000 1.0
C      1  0.3818150000000  0.5305610000000  0.5113010000000 1.0
C      1  0.4919790000000  0.4172700000000  0.4422380000000 1.0
C      1  0.5409320000000  0.4454970000000  0.3742750000000 1.0
C      1  0.5414010000000  0.4224560000000  0.5318820000000 1.0
C      1  0.4436070000000  0.4822360000000  0.5981860000000 1.0
C      1  0.5020020000000  0.3910210000000  0.4355930000000 1.0
C      1  0.5086360000000  0.5864560000000  0.5869120000000 1.0
C      1  0.4279090000000  0.5358540000000  0.5723660000000 1.0
C      1  0.4817020000000  0.4856060000000  0.3705700000000 1.0
C      1  0.5432510000000  0.5426800000000  0.4888010000000 1.0
C      1  0.5884930000000  0.5935250000000  0.5549370000000 1.0
C      1  0.5699740000000  0.4264780000000  0.5337850000000 1.0
C      1  0.4890340000000  0.5099640000000  0.6431550000000 1.0
C      1  0.4970850000000  0.5150540000000  0.5890470000000 1.0
C      1  0.3902170000000  0.4289880000000  0.5301470000000 1.0
C      1  0.5573570000000  0.5547930000000  0.3903030000000 1.0
C      1  0.5336120000000  0.4883000000000  0.3880110000000 1.0
C      1  0.4472110000000  0.4483880000000  0.4416340000000 1.0
C      1  0.5537290000000  0.4562650000000  0.4529940000000 1.0
C      1  0.5670310000000  0.5271070000000  0.5556330000000 1.0
C      1  0.5071290000000  0.4579180000000  0.5443430000000 1.0
C      1  0.6129950000000  0.4425660000000  0.5452700000000 1.0
C      1  0.4671570000000  0.4308990000000  0.5966050000000 1.0
C      1  0.5704160000000  0.5884300000000  0.5764930000000 1.0
C      1  0.6115050000000  0.5583230000000  0.5268640000000 1.0
C      1  0.4965390000000  0.5562720000000  0.5539430000000 1.0
C      1  0.5711140000000  0.5548100000000  0.6121710000000 1.0
C      1  0.5464550000000  0.5775600000000  0.4045200000000 1.0
C      1  0.4325870000000  0.5313630000000  0.4247120000000 1.0
C      1  0.4905160000000  0.4389590000000  0.6116550000000 1.0
C      1  0.3983210000000  0.4494220000000  0.5087390000000 1.0
C      1  0.5205890000000  0.6180180000000  0.4768870000000 1.0
C      1  0.5133250000000  0.4228740000000  0.6006000000000 1.0
C      1  0.5354750000000  0.5777030000000  0.4518430000000 1.0
C      1  0.6084890000000  0.4526500000000  0.5182010000000 1.0
C      1  0.5375500000000  0.5701650000000  0.5276430000000 1.0
C      1  0.4969020000000  0.5758630000000  0.4176260000000 1.0
C      1  0.5178220000000  0.6159860000000  0.5246700000000 1.0
C      1  0.5240660000000  0.5548060000000  0.5470880000000 1.0
C      1  0.5307620000000  0.4929410000000  0.6278130000000 1.0
C      1  0.5039420000000  0.4724610000000  0.4866500000000 1.0
C      1  0.4568510000000  0.4912140000000  0.5749520000000 1.0
C      1  0.4149310000000  0.4230170000000  0.4599660000000 1.0
C      1  0.5172610000000  0.3892080000000  0.4112310000000 1.0
C      1  0.3748180000000  0.4714520000000  0.5053840000000 1.0
C      1  0.5001020000000  0.4948540000000  0.4265890000000 1.0
C      1  0.4879680000000  0.4595040000000  0.5654870000000 1.0
C      1  0.4713570000000  0.4932860000000  0.5293630000000 1.0
C      1  0.5774850000000  0.5417020000000  0.3745650000000 1.0
C      1  0.4663310000000  0.4736090000000  0.5102660000000 1.0
C      1  0.5860480000000  0.4352610000000  0.5101520000000 1.0
C      1  0.4553210000000  0.4300610000000  0.4029730000000 1.0
C      1  0.5785040000000  0.5673750000000  0.4723110000000 1.0
C      1  0.5491630000000  0.4952770000000  0.4895120000000 1.0
C      1  0.4580680000000  0.5428970000000  0.4151080000000 1.0
C      1  0.4726380000000  0.4535610000000  0.4016780000000 1.0
C      1  0.5348520000000  0.4904220000000  0.5626320000000 1.0
C      1  0.6353460000000  0.5484680000000  0.5146480000000 1.0
C      1  0.5252750000000  0.5789100000000  0.4252180000000 1.0
C      1  0.5090160000000  0.5161420000000  0.5075140000000 1.0
C      1  0.4752870000000  0.4670870000000  0.4838040000000 1.0
C      1  0.5857700000000  0.5458230000000  0.5152610000000 1.0
C      1  0.5634760000000  0.5302700000000  0.6204430000000 1.0
C      1  0.4748250000000  0.5429590000000  0.5435520000000 1.0
C      1  0.4703780000000  0.5319430000000  0.3905840000000 1.0
C      1  0.5316570000000  0.4422300000000  0.4670700000000 1.0
C      1  0.4957210000000  0.5164330000000  0.4453890000000 1.0
C      1  0.4862160000000  0.4877230000000  0.5776940000000 1.0
C      1  0.5558440000000  0.5547880000000  0.5117740000000 1.0
C      1  0.4818460000000  0.5249190000000  0.4684130000000 1.0
C      1  0.4895200000000  0.5307640000000  0.4949400000000 1.0
C      1  0.4936710000000  0.5733860000000  0.3890850000000 1.0
C      1  0.4408570000000  0.5147760000000  0.4941460000000 1.0
C      1  0.4327380000000  0.5851320000000  0.5236060000000 1.0
C      1  0.4305800000000  0.5676870000000  0.4576210000000 1.0
C      1  0.5735570000000  0.4670140000000  0.5793090000000 1.0
C      1  0.4241690000000  0.5563790000000  0.5214630000000 1.0
C      1  0.5164960000000  0.4487570000000  0.3907180000000 1.0
C      1  0.4200550000000  0.5417210000000  0.4487670000000 1.0
C      1  0.4698930000000  0.5868710000000  0.4764410000000 1.0
C      1  0.4670180000000  0.5124600000000  0.6245020000000 1.0
C      1  0.5379230000000  0.5343660000000  0.3957160000000 1.0
C      1  0.5397590000000  0.4244680000000  0.6103170000000 1.0
C      1  0.5787100000000  0.4500540000000  0.4647380000000 1.0
C      1  0.5108880000000  0.4057400000000  0.5765400000000 1.0
C      1  0.5391370000000  0.5978300000000  0.5228150000000 1.0
C      1  0.5421400000000  0.5365760000000  0.5587950000000 1.0
C      1  0.4577710000000  0.5107320000000  0.4720000000000 1.0
END
