TITL C-627106-156-1627 8.63447762619317 125000 -384.724471949942 0 0 63 (C1) n - 1
REM
REM in /home/nfs/bkarasulu/CARBON/AIRSS/Generating-Clusters/LCBOP/Only-C1/SD-CG/FIRE-CG
REM
REM
REM
REM
REM
REM ./C.cell (11c1c37f851c82e70ff6c80c92926a4b)
REM AIRSS Version 0.9.1 bugfix July 2018 build 013d7b7c2542+ Fri, 06 Jul 2018 19:26:36 +0100
REM compiler GCC version 9.2.1 20190827 (Red Hat 9.2.1-1)
REM options -cpp -mtune=generic -march=x86-64 -g -O0 -fpre-include=/usr/include/finclude/math-vector-fortran.h
REM seed 1793359293 -153113888 302585498 467491508 -725813619 -781495186 1973648937 -1949706306 -206160987 2135294857 -123154697 176444151 -1010948880 1113445624 -574589580 2031855669 439341745 -865685167 1442111555 359923116 -802950531 -513750128 -1993926812 1045072557 221364346 -1200003843 -206863226 365678563 842576157 1136204438 -1281106712 955528136 -1594318059
REM
CELL 1.54180   50.00000   50.00000   50.00000   90.00000   90.00000   90.00000
LATT -1
SFAC C  
C      1  0.6070150000000  0.3978510000000  0.6543970000000 1.0
C      1  0.4797970000000  0.5254260000000  0.4886170000000 1.0
C      1  0.5591460000000  0.5036210000000  0.5222450000000 1.0
C      1  0.5138820000000  0.4921490000000  0.5395410000000 1.0
C      1  0.6176710000000  0.3825580000000  0.6732350000000 1.0
C      1  0.4187880000000  0.5327750000000  0.4612770000000 1.0
C      1  0.5278100000000  0.5699270000000  0.5530620000000 1.0
C      1  0.5151420000000  0.4951280000000  0.4569460000000 1.0
C      1  0.5139010000000  0.5693670000000  0.4555610000000 1.0
C      1  0.4511710000000  0.5056830000000  0.4179060000000 1.0
C      1  0.4020180000000  0.4608110000000  0.4493770000000 1.0
C      1  0.4448610000000  0.4935260000000  0.4627020000000 1.0
C      1  0.4924500000000  0.5816710000000  0.4688200000000 1.0
C      1  0.4963770000000  0.4818110000000  0.4170180000000 1.0
C      1  0.5017160000000  0.5058940000000  0.4328530000000 1.0
C      1  0.4598620000000  0.5311170000000  0.4280570000000 1.0
C      1  0.4184890000000  0.5043230000000  0.4637550000000 1.0
C      1  0.4097350000000  0.5463190000000  0.4847040000000 1.0
C      1  0.4478760000000  0.5467880000000  0.5163600000000 1.0
C      1  0.5963600000000  0.4131430000000  0.6355600000000 1.0
C      1  0.5086370000000  0.5535560000000  0.4315220000000 1.0
C      1  0.5399480000000  0.5625900000000  0.4985800000000 1.0
C      1  0.4839100000000  0.5521420000000  0.5468300000000 1.0
C      1  0.5136020000000  0.4664270000000  0.4557430000000 1.0
C      1  0.5527260000000  0.5195180000000  0.4761220000000 1.0
C      1  0.4484600000000  0.4560290000000  0.4334100000000 1.0
C      1  0.4775470000000  0.4624800000000  0.5278750000000 1.0
C      1  0.4860080000000  0.4875260000000  0.5373640000000 1.0
C      1  0.4207050000000  0.5490520000000  0.5093840000000 1.0
C      1  0.5170170000000  0.5493610000000  0.5103700000000 1.0
C      1  0.4653490000000  0.5495670000000  0.4938630000000 1.0
C      1  0.5551140000000  0.5422610000000  0.4580000000000 1.0
C      1  0.5420870000000  0.4902550000000  0.5403850000000 1.0
C      1  0.4743930000000  0.4416380000000  0.5116340000000 1.0
C      1  0.4621740000000  0.5360430000000  0.5387780000000 1.0
C      1  0.5386930000000  0.5639700000000  0.4696500000000 1.0
C      1  0.4220570000000  0.4467960000000  0.4377170000000 1.0
C      1  0.6388100000000  0.3522160000000  0.7106080000000 1.0
C      1  0.5096510000000  0.5573210000000  0.5368460000000 1.0
C      1  0.4672680000000  0.5712280000000  0.4754140000000 1.0
C      1  0.6283280000000  0.3672610000000  0.6920770000000 1.0
C      1  0.5252680000000  0.5108700000000  0.4776980000000 1.0
C      1  0.4730410000000  0.4427700000000  0.4395090000000 1.0
C      1  0.3716480000000  0.4923530000000  0.4703900000000 1.0
C      1  0.5553320000000  0.5419460000000  0.4297370000000 1.0
C      1  0.4670740000000  0.5082310000000  0.5417270000000 1.0
C      1  0.5074830000000  0.5266240000000  0.4943710000000 1.0
C      1  0.3966480000000  0.4860400000000  0.4613760000000 1.0
C      1  0.4397580000000  0.5452850000000  0.4444340000000 1.0
C      1  0.5652710000000  0.5224780000000  0.5022810000000 1.0
C      1  0.4499980000000  0.4841570000000  0.4361130000000 1.0
C      1  0.5643890000000  0.4590150000000  0.5790490000000 1.0
C      1  0.4967200000000  0.4575500000000  0.4335900000000 1.0
C      1  0.5642430000000  0.5506010000000  0.5085530000000 1.0
C      1  0.5326000000000  0.5490350000000  0.4163610000000 1.0
C      1  0.4734050000000  0.4277500000000  0.4889220000000 1.0
C      1  0.4892970000000  0.5320760000000  0.4305890000000 1.0
C      1  0.4482670000000  0.5704060000000  0.4545340000000 1.0
C      1  0.4733410000000  0.4261630000000  0.4622460000000 1.0
C      1  0.5537050000000  0.4742860000000  0.5602270000000 1.0
C      1  0.5750460000000  0.4437260000000  0.5978860000000 1.0
C      1  0.5857030000000  0.4284340000000  0.6167230000000 1.0
C      1  0.4652130000000  0.5030790000000  0.4795190000000 1.0
END
