TITL C-627108-131-1618 0.00299402666155756 125000 -476.072809788654 0 0 80 (C1) n - 1
REM
REM in /home/nfs/bkarasulu/CARBON/AIRSS/Generating-Clusters/LCBOP/Only-C1/SD-CG/FIRE-CG
REM
REM
REM
REM
REM
REM ./C.cell (11c1c37f851c82e70ff6c80c92926a4b)
REM AIRSS Version 0.9.1 bugfix July 2018 build 013d7b7c2542+ Fri, 06 Jul 2018 19:26:36 +0100
REM compiler GCC version 9.2.1 20190827 (Red Hat 9.2.1-1)
REM options -cpp -mtune=generic -march=x86-64 -g -O0 -fpre-include=/usr/include/finclude/math-vector-fortran.h
REM seed -1598131528 -214146395 1444128487 -1542979773 633985433 631832789 2069019916 -1348366539 -1981295385 -1337959044 1655534126 -308267655 1280353106 1711568120 -871029987 -101861999 161281767 1905800161 378784270 -549458408 -264173411 335678083 -1888906400 -853908154 1257892536 -520017801 1599793243 -498300019 -1327527982 1912645457 -1323269993 1488533093 -820052494
REM
CELL 1.54180   50.00000   50.00000   50.00000   90.00000   90.00000   90.00000
LATT -1
SFAC C  
C      1  0.4868590000000  0.5145600000000  0.4530970000000 1.0
C      1  0.5180660000000  0.4885880000000  0.5252550000000 1.0
C      1  0.4224210000000  0.4971940000000  0.4676660000000 1.0
C      1  0.5445960000000  0.4845940000000  0.4251920000000 1.0
C      1  0.5198300000000  0.5292030000000  0.4065670000000 1.0
C      1  0.4385010000000  0.5168110000000  0.4266020000000 1.0
C      1  0.4616680000000  0.5609100000000  0.4421860000000 1.0
C      1  0.4914040000000  0.4955600000000  0.5152580000000 1.0
C      1  0.5401850000000  0.5546530000000  0.5413370000000 1.0
C      1  0.5149120000000  0.5327650000000  0.4883240000000 1.0
C      1  0.5531220000000  0.5042530000000  0.4925090000000 1.0
C      1  0.4833640000000  0.4755810000000  0.6057660000000 1.0
C      1  0.5991420000000  0.4971970000000  0.4774280000000 1.0
C      1  0.5238140000000  0.4927010000000  0.5526240000000 1.0
C      1  0.4828500000000  0.4976960000000  0.4309490000000 1.0
C      1  0.5371600000000  0.4591800000000  0.4921700000000 1.0
C      1  0.4026200000000  0.5293670000000  0.5413090000000 1.0
C      1  0.4529650000000  0.5217510000000  0.5300630000000 1.0
C      1  0.4786200000000  0.5772000000000  0.4991530000000 1.0
C      1  0.3823030000000  0.5098370000000  0.5006490000000 1.0
C      1  0.5034260000000  0.5317090000000  0.5744690000000 1.0
C      1  0.5132770000000  0.5645970000000  0.5400850000000 1.0
C      1  0.4730380000000  0.4515580000000  0.4227610000000 1.0
C      1  0.4788990000000  0.4812580000000  0.4902790000000 1.0
C      1  0.5016280000000  0.5485990000000  0.4106800000000 1.0
C      1  0.4443690000000  0.4431810000000  0.4591340000000 1.0
C      1  0.5090480000000  0.4167910000000  0.4392060000000 1.0
C      1  0.4785980000000  0.5738490000000  0.5740770000000 1.0
C      1  0.6754090000000  0.5024190000000  0.4975830000000 1.0
C      1  0.5620490000000  0.4905680000000  0.4465110000000 1.0
C      1  0.5582560000000  0.5360170000000  0.5494600000000 1.0
C      1  0.4603020000000  0.5557530000000  0.4907220000000 1.0
C      1  0.4603720000000  0.5051960000000  0.4153080000000 1.0
C      1  0.5940800000000  0.5920720000000  0.4853830000000 1.0
C      1  0.5427650000000  0.5307140000000  0.4928080000000 1.0
C      1  0.4500960000000  0.4401270000000  0.4314700000000 1.0
C      1  0.4570000000000  0.4660370000000  0.5038290000000 1.0
C      1  0.4684900000000  0.4216840000000  0.4735870000000 1.0
C      1  0.5065390000000  0.5038820000000  0.5721320000000 1.0
C      1  0.5176630000000  0.4528900000000  0.4750490000000 1.0
C      1  0.5717950000000  0.4972600000000  0.4720260000000 1.0
C      1  0.4989300000000  0.5768870000000  0.5180360000000 1.0
C      1  0.4341880000000  0.5216310000000  0.4549630000000 1.0
C      1  0.4679550000000  0.4977860000000  0.5358300000000 1.0
C      1  0.5768280000000  0.5727340000000  0.4882040000000 1.0
C      1  0.4292500000000  0.5292590000000  0.5422140000000 1.0
C      1  0.5595850000000  0.5528910000000  0.4914820000000 1.0
C      1  0.4706470000000  0.5050430000000  0.4744110000000 1.0
C      1  0.4591780000000  0.5889330000000  0.5827050000000 1.0
C      1  0.4979580000000  0.5570010000000  0.5632860000000 1.0
C      1  0.6502900000000  0.5005900000000  0.4908520000000 1.0
C      1  0.4983710000000  0.4181450000000  0.5158700000000 1.0
C      1  0.5333110000000  0.5063580000000  0.4109380000000 1.0
C      1  0.4940630000000  0.5251030000000  0.5064350000000 1.0
C      1  0.4565120000000  0.4412410000000  0.5142080000000 1.0
C      1  0.4488800000000  0.5472540000000  0.4644920000000 1.0
C      1  0.5260960000000  0.4335680000000  0.4267150000000 1.0
C      1  0.5071060000000  0.5317850000000  0.4612270000000 1.0
C      1  0.5510550000000  0.4863570000000  0.5583900000000 1.0
C      1  0.4809460000000  0.5603300000000  0.4233330000000 1.0
C      1  0.5395370000000  0.4377040000000  0.5448420000000 1.0
C      1  0.5194840000000  0.4250780000000  0.5315220000000 1.0
C      1  0.4668520000000  0.5356100000000  0.5096900000000 1.0
C      1  0.6247490000000  0.4987350000000  0.4840120000000 1.0
C      1  0.3832590000000  0.5213850000000  0.5247040000000 1.0
C      1  0.4316360000000  0.4690250000000  0.4653610000000 1.0
C      1  0.4868410000000  0.4704490000000  0.4387550000000 1.0
C      1  0.4800900000000  0.4429210000000  0.6776930000000 1.0
C      1  0.3977810000000  0.5010200000000  0.4809000000000 1.0
C      1  0.4851650000000  0.4870670000000  0.5806400000000 1.0
C      1  0.5658240000000  0.5107890000000  0.5568380000000 1.0
C      1  0.4822380000000  0.4646220000000  0.6298530000000 1.0
C      1  0.4664490000000  0.4836490000000  0.5599410000000 1.0
C      1  0.4940370000000  0.4658660000000  0.4673510000000 1.0
C      1  0.5371040000000  0.4575060000000  0.4211150000000 1.0
C      1  0.4811550000000  0.4536810000000  0.6539710000000 1.0
C      1  0.5546000000000  0.4581610000000  0.5550140000000 1.0
C      1  0.4736380000000  0.4224790000000  0.5019490000000 1.0
C      1  0.4882140000000  0.4119660000000  0.4556950000000 1.0
C      1  0.5386990000000  0.4836290000000  0.5058980000000 1.0
END
