TITL C-627109-622-516 7316.07619164973 125000 -1168.33996095477 0 0 194 (C1) n - 1
REM
REM in /home/nfs/bkarasulu/CARBON/AIRSS/Generating-Clusters/LCBOP/Only-C1/SD-CG/FIRE-CG
REM
REM
REM
REM
REM
REM ./C.cell (11c1c37f851c82e70ff6c80c92926a4b)
REM AIRSS Version 0.9.1 bugfix July 2018 build 013d7b7c2542+ Fri, 06 Jul 2018 19:26:36 +0100
REM compiler GCC version 9.2.1 20190827 (Red Hat 9.2.1-1)
REM options -cpp -mtune=generic -march=x86-64 -g -O0 -fpre-include=/usr/include/finclude/math-vector-fortran.h
REM seed 1886315398 616033061 -1383586477 1235051116 1970948043 -598967665 1194821416 863706897 -1552356608 591684148 -1782128363 -1793636989 -1200460964 596399544 614265610 -868429472 -1284149056 1356975544 -1961117598 -1078919792 -167171574 -1570953384 -1264215789 893271282 -1243732506 599941029 554069191 -1855261676 -4507403 1593118034 913263352 -271793514 1762158645
REM
CELL 1.54180   50.00000   50.00000   50.00000   90.00000   90.00000   90.00000
LATT -1
SFAC C  
C      1  0.3959150000000  0.5489270000000  0.4405140000000 1.0
C      1  0.4997970000000  0.6112490000000  0.4727410000000 1.0
C      1  0.5089530000000  0.5706460000000  0.3873830000000 1.0
C      1  0.5580400000000  0.5382330000000  0.4556260000000 1.0
C      1  0.5122030000000  0.5657940000000  0.4602810000000 1.0
C      1  0.6001550000000  0.4950730000000  0.4669340000000 1.0
C      1  0.4401960000000  0.5689160000000  0.4244620000000 1.0
C      1  0.5499750000000  0.4256320000000  0.4172760000000 1.0
C      1  0.5053010000000  0.4473890000000  0.5552120000000 1.0
C      1  0.5243890000000  0.4126750000000  0.5844680000000 1.0
C      1  0.3649030000000  0.5133410000000  0.5835550000000 1.0
C      1  0.5294060000000  0.4502190000000  0.5119380000000 1.0
C      1  0.5165100000000  0.5784800000000  0.4133270000000 1.0
C      1  0.5192980000000  0.6177120000000  0.4498520000000 1.0
C      1  0.3900410000000  0.5200640000000  0.4377170000000 1.0
C      1  0.4108440000000  0.5189860000000  0.5983780000000 1.0
C      1  0.5163550000000  0.4777720000000  0.4326360000000 1.0
C      1  0.3984110000000  0.4635470000000  0.3899240000000 1.0
C      1  0.4906720000000  0.5261830000000  0.4770060000000 1.0
C      1  0.5802370000000  0.4909110000000  0.4462040000000 1.0
C      1  0.4193060000000  0.4499040000000  0.5601510000000 1.0
C      1  0.5764470000000  0.5472740000000  0.5460860000000 1.0
C      1  0.5174250000000  0.5275880000000  0.4284570000000 1.0
C      1  0.4769590000000  0.5402710000000  0.5607390000000 1.0
C      1  0.4171970000000  0.4272900000000  0.5393040000000 1.0
C      1  0.4456650000000  0.5921210000000  0.5193290000000 1.0
C      1  0.4117250000000  0.4663730000000  0.4372080000000 1.0
C      1  0.5746360000000  0.4091580000000  0.4676310000000 1.0
C      1  0.4557750000000  0.4880050000000  0.4953600000000 1.0
C      1  0.5160870000000  0.5856060000000  0.5677060000000 1.0
C      1  0.5053450000000  0.5535880000000  0.5257590000000 1.0
C      1  0.4462050000000  0.4611500000000  0.4007220000000 1.0
C      1  0.5463710000000  0.4574550000000  0.5697090000000 1.0
C      1  0.5230730000000  0.4132310000000  0.4725170000000 1.0
C      1  0.4914230000000  0.4272570000000  0.5018560000000 1.0
C      1  0.5032780000000  0.3994430000000  0.5973740000000 1.0
C      1  0.6118820000000  0.5703800000000  0.4655270000000 1.0
C      1  0.5439580000000  0.5072080000000  0.5650030000000 1.0
C      1  0.4878440000000  0.4780280000000  0.3733580000000 1.0
C      1  0.4061620000000  0.5656160000000  0.6250800000000 1.0
C      1  0.6151300000000  0.5456710000000  0.4803610000000 1.0
C      1  0.5031610000000  0.4418330000000  0.4052810000000 1.0
C      1  0.5614870000000  0.4164700000000  0.5480350000000 1.0
C      1  0.3741510000000  0.4699700000000  0.4947320000000 1.0
C      1  0.5295710000000  0.3992640000000  0.5142660000000 1.0
C      1  0.5291810000000  0.4560900000000  0.4490510000000 1.0
C      1  0.5732880000000  0.4732040000000  0.4234360000000 1.0
C      1  0.4514460000000  0.5935670000000  0.4377690000000 1.0
C      1  0.5031310000000  0.5093000000000  0.5341800000000 1.0
C      1  0.5058050000000  0.6034370000000  0.4250220000000 1.0
C      1  0.4252440000000  0.5708540000000  0.5252720000000 1.0
C      1  0.4830610000000  0.4900290000000  0.5461730000000 1.0
C      1  0.4923650000000  0.4649920000000  0.4193960000000 1.0
C      1  0.5846770000000  0.4349430000000  0.4571940000000 1.0
C      1  0.4844240000000  0.4341910000000  0.4516310000000 1.0
C      1  0.5345280000000  0.5642370000000  0.5716250000000 1.0
C      1  0.5386700000000  0.5756660000000  0.5004810000000 1.0
C      1  0.5155510000000  0.3915040000000  0.5367030000000 1.0
C      1  0.4554790000000  0.4352030000000  0.4115010000000 1.0
C      1  0.4980330000000  0.5469930000000  0.6036680000000 1.0
C      1  0.4013830000000  0.5140200000000  0.5036540000000 1.0
C      1  0.5680950000000  0.5417380000000  0.5953430000000 1.0
C      1  0.4575420000000  0.4899340000000  0.5967160000000 1.0
C      1  0.5706340000000  0.4802430000000  0.5089400000000 1.0
C      1  0.4535560000000  0.4115060000000  0.4844820000000 1.0
C      1  0.6179110000000  0.5159780000000  0.4749800000000 1.0
C      1  0.5777670000000  0.4689460000000  0.5365540000000 1.0
C      1  0.4860580000000  0.5697590000000  0.5185890000000 1.0
C      1  0.4268080000000  0.5026630000000  0.4576240000000 1.0
C      1  0.4269010000000  0.5720120000000  0.4690530000000 1.0
C      1  0.4404230000000  0.5971640000000  0.4659360000000 1.0
C      1  0.5175010000000  0.5260880000000  0.6129900000000 1.0
C      1  0.4816120000000  0.5590890000000  0.5819000000000 1.0
C      1  0.5477570000000  0.6161810000000  0.4532290000000 1.0
C      1  0.4290240000000  0.5434980000000  0.5365950000000 1.0
C      1  0.4912750000000  0.5848680000000  0.4625680000000 1.0
C      1  0.5939140000000  0.4764090000000  0.4888020000000 1.0
C      1  0.4458600000000  0.5510970000000  0.4662300000000 1.0
C      1  0.5206970000000  0.4231550000000  0.5001150000000 1.0
C      1  0.5508250000000  0.4615530000000  0.4959170000000 1.0
C      1  0.6345130000000  0.5860760000000  0.4605900000000 1.0
C      1  0.4410460000000  0.4230470000000  0.4594550000000 1.0
C      1  0.4797740000000  0.4947110000000  0.6131120000000 1.0
C      1  0.4916000000000  0.5530460000000  0.3770260000000 1.0
C      1  0.5805520000000  0.5964230000000  0.5501970000000 1.0
C      1  0.5319820000000  0.4479310000000  0.5434430000000 1.0
C      1  0.5313030000000  0.5009020000000  0.4185320000000 1.0
C      1  0.5029870000000  0.4750530000000  0.5645270000000 1.0
C      1  0.5456680000000  0.4675050000000  0.4689430000000 1.0
C      1  0.4537570000000  0.5467590000000  0.4385050000000 1.0
C      1  0.5956230000000  0.4479430000000  0.4830730000000 1.0
C      1  0.4447890000000  0.5316730000000  0.4857480000000 1.0
C      1  0.3994730000000  0.5634980000000  0.4659870000000 1.0
C      1  0.6193430000000  0.5131160000000  0.5460430000000 1.0
C      1  0.5027050000000  0.3898420000000  0.4654490000000 1.0
C      1  0.5718650000000  0.5577470000000  0.4446510000000 1.0
C      1  0.5468200000000  0.5283790000000  0.6108860000000 1.0
C      1  0.4333410000000  0.5028540000000  0.6023830000000 1.0
C      1  0.4799640000000  0.3884160000000  0.4855060000000 1.0
C      1  0.4125070000000  0.5620460000000  0.4200990000000 1.0
C      1  0.4478680000000  0.4552480000000  0.5589290000000 1.0
C      1  0.5864600000000  0.5790600000000  0.4551880000000 1.0
C      1  0.5364050000000  0.5986250000000  0.5142910000000 1.0
C      1  0.4874760000000  0.5841880000000  0.5666720000000 1.0
C      1  0.4688930000000  0.4743820000000  0.4367460000000 1.0
C      1  0.6112320000000  0.5703410000000  0.5239480000000 1.0
C      1  0.5342610000000  0.4031080000000  0.5585690000000 1.0
C      1  0.4963760000000  0.4750720000000  0.4759520000000 1.0
C      1  0.4830550000000  0.3853690000000  0.5207610000000 1.0
C      1  0.4636350000000  0.4446370000000  0.5332740000000 1.0
C      1  0.5724010000000  0.4434600000000  0.4306710000000 1.0
C      1  0.4570420000000  0.3902220000000  0.5328740000000 1.0
C      1  0.4277770000000  0.4510510000000  0.4602660000000 1.0
C      1  0.5317180000000  0.4400470000000  0.3993780000000 1.0
C      1  0.4596700000000  0.4748380000000  0.5736760000000 1.0
C      1  0.5724120000000  0.4609450000000  0.5851710000000 1.0
C      1  0.5553390000000  0.4927640000000  0.4614970000000 1.0
C      1  0.5226510000000  0.4767780000000  0.6257360000000 1.0
C      1  0.5125620000000  0.4338260000000  0.4539960000000 1.0
C      1  0.4035250000000  0.4944700000000  0.4433980000000 1.0
C      1  0.4896030000000  0.6157190000000  0.5209640000000 1.0
C      1  0.4628720000000  0.4289460000000  0.5064600000000 1.0
C      1  0.5190800000000  0.5569580000000  0.4329480000000 1.0
C      1  0.5132880000000  0.3851440000000  0.4368750000000 1.0
C      1  0.3917410000000  0.5119250000000  0.5784700000000 1.0
C      1  0.3863400000000  0.4461700000000  0.4998920000000 1.0
C      1  0.4078010000000  0.5425970000000  0.6129720000000 1.0
C      1  0.5672640000000  0.4602130000000  0.6124840000000 1.0
C      1  0.3797500000000  0.4961880000000  0.4983860000000 1.0
C      1  0.5068370000000  0.4996270000000  0.6192290000000 1.0
C      1  0.5296110000000  0.4846060000000  0.5720630000000 1.0
C      1  0.4011640000000  0.5029710000000  0.5532870000000 1.0
C      1  0.4668100000000  0.5125880000000  0.4006930000000 1.0
C      1  0.5297190000000  0.5356660000000  0.5631610000000 1.0
C      1  0.5317720000000  0.4391250000000  0.5925180000000 1.0
C      1  0.4484850000000  0.4662920000000  0.4771620000000 1.0
C      1  0.4192080000000  0.4720000000000  0.5222840000000 1.0
C      1  0.5380620000000  0.4659280000000  0.3866370000000 1.0
C      1  0.5446790000000  0.5173940000000  0.4684330000000 1.0
C      1  0.5791410000000  0.4378550000000  0.5335050000000 1.0
C      1  0.5715840000000  0.6034400000000  0.4562190000000 1.0
C      1  0.4340600000000  0.4033060000000  0.5460860000000 1.0
C      1  0.5178720000000  0.6157420000000  0.5239490000000 1.0
C      1  0.5065340000000  0.4727660000000  0.5040910000000 1.0
C      1  0.5151570000000  0.4757800000000  0.3714910000000 1.0
C      1  0.4338320000000  0.3964330000000  0.5738580000000 1.0
C      1  0.5962560000000  0.5097330000000  0.5625270000000 1.0
C      1  0.3991150000000  0.5744410000000  0.5135350000000 1.0
C      1  0.4938570000000  0.5184520000000  0.4476740000000 1.0
C      1  0.5212780000000  0.5033380000000  0.5107010000000 1.0
C      1  0.4100100000000  0.4440760000000  0.5154420000000 1.0
C      1  0.5646030000000  0.5299780000000  0.5259940000000 1.0
C      1  0.4183190000000  0.4637930000000  0.4087870000000 1.0
C      1  0.4645330000000  0.4842530000000  0.3902510000000 1.0
C      1  0.4076640000000  0.5224420000000  0.5314700000000 1.0
C      1  0.4751360000000  0.5327680000000  0.3825850000000 1.0
C      1  0.5561230000000  0.5672280000000  0.5895450000000 1.0
C      1  0.5250180000000  0.5568720000000  0.4846290000000 1.0
C      1  0.4213040000000  0.5160610000000  0.4830240000000 1.0
C      1  0.6288510000000  0.5232580000000  0.5214440000000 1.0
C      1  0.5487730000000  0.4030900000000  0.4597000000000 1.0
C      1  0.5521940000000  0.4844960000000  0.4048260000000 1.0
C      1  0.4669470000000  0.5209510000000  0.4311300000000 1.0
C      1  0.5838070000000  0.5340660000000  0.5719790000000 1.0
C      1  0.4816870000000  0.4695080000000  0.5232090000000 1.0
C      1  0.5840300000000  0.4048900000000  0.4942380000000 1.0
C      1  0.6557710000000  0.6004460000000  0.4560400000000 1.0
C      1  0.4774980000000  0.3936150000000  0.6008790000000 1.0
C      1  0.4079420000000  0.4751740000000  0.5490770000000 1.0
C      1  0.4673810000000  0.5148730000000  0.4890920000000 1.0
C      1  0.4519100000000  0.3929280000000  0.5933260000000 1.0
C      1  0.4514910000000  0.4974310000000  0.4424030000000 1.0
C      1  0.4798770000000  0.5941190000000  0.4371090000000 1.0
C      1  0.5909300000000  0.4297920000000  0.5072640000000 1.0
C      1  0.5040660000000  0.5344750000000  0.5475390000000 1.0
C      1  0.6343750000000  0.5073990000000  0.4980480000000 1.0
C      1  0.5388820000000  0.4551190000000  0.6172160000000 1.0
C      1  0.4739770000000  0.5923060000000  0.5342110000000 1.0
C      1  0.4533370000000  0.5312550000000  0.5471750000000 1.0
C      1  0.4560180000000  0.5038250000000  0.5395860000000 1.0
C      1  0.4801170000000  0.6179990000000  0.4933040000000 1.0
C      1  0.5758710000000  0.4913520000000  0.5557590000000 1.0
C      1  0.4742120000000  0.4596560000000  0.4634850000000 1.0
C      1  0.4610910000000  0.4237620000000  0.4373420000000 1.0
C      1  0.4849300000000  0.4300930000000  0.5487690000000 1.0
C      1  0.6206120000000  0.5486730000000  0.5093090000000 1.0
C      1  0.4523590000000  0.6061360000000  0.4915520000000 1.0
C      1  0.5036760000000  0.4915890000000  0.4543260000000 1.0
C      1  0.5200560000000  0.5263050000000  0.4873590000000 1.0
C      1  0.5531020000000  0.5052450000000  0.5158450000000 1.0
C      1  0.5885600000000  0.5723700000000  0.5402470000000 1.0
C      1  0.5397510000000  0.4006640000000  0.4316300000000 1.0
C      1  0.4417570000000  0.4885900000000  0.5194640000000 1.0
C      1  0.3860210000000  0.5683270000000  0.4903840000000 1.0
END
