TITL C-627110-360-267 74399.6077769651 125000 -1115.92071143274 0 0 181 (C1) n - 1
REM
REM in /home/nfs/bkarasulu/CARBON/AIRSS/Generating-Clusters/LCBOP/Only-C1/SD-CG/FIRE-CG
REM
REM
REM
REM
REM
REM ./C.cell (11c1c37f851c82e70ff6c80c92926a4b)
REM AIRSS Version 0.9.1 bugfix July 2018 build 013d7b7c2542+ Fri, 06 Jul 2018 19:26:36 +0100
REM compiler GCC version 9.2.1 20190827 (Red Hat 9.2.1-1)
REM options -cpp -mtune=generic -march=x86-64 -g -O0 -fpre-include=/usr/include/finclude/math-vector-fortran.h
REM seed 1323399407 -1799558329 -1610592163 1952646160 -190682838 -506139830 1895781640 -494394084 -1841551207 -1021682329 1464747755 2137800912 -1558557184 1144424527 -2036171831 -1024561109 1699483495 -1622108161 -223153913 -2108613387 -1934800353 -1190044401 -1016528395 -1940863349 438275161 -1434126512 1931323493 -373683592 454115528 -1515475454 2130795664 1597475482 473309516
REM
CELL 1.54180   50.00000   50.00000   50.00000   90.00000   90.00000   90.00000
LATT -1
SFAC C  
C      1  0.4558270000000  0.5163730000000  0.5027390000000 1.0
C      1  0.4078490000000  0.4754740000000  0.5628940000000 1.0
C      1  0.4369120000000  0.6007230000000  0.4073160000000 1.0
C      1  0.5910850000000  0.4035870000000  0.5382020000000 1.0
C      1  0.5184860000000  0.3902310000000  0.4523740000000 1.0
C      1  0.5380150000000  0.5129360000000  0.5264200000000 1.0
C      1  0.5839470000000  0.4125810000000  0.5142390000000 1.0
C      1  0.4692270000000  0.4537590000000  0.4784710000000 1.0
C      1  0.5264310000000  0.4229190000000  0.5457300000000 1.0
C      1  0.5090390000000  0.5106080000000  0.6352070000000 1.0
C      1  0.3929650000000  0.5246270000000  0.5233110000000 1.0
C      1  0.4704700000000  0.4811210000000  0.4769920000000 1.0
C      1  0.5748770000000  0.4913500000000  0.5178440000000 1.0
C      1  0.4251540000000  0.5567880000000  0.4277940000000 1.0
C      1  0.5177070000000  0.5084470000000  0.3978520000000 1.0
C      1  0.4516720000000  0.4317060000000  0.4333580000000 1.0
C      1  0.5590940000000  0.5541230000000  0.5858010000000 1.0
C      1  0.4007220000000  0.4183030000000  0.5155250000000 1.0
C      1  0.4053490000000  0.4564890000000  0.4203770000000 1.0
C      1  0.4482220000000  0.3903530000000  0.4713290000000 1.0
C      1  0.4437160000000  0.4188810000000  0.5557430000000 1.0
C      1  0.4171710000000  0.4174260000000  0.5409920000000 1.0
C      1  0.4775690000000  0.4807330000000  0.6122190000000 1.0
C      1  0.5357010000000  0.5372490000000  0.4308730000000 1.0
C      1  0.4545680000000  0.5864730000000  0.4728200000000 1.0
C      1  0.4813790000000  0.4782920000000  0.5277110000000 1.0
C      1  0.4803100000000  0.5579050000000  0.5093890000000 1.0
C      1  0.4298160000000  0.4483620000000  0.5017000000000 1.0
C      1  0.5319870000000  0.4589960000000  0.4815130000000 1.0
C      1  0.4777300000000  0.4962570000000  0.5016230000000 1.0
C      1  0.5624840000000  0.5898230000000  0.4556470000000 1.0
C      1  0.4720130000000  0.5406280000000  0.4524820000000 1.0
C      1  0.4117220000000  0.5084560000000  0.4259300000000 1.0
C      1  0.5237970000000  0.4909930000000  0.5144620000000 1.0
C      1  0.5892110000000  0.3967480000000  0.5638280000000 1.0
C      1  0.5785000000000  0.3962430000000  0.5881830000000 1.0
C      1  0.5442980000000  0.4718980000000  0.5476590000000 1.0
C      1  0.5864420000000  0.5311260000000  0.4511630000000 1.0
C      1  0.5728880000000  0.5211310000000  0.4743560000000 1.0
C      1  0.4781620000000  0.4883490000000  0.4296650000000 1.0
C      1  0.5842980000000  0.4643280000000  0.5635710000000 1.0
C      1  0.5285040000000  0.5654760000000  0.4326580000000 1.0
C      1  0.4518430000000  0.5678870000000  0.5523090000000 1.0
C      1  0.5661320000000  0.4992880000000  0.4210040000000 1.0
C      1  0.5604130000000  0.4046140000000  0.6058790000000 1.0
C      1  0.5399480000000  0.4212620000000  0.6100970000000 1.0
C      1  0.5077760000000  0.3922560000000  0.4994020000000 1.0
C      1  0.4700150000000  0.4523120000000  0.5262860000000 1.0
C      1  0.5018680000000  0.5724350000000  0.3729120000000 1.0
C      1  0.4274490000000  0.5601540000000  0.5352370000000 1.0
C      1  0.4907280000000  0.4381680000000  0.4866720000000 1.0
C      1  0.4317280000000  0.5051220000000  0.5114920000000 1.0
C      1  0.4670340000000  0.5270410000000  0.6184190000000 1.0
C      1  0.5199460000000  0.6030980000000  0.5307400000000 1.0
C      1  0.3954260000000  0.4616840000000  0.4747820000000 1.0
C      1  0.5052060000000  0.4366590000000  0.3987790000000 1.0
C      1  0.5673160000000  0.4183800000000  0.4925510000000 1.0
C      1  0.5019990000000  0.4738060000000  0.4377030000000 1.0
C      1  0.4040750000000  0.5057540000000  0.5036700000000 1.0
C      1  0.4133870000000  0.6520920000000  0.5396630000000 1.0
C      1  0.6240080000000  0.5039760000000  0.4744380000000 1.0
C      1  0.5046070000000  0.5065210000000  0.4985300000000 1.0
C      1  0.5370520000000  0.5784030000000  0.4570850000000 1.0
C      1  0.5191240000000  0.5762980000000  0.4789830000000 1.0
C      1  0.4324550000000  0.4937820000000  0.6000580000000 1.0
C      1  0.4113000000000  0.4981920000000  0.5798900000000 1.0
C      1  0.5326980000000  0.4149090000000  0.4609730000000 1.0
C      1  0.4328820000000  0.5603880000000  0.5062490000000 1.0
C      1  0.6170770000000  0.5561540000000  0.4778690000000 1.0
C      1  0.5718410000000  0.6064130000000  0.5159980000000 1.0
C      1  0.6103840000000  0.5175960000000  0.4106910000000 1.0
C      1  0.6225800000000  0.4866280000000  0.5360020000000 1.0
C      1  0.4801050000000  0.5696540000000  0.5372870000000 1.0
C      1  0.6114930000000  0.4789310000000  0.4820720000000 1.0
C      1  0.5274860000000  0.4624240000000  0.5091340000000 1.0
C      1  0.4366450000000  0.6443560000000  0.5307720000000 1.0
C      1  0.4515720000000  0.4415680000000  0.4066600000000 1.0
C      1  0.4809250000000  0.5483060000000  0.6026980000000 1.0
C      1  0.4944120000000  0.4990810000000  0.5712230000000 1.0
C      1  0.5263170000000  0.5242360000000  0.6165960000000 1.0
C      1  0.5196210000000  0.4643890000000  0.5567960000000 1.0
C      1  0.4581530000000  0.6323970000000  0.5209230000000 1.0
C      1  0.4767900000000  0.4228890000000  0.4435760000000 1.0
C      1  0.6045180000000  0.5705280000000  0.5000840000000 1.0
C      1  0.5409140000000  0.5330470000000  0.5060140000000 1.0
C      1  0.5121960000000  0.5475350000000  0.6039250000000 1.0
C      1  0.4539180000000  0.5581430000000  0.5805220000000 1.0
C      1  0.5651730000000  0.5394520000000  0.4949000000000 1.0
C      1  0.5508370000000  0.5115860000000  0.6029940000000 1.0
C      1  0.4734240000000  0.3990740000000  0.4616110000000 1.0
C      1  0.5841010000000  0.5533350000000  0.5095840000000 1.0
C      1  0.4972490000000  0.3868350000000  0.4716840000000 1.0
C      1  0.4321100000000  0.5403290000000  0.5885750000000 1.0
C      1  0.4814810000000  0.5047640000000  0.6290200000000 1.0
C      1  0.3804110000000  0.3767820000000  0.4997230000000 1.0
C      1  0.5997510000000  0.5564980000000  0.4547550000000 1.0
C      1  0.5644280000000  0.4953110000000  0.4843090000000 1.0
C      1  0.4301610000000  0.5287840000000  0.4153360000000 1.0
C      1  0.5259040000000  0.4409810000000  0.5963540000000 1.0
C      1  0.4412310000000  0.5207580000000  0.6080720000000 1.0
C      1  0.4285630000000  0.4718040000000  0.5438540000000 1.0
C      1  0.5460980000000  0.6062220000000  0.5244580000000 1.0
C      1  0.4660510000000  0.4029790000000  0.5420590000000 1.0
C      1  0.4437810000000  0.4436710000000  0.4784170000000 1.0
C      1  0.3978920000000  0.4917400000000  0.4779700000000 1.0
C      1  0.4981650000000  0.4806700000000  0.5503480000000 1.0
C      1  0.5254430000000  0.4693380000000  0.6023040000000 1.0
C      1  0.5418520000000  0.4825890000000  0.4697410000000 1.0
C      1  0.4526930000000  0.5207610000000  0.4580070000000 1.0
C      1  0.4900230000000  0.4325930000000  0.5152380000000 1.0
C      1  0.5144530000000  0.4385280000000  0.4681830000000 1.0
C      1  0.4376380000000  0.4979150000000  0.5381060000000 1.0
C      1  0.5223500000000  0.4926960000000  0.4508330000000 1.0
C      1  0.4780240000000  0.4399520000000  0.3948070000000 1.0
C      1  0.6294300000000  0.5301830000000  0.4801960000000 1.0
C      1  0.5886730000000  0.5162560000000  0.4271840000000 1.0
C      1  0.5886330000000  0.4619530000000  0.4615930000000 1.0
C      1  0.4752660000000  0.6129060000000  0.5100380000000 1.0
C      1  0.4871110000000  0.4030160000000  0.5204800000000 1.0
C      1  0.5350040000000  0.5243460000000  0.5510190000000 1.0
C      1  0.5206840000000  0.4381020000000  0.5688640000000 1.0
C      1  0.4016350000000  0.3940120000000  0.4999130000000 1.0
C      1  0.4521840000000  0.4715680000000  0.5996890000000 1.0
C      1  0.5212300000000  0.5472760000000  0.5589270000000 1.0
C      1  0.4685900000000  0.5675790000000  0.4568390000000 1.0
C      1  0.5554990000000  0.4281920000000  0.4465600000000 1.0
C      1  0.5697120000000  0.4716300000000  0.4322630000000 1.0
C      1  0.4979400000000  0.6037280000000  0.4361240000000 1.0
C      1  0.5134380000000  0.5714250000000  0.3495840000000 1.0
C      1  0.4296470000000  0.5734110000000  0.4800680000000 1.0
C      1  0.4489930000000  0.4430990000000  0.5801900000000 1.0
C      1  0.5361790000000  0.4663530000000  0.3814190000000 1.0
C      1  0.4257790000000  0.5279460000000  0.4631770000000 1.0
C      1  0.4721380000000  0.6073270000000  0.4815300000000 1.0
C      1  0.5219590000000  0.4891460000000  0.3782270000000 1.0
C      1  0.5897650000000  0.5167280000000  0.5621180000000 1.0
C      1  0.4119060000000  0.5275180000000  0.5708730000000 1.0
C      1  0.4070310000000  0.4513590000000  0.4487720000000 1.0
C      1  0.5180850000000  0.5214040000000  0.4476460000000 1.0
C      1  0.4806070000000  0.5219400000000  0.5611730000000 1.0
C      1  0.6181120000000  0.4753700000000  0.5109230000000 1.0
C      1  0.4569620000000  0.5440530000000  0.5034990000000 1.0
C      1  0.4076180000000  0.5393900000000  0.5443810000000 1.0
C      1  0.4325030000000  0.4386260000000  0.4533090000000 1.0
C      1  0.4940010000000  0.5467090000000  0.5529960000000 1.0
C      1  0.6152050000000  0.5016760000000  0.5586600000000 1.0
C      1  0.5511060000000  0.4828110000000  0.6007470000000 1.0
C      1  0.4551180000000  0.5145220000000  0.5521380000000 1.0
C      1  0.4917290000000  0.5976540000000  0.5294760000000 1.0
C      1  0.4990400000000  0.4451070000000  0.4433510000000 1.0
C      1  0.4930400000000  0.5301190000000  0.4379550000000 1.0
C      1  0.5063060000000  0.5804580000000  0.4208370000000 1.0
C      1  0.4416360000000  0.4534990000000  0.5263610000000 1.0
C      1  0.5752460000000  0.4353570000000  0.4683720000000 1.0
C      1  0.5004530000000  0.4830950000000  0.5951480000000 1.0
C      1  0.4016840000000  0.4434410000000  0.4991530000000 1.0
C      1  0.5957010000000  0.5970060000000  0.5065320000000 1.0
C      1  0.4892620000000  0.6149580000000  0.4595550000000 1.0
C      1  0.5525300000000  0.4477750000000  0.4248480000000 1.0
C      1  0.4250880000000  0.3887010000000  0.4847970000000 1.0
C      1  0.5303660000000  0.5577300000000  0.5834630000000 1.0
C      1  0.5865650000000  0.5803970000000  0.4485260000000 1.0
C      1  0.5707580000000  0.4712040000000  0.5388150000000 1.0
C      1  0.5326690000000  0.4470510000000  0.4023130000000 1.0
C      1  0.4622880000000  0.4944200000000  0.4534980000000 1.0
C      1  0.5033330000000  0.5573520000000  0.4930160000000 1.0
C      1  0.5704310000000  0.5268110000000  0.5848490000000 1.0
C      1  0.5187890000000  0.4380890000000  0.5224060000000 1.0
C      1  0.4908620000000  0.5709270000000  0.3985680000000 1.0
C      1  0.5425440000000  0.5163780000000  0.4117270000000 1.0
C      1  0.4071280000000  0.5075230000000  0.4549730000000 1.0
C      1  0.4256800000000  0.4532120000000  0.4017170000000 1.0
C      1  0.5399480000000  0.4060620000000  0.4905250000000 1.0
C      1  0.5804820000000  0.5153970000000  0.5343430000000 1.0
C      1  0.4847470000000  0.5135190000000  0.4138320000000 1.0
C      1  0.4421290000000  0.5744760000000  0.4121680000000 1.0
C      1  0.5736930000000  0.4698890000000  0.5883710000000 1.0
C      1  0.4205710000000  0.5559940000000  0.4575570000000 1.0
C      1  0.4647860000000  0.5595170000000  0.4018090000000 1.0
C      1  0.5153460000000  0.5323830000000  0.4938700000000 1.0
C      1  0.4594580000000  0.5299550000000  0.4043070000000 1.0
END
