TITL C-627113-6568-397 56.5672978873725 125000 -642.550807684464 0 0 107 (C1) n - 1
REM
REM in /home/nfs/bkarasulu/CARBON/AIRSS/Generating-Clusters/LCBOP/Only-C1/SD-CG/FIRE-CG
REM
REM
REM
REM
REM
REM ./C.cell (11c1c37f851c82e70ff6c80c92926a4b)
REM AIRSS Version 0.9.1 bugfix July 2018 build 013d7b7c2542+ Fri, 06 Jul 2018 19:26:36 +0100
REM compiler GCC version 9.2.1 20190827 (Red Hat 9.2.1-1)
REM options -cpp -mtune=generic -march=x86-64 -g -O0 -fpre-include=/usr/include/finclude/math-vector-fortran.h
REM seed 1780564850 -1374706585 382919269 -802867671 161677704 -50980626 -1365424305 -834230866 -2116109549 1536799522 1629218595 -115379666 299956909 1500002981 -392561115 -1231809381 -1053495417 -895847375 -367788884 535290641 2004504892 -549988315 -2142005231 -1892397955 -1778057302 -1748072631 1124470102 -901875989 -1045538937 67059639 1487792329 1460030316 1961425478
REM
CELL 1.54180   50.00000   50.00000   50.00000   90.00000   90.00000   90.00000
LATT -1
SFAC C  
C      1  0.4727300000000  0.4934820000000  0.5435950000000 1.0
C      1  0.5105580000000  0.4285340000000  0.4148550000000 1.0
C      1  0.5007050000000  0.4171570000000  0.5476300000000 1.0
C      1  0.5714110000000  0.4930020000000  0.5746580000000 1.0
C      1  0.5031250000000  0.6047340000000  0.5174510000000 1.0
C      1  0.3793850000000  0.4908890000000  0.4870030000000 1.0
C      1  0.4940560000000  0.4961760000000  0.4088910000000 1.0
C      1  0.5733900000000  0.5303820000000  0.5237280000000 1.0
C      1  0.5347550000000  0.4824850000000  0.4334730000000 1.0
C      1  0.4724140000000  0.4867290000000  0.4217580000000 1.0
C      1  0.5272490000000  0.4004190000000  0.5043010000000 1.0
C      1  0.5193420000000  0.5879360000000  0.5560730000000 1.0
C      1  0.4443610000000  0.4694640000000  0.5778200000000 1.0
C      1  0.4845780000000  0.4565800000000  0.4609310000000 1.0
C      1  0.4597600000000  0.4515100000000  0.5239150000000 1.0
C      1  0.5730490000000  0.5496050000000  0.4458550000000 1.0
C      1  0.4065620000000  0.4431240000000  0.4731890000000 1.0
C      1  0.5704610000000  0.5154170000000  0.5893640000000 1.0
C      1  0.5299910000000  0.4239590000000  0.4330260000000 1.0
C      1  0.4864230000000  0.4331350000000  0.4037110000000 1.0
C      1  0.4259380000000  0.5226910000000  0.5033910000000 1.0
C      1  0.5086350000000  0.6149960000000  0.4197570000000 1.0
C      1  0.4756430000000  0.4215400000000  0.4711330000000 1.0
C      1  0.5621800000000  0.5720650000000  0.5460020000000 1.0
C      1  0.5660050000000  0.5416190000000  0.5868370000000 1.0
C      1  0.4880470000000  0.5962750000000  0.4917350000000 1.0
C      1  0.5336030000000  0.6038260000000  0.4831630000000 1.0
C      1  0.5924410000000  0.5719610000000  0.5078100000000 1.0
C      1  0.4339790000000  0.4951070000000  0.5715120000000 1.0
C      1  0.4599050000000  0.4388120000000  0.4031540000000 1.0
C      1  0.5421950000000  0.5909560000000  0.5364870000000 1.0
C      1  0.3865820000000  0.5160500000000  0.5290430000000 1.0
C      1  0.4909600000000  0.4420360000000  0.5618680000000 1.0
C      1  0.4372950000000  0.4383960000000  0.4205060000000 1.0
C      1  0.3804670000000  0.4913930000000  0.5155330000000 1.0
C      1  0.5517380000000  0.5223590000000  0.5066450000000 1.0
C      1  0.4975950000000  0.5010620000000  0.5296990000000 1.0
C      1  0.5283100000000  0.5731480000000  0.5787070000000 1.0
C      1  0.5457790000000  0.4835490000000  0.5325280000000 1.0
C      1  0.4222380000000  0.5096910000000  0.4796870000000 1.0
C      1  0.5414180000000  0.5791350000000  0.4703190000000 1.0
C      1  0.5786280000000  0.5578610000000  0.5279560000000 1.0
C      1  0.5325310000000  0.6037090000000  0.5124390000000 1.0
C      1  0.4862080000000  0.5444920000000  0.5090200000000 1.0
C      1  0.4517020000000  0.4771610000000  0.5318370000000 1.0
C      1  0.5999270000000  0.4945010000000  0.4832420000000 1.0
C      1  0.5879510000000  0.5064410000000  0.5310740000000 1.0
C      1  0.5081710000000  0.3962360000000  0.5653430000000 1.0
C      1  0.5092310000000  0.3540790000000  0.4612360000000 1.0
C      1  0.4029860000000  0.4907140000000  0.4702540000000 1.0
C      1  0.4204750000000  0.4598800000000  0.4305570000000 1.0
C      1  0.4089820000000  0.4660980000000  0.4563880000000 1.0
C      1  0.4245290000000  0.4239230000000  0.4831150000000 1.0
C      1  0.4384990000000  0.4163660000000  0.4383970000000 1.0
C      1  0.4950900000000  0.5652620000000  0.4896800000000 1.0
C      1  0.4830130000000  0.4478460000000  0.5099900000000 1.0
C      1  0.4593730000000  0.6010780000000  0.4975050000000 1.0
C      1  0.4144200000000  0.5226700000000  0.5300420000000 1.0
C      1  0.5041400000000  0.4760060000000  0.4701680000000 1.0
C      1  0.5023940000000  0.6184070000000  0.4454260000000 1.0
C      1  0.5300560000000  0.3964980000000  0.4760330000000 1.0
C      1  0.5683400000000  0.5726050000000  0.4630930000000 1.0
C      1  0.5040090000000  0.4098720000000  0.5182650000000 1.0
C      1  0.5152820000000  0.3766970000000  0.5817580000000 1.0
C      1  0.4940130000000  0.5164870000000  0.5060000000000 1.0
C      1  0.5720580000000  0.5532050000000  0.4182400000000 1.0
C      1  0.5314820000000  0.4771170000000  0.4610550000000 1.0
C      1  0.5194330000000  0.4838700000000  0.5427640000000 1.0
C      1  0.5473140000000  0.4936280000000  0.5058480000000 1.0
C      1  0.4686210000000  0.4686890000000  0.4414270000000 1.0
C      1  0.5412970000000  0.5853670000000  0.3929960000000 1.0
C      1  0.5087560000000  0.3810310000000  0.4645140000000 1.0
C      1  0.4839110000000  0.4875430000000  0.5703360000000 1.0
C      1  0.5223000000000  0.3574690000000  0.5979030000000 1.0
C      1  0.5544600000000  0.5624320000000  0.5724310000000 1.0
C      1  0.5683080000000  0.5254630000000  0.4601000000000 1.0
C      1  0.4712550000000  0.5520980000000  0.5336090000000 1.0
C      1  0.4232480000000  0.4757040000000  0.5317480000000 1.0
C      1  0.5068640000000  0.4602780000000  0.5097460000000 1.0
C      1  0.4698420000000  0.5801800000000  0.5393630000000 1.0
C      1  0.5526890000000  0.4838510000000  0.4790040000000 1.0
C      1  0.4875220000000  0.3980190000000  0.4571310000000 1.0
C      1  0.4850300000000  0.4218810000000  0.4994360000000 1.0
C      1  0.4460780000000  0.4182220000000  0.4656230000000 1.0
C      1  0.5003760000000  0.5647060000000  0.6237630000000 1.0
C      1  0.5883090000000  0.5787690000000  0.4821440000000 1.0
C      1  0.5499190000000  0.5330490000000  0.4812260000000 1.0
C      1  0.5227830000000  0.6028840000000  0.4007230000000 1.0
C      1  0.5066180000000  0.6107100000000  0.4717360000000 1.0
C      1  0.4553490000000  0.5358320000000  0.5504490000000 1.0
C      1  0.4422870000000  0.4296310000000  0.5278560000000 1.0
C      1  0.5595710000000  0.5669510000000  0.3990860000000 1.0
C      1  0.4631540000000  0.4485190000000  0.5738020000000 1.0
C      1  0.5203650000000  0.4928060000000  0.4132980000000 1.0
C      1  0.5400460000000  0.4147660000000  0.4565460000000 1.0
C      1  0.5055840000000  0.4680670000000  0.5633560000000 1.0
C      1  0.5143380000000  0.5693740000000  0.6022610000000 1.0
C      1  0.4510200000000  0.5943480000000  0.5228540000000 1.0
C      1  0.5761910000000  0.4983400000000  0.4677880000000 1.0
C      1  0.5181570000000  0.5615750000000  0.4722870000000 1.0
C      1  0.4262000000000  0.4174850000000  0.5101900000000 1.0
C      1  0.4947690000000  0.5934040000000  0.5426680000000 1.0
C      1  0.5704110000000  0.4891130000000  0.5468900000000 1.0
C      1  0.4323890000000  0.5189490000000  0.5530480000000 1.0
C      1  0.4949440000000  0.5006590000000  0.4823690000000 1.0
C      1  0.3971400000000  0.4712910000000  0.5267660000000 1.0
C      1  0.6044040000000  0.4964490000000  0.5100620000000 1.0
END
