TITL C-627112-676-1301 1.07765773181789e-06 125000 -1063.21045978938 0 0 174 (C1) n - 1
REM
REM in /home/nfs/bkarasulu/CARBON/AIRSS/Generating-Clusters/LCBOP/Only-C1/SD-CG/FIRE-CG
REM
REM
REM
REM
REM
REM ./C.cell (11c1c37f851c82e70ff6c80c92926a4b)
REM AIRSS Version 0.9.1 bugfix July 2018 build 013d7b7c2542+ Fri, 06 Jul 2018 19:26:36 +0100
REM compiler GCC version 9.2.1 20190827 (Red Hat 9.2.1-1)
REM options -cpp -mtune=generic -march=x86-64 -g -O0 -fpre-include=/usr/include/finclude/math-vector-fortran.h
REM seed 98341908 1058517958 -809483867 1964276065 91110138 -14821756 -1205535582 1126673483 -1929488607 -1317907213 -1721623550 317069317 -1784222802 -387493470 1053430851 1140956759 1352541284 455973487 -643647094 -698158617 -368761650 1683535426 -1137033575 -219616399 876083434 -787864999 1823938768 -701779559 1076166874 1697176457 1243210904 870380804 1923943678
REM
CELL 1.54180   50.00000   50.00000   50.00000   90.00000   90.00000   90.00000
LATT -1
SFAC C  
C      1  0.4707440000000  0.5880330000000  0.4005860000000 1.0
C      1  0.5290090000000  0.5763670000000  0.5470660000000 1.0
C      1  0.5275770000000  0.5137460000000  0.5313820000000 1.0
C      1  0.5666200000000  0.6372540000000  0.5567920000000 1.0
C      1  0.4156170000000  0.5923620000000  0.4722550000000 1.0
C      1  0.5917880000000  0.5369860000000  0.5716320000000 1.0
C      1  0.4153350000000  0.4936690000000  0.3900880000000 1.0
C      1  0.4557980000000  0.4658530000000  0.4689850000000 1.0
C      1  0.5159920000000  0.4605350000000  0.5368600000000 1.0
C      1  0.5912540000000  0.3855520000000  0.4865580000000 1.0
C      1  0.3706730000000  0.4354990000000  0.5148810000000 1.0
C      1  0.4350590000000  0.4210890000000  0.5078860000000 1.0
C      1  0.4037340000000  0.4908130000000  0.5628520000000 1.0
C      1  0.4457230000000  0.5731140000000  0.4044390000000 1.0
C      1  0.5233600000000  0.4662340000000  0.6079910000000 1.0
C      1  0.6346040000000  0.5248310000000  0.5507000000000 1.0
C      1  0.6287560000000  0.4598310000000  0.5196260000000 1.0
C      1  0.4235420000000  0.5196250000000  0.4765700000000 1.0
C      1  0.6120790000000  0.4682370000000  0.4602160000000 1.0
C      1  0.4351620000000  0.3755880000000  0.5530930000000 1.0
C      1  0.5412180000000  0.5385450000000  0.5202110000000 1.0
C      1  0.4556560000000  0.5247610000000  0.5700630000000 1.0
C      1  0.3739220000000  0.4614120000000  0.5090270000000 1.0
C      1  0.6192260000000  0.4976100000000  0.5847050000000 1.0
C      1  0.4152150000000  0.3945450000000  0.5593170000000 1.0
C      1  0.5524210000000  0.3986860000000  0.5122000000000 1.0
C      1  0.5542970000000  0.5293440000000  0.4058650000000 1.0
C      1  0.5554370000000  0.6012190000000  0.4774900000000 1.0
C      1  0.5455690000000  0.5229790000000  0.5773970000000 1.0
C      1  0.5924790000000  0.4780750000000  0.5426900000000 1.0
C      1  0.5902740000000  0.4301860000000  0.5455710000000 1.0
C      1  0.4481220000000  0.5477630000000  0.3894780000000 1.0
C      1  0.6020830000000  0.5086880000000  0.4842110000000 1.0
C      1  0.4483740000000  0.4563690000000  0.5950370000000 1.0
C      1  0.4827120000000  0.4706850000000  0.3630280000000 1.0
C      1  0.4148730000000  0.5018320000000  0.5865320000000 1.0
C      1  0.4515880000000  0.5275000000000  0.5161480000000 1.0
C      1  0.4740550000000  0.6547350000000  0.4333140000000 1.0
C      1  0.4651310000000  0.5342770000000  0.4294860000000 1.0
C      1  0.4963670000000  0.4723390000000  0.5532230000000 1.0
C      1  0.5919980000000  0.5465050000000  0.5098200000000 1.0
C      1  0.4937640000000  0.5347250000000  0.4234110000000 1.0
C      1  0.4716130000000  0.3991480000000  0.3767380000000 1.0
C      1  0.5012520000000  0.6073800000000  0.5722780000000 1.0
C      1  0.5031200000000  0.5170600000000  0.4668050000000 1.0
C      1  0.5952460000000  0.4688310000000  0.4358020000000 1.0
C      1  0.4618770000000  0.5705670000000  0.6141350000000 1.0
C      1  0.4978920000000  0.4020070000000  0.4164560000000 1.0
C      1  0.4825630000000  0.3828660000000  0.5320290000000 1.0
C      1  0.4828580000000  0.5020620000000  0.4575260000000 1.0
C      1  0.5977560000000  0.4258550000000  0.4561600000000 1.0
C      1  0.5009750000000  0.5072640000000  0.5161290000000 1.0
C      1  0.4724410000000  0.3619710000000  0.4075310000000 1.0
C      1  0.5099360000000  0.3752480000000  0.5275440000000 1.0
C      1  0.5400150000000  0.5382150000000  0.4918240000000 1.0
C      1  0.5814160000000  0.4546560000000  0.5567330000000 1.0
C      1  0.3995740000000  0.5702910000000  0.5192130000000 1.0
C      1  0.3845050000000  0.5183220000000  0.4474990000000 1.0
C      1  0.5868970000000  0.4410760000000  0.4338030000000 1.0
C      1  0.5446210000000  0.4946150000000  0.4685970000000 1.0
C      1  0.5418820000000  0.4228380000000  0.4141680000000 1.0
C      1  0.5111890000000  0.4391580000000  0.4912960000000 1.0
C      1  0.6318580000000  0.4973510000000  0.5585410000000 1.0
C      1  0.5248260000000  0.3948460000000  0.5122020000000 1.0
C      1  0.6132600000000  0.5438410000000  0.5537180000000 1.0
C      1  0.4403580000000  0.4379100000000  0.5736110000000 1.0
C      1  0.4542070000000  0.5920960000000  0.5258270000000 1.0
C      1  0.5799240000000  0.4019230000000  0.5069770000000 1.0
C      1  0.6133410000000  0.4409350000000  0.5037210000000 1.0
C      1  0.4804450000000  0.3870680000000  0.4004170000000 1.0
C      1  0.4717590000000  0.6121070000000  0.4143280000000 1.0
C      1  0.5355190000000  0.5489140000000  0.4049270000000 1.0
C      1  0.4551680000000  0.5860240000000  0.5916350000000 1.0
C      1  0.5078840000000  0.5552160000000  0.4084490000000 1.0
C      1  0.5413940000000  0.4685110000000  0.5435820000000 1.0
C      1  0.4669520000000  0.5131790000000  0.5914970000000 1.0
C      1  0.4391940000000  0.5431030000000  0.4717710000000 1.0
C      1  0.5909170000000  0.5625760000000  0.4861500000000 1.0
C      1  0.5261390000000  0.6018220000000  0.5593390000000 1.0
C      1  0.5908640000000  0.4947550000000  0.4246900000000 1.0
C      1  0.5773320000000  0.4972310000000  0.5269700000000 1.0
C      1  0.4822510000000  0.5279040000000  0.5173580000000 1.0
C      1  0.5762130000000  0.5859900000000  0.4837240000000 1.0
C      1  0.4762350000000  0.4513680000000  0.6042070000000 1.0
C      1  0.5999500000000  0.5164560000000  0.5900970000000 1.0
C      1  0.4744750000000  0.5461520000000  0.3756120000000 1.0
C      1  0.4848530000000  0.5564800000000  0.6151110000000 1.0
C      1  0.6055620000000  0.5581050000000  0.5313120000000 1.0
C      1  0.4680900000000  0.4746810000000  0.4927110000000 1.0
C      1  0.5360820000000  0.4486750000000  0.5880090000000 1.0
C      1  0.4495720000000  0.5525370000000  0.4969180000000 1.0
C      1  0.5976320000000  0.3593690000000  0.4905510000000 1.0
C      1  0.4529670000000  0.6442060000000  0.4475580000000 1.0
C      1  0.4846350000000  0.6371010000000  0.4149940000000 1.0
C      1  0.4910000000000  0.4279420000000  0.5955080000000 1.0
C      1  0.3798930000000  0.4918930000000  0.5467900000000 1.0
C      1  0.5669630000000  0.4310060000000  0.4173460000000 1.0
C      1  0.5008130000000  0.5495440000000  0.5947320000000 1.0
C      1  0.4303470000000  0.5095380000000  0.5027740000000 1.0
C      1  0.4393990000000  0.5926970000000  0.5479860000000 1.0
C      1  0.4986280000000  0.4859810000000  0.4071930000000 1.0
C      1  0.5487180000000  0.5142860000000  0.6030930000000 1.0
C      1  0.4916430000000  0.4657910000000  0.4274790000000 1.0
C      1  0.5399020000000  0.4683690000000  0.4656580000000 1.0
C      1  0.5954620000000  0.3988220000000  0.4622000000000 1.0
C      1  0.4545180000000  0.4410970000000  0.5486830000000 1.0
C      1  0.5304720000000  0.5185400000000  0.4737370000000 1.0
C      1  0.5047430000000  0.4144190000000  0.5034730000000 1.0
C      1  0.4281320000000  0.4611170000000  0.4664880000000 1.0
C      1  0.6091970000000  0.5134860000000  0.4355690000000 1.0
C      1  0.4350820000000  0.5788170000000  0.5725660000000 1.0
C      1  0.4045760000000  0.5056930000000  0.4609260000000 1.0
C      1  0.5200070000000  0.5176690000000  0.5614870000000 1.0
C      1  0.3857320000000  0.4849070000000  0.5187860000000 1.0
C      1  0.4009580000000  0.5597800000000  0.5444450000000 1.0
C      1  0.6055050000000  0.5519060000000  0.4646580000000 1.0
C      1  0.4135170000000  0.5317150000000  0.5858570000000 1.0
C      1  0.4374960000000  0.5724610000000  0.4325160000000 1.0
C      1  0.4800460000000  0.4092170000000  0.5191020000000 1.0
C      1  0.4320490000000  0.4809870000000  0.5991950000000 1.0
C      1  0.4884520000000  0.5560470000000  0.5231100000000 1.0
C      1  0.4237650000000  0.4838280000000  0.5430080000000 1.0
C      1  0.4050210000000  0.5825900000000  0.4954440000000 1.0
C      1  0.5072180000000  0.4446180000000  0.4392770000000 1.0
C      1  0.5044210000000  0.5429530000000  0.5675640000000 1.0
C      1  0.3765660000000  0.4132830000000  0.5284930000000 1.0
C      1  0.4151060000000  0.5571070000000  0.5700320000000 1.0
C      1  0.5067340000000  0.5097840000000  0.4199390000000 1.0
C      1  0.4474340000000  0.5255950000000  0.4075150000000 1.0
C      1  0.4766760000000  0.6029230000000  0.5824080000000 1.0
C      1  0.4463860000000  0.5289570000000  0.5453600000000 1.0
C      1  0.5198650000000  0.4480690000000  0.4651150000000 1.0
C      1  0.5089900000000  0.4603340000000  0.5098960000000 1.0
C      1  0.5494510000000  0.4928760000000  0.5311450000000 1.0
C      1  0.5894490000000  0.5170250000000  0.5084980000000 1.0
C      1  0.4566340000000  0.4243500000000  0.5254140000000 1.0
C      1  0.5170500000000  0.4265960000000  0.5864650000000 1.0
C      1  0.4475390000000  0.4821810000000  0.4243410000000 1.0
C      1  0.5297460000000  0.6061880000000  0.4731750000000 1.0
C      1  0.3918030000000  0.3978720000000  0.5441260000000 1.0
C      1  0.4466690000000  0.6176490000000  0.4408180000000 1.0
C      1  0.5500480000000  0.5563690000000  0.5419920000000 1.0
C      1  0.5638060000000  0.5415020000000  0.5643890000000 1.0
C      1  0.4076360000000  0.4775930000000  0.4607330000000 1.0
C      1  0.4897940000000  0.5679380000000  0.3899720000000 1.0
C      1  0.5040600000000  0.5615820000000  0.5460090000000 1.0
C      1  0.4703220000000  0.4205270000000  0.3610270000000 1.0
C      1  0.4149420000000  0.4903540000000  0.5164430000000 1.0
C      1  0.5153670000000  0.4226270000000  0.4231910000000 1.0
C      1  0.5541340000000  0.4565600000000  0.5662590000000 1.0
C      1  0.6089900000000  0.5242390000000  0.4612360000000 1.0
C      1  0.4893280000000  0.4917710000000  0.3801130000000 1.0
C      1  0.4828620000000  0.5888710000000  0.4862460000000 1.0
C      1  0.5956250000000  0.4229420000000  0.5186010000000 1.0
C      1  0.4948110000000  0.4732800000000  0.6091300000000 1.0
C      1  0.4602690000000  0.3716730000000  0.5445240000000 1.0
C      1  0.5466080000000  0.6206640000000  0.5586450000000 1.0
C      1  0.6105700000000  0.4438990000000  0.4754910000000 1.0
C      1  0.4889260000000  0.4961880000000  0.5937040000000 1.0
C      1  0.6209570000000  0.4783620000000  0.5399670000000 1.0
C      1  0.4925650000000  0.4824210000000  0.5041000000000 1.0
C      1  0.5031660000000  0.4945330000000  0.5692390000000 1.0
C      1  0.5690140000000  0.5072880000000  0.4114470000000 1.0
C      1  0.4706070000000  0.4637840000000  0.5488200000000 1.0
C      1  0.4847210000000  0.5193240000000  0.3715450000000 1.0
C      1  0.4205310000000  0.4103960000000  0.4890270000000 1.0
C      1  0.4490480000000  0.5504320000000  0.4467520000000 1.0
C      1  0.4688770000000  0.4773610000000  0.4446580000000 1.0
C      1  0.4750210000000  0.4462190000000  0.3562610000000 1.0
C      1  0.5038620000000  0.6008810000000  0.4754240000000 1.0
C      1  0.4229910000000  0.4161310000000  0.5758100000000 1.0
C      1  0.4358710000000  0.5002920000000  0.4066800000000 1.0
C      1  0.4688700000000  0.5741160000000  0.5074540000000 1.0
C      1  0.4313380000000  0.5955100000000  0.4482580000000 1.0
END
