TITL C-627113-6568-836 25912.5427312664 125000 -1176.66422120727 0 0 194 (C1) n - 1
REM
REM in /home/nfs/bkarasulu/CARBON/AIRSS/Generating-Clusters/LCBOP/Only-C1/SD-CG/FIRE-CG
REM
REM
REM
REM
REM
REM ./C.cell (11c1c37f851c82e70ff6c80c92926a4b)
REM AIRSS Version 0.9.1 bugfix July 2018 build 013d7b7c2542+ Fri, 06 Jul 2018 19:26:36 +0100
REM compiler GCC version 9.2.1 20190827 (Red Hat 9.2.1-1)
REM options -cpp -mtune=generic -march=x86-64 -g -O0 -fpre-include=/usr/include/finclude/math-vector-fortran.h
REM seed 1634192101 -1184671652 -130364225 235315894 -1912197155 752316956 165157484 1839225158 -295667992 -1107155507 -1973872908 -1608747272 -1120832310 -1685285869 -1643253050 -656050743 602938011 -1043841364 -144790408 -110060328 -687308352 -1677206182 698582441 6336310 144456050 1480623761 -536135560 1003328983 -1357899327 -1041211672 -347542489 895287117 1495343130
REM
CELL 1.54180   50.00000   50.00000   50.00000   90.00000   90.00000   90.00000
LATT -1
SFAC C  
C      1  0.4072450000000  0.6277440000000  0.4859270000000 1.0
C      1  0.3531480000000  0.5108800000000  0.4256280000000 1.0
C      1  0.5983020000000  0.4612790000000  0.5625290000000 1.0
C      1  0.6072950000000  0.4610300000000  0.4467900000000 1.0
C      1  0.4698390000000  0.5402070000000  0.6157530000000 1.0
C      1  0.6060000000000  0.4816150000000  0.4278160000000 1.0
C      1  0.4466820000000  0.4943980000000  0.3965230000000 1.0
C      1  0.4611120000000  0.4871540000000  0.4997710000000 1.0
C      1  0.4987230000000  0.5579630000000  0.4461310000000 1.0
C      1  0.4823290000000  0.4953940000000  0.5845750000000 1.0
C      1  0.4266970000000  0.5610850000000  0.5838800000000 1.0
C      1  0.3985680000000  0.5640370000000  0.5083450000000 1.0
C      1  0.4810250000000  0.3962130000000  0.4676990000000 1.0
C      1  0.4834480000000  0.4089920000000  0.5162130000000 1.0
C      1  0.5268890000000  0.4631730000000  0.5558980000000 1.0
C      1  0.4860590000000  0.4992470000000  0.4947650000000 1.0
C      1  0.5776300000000  0.3929130000000  0.4960940000000 1.0
C      1  0.6053590000000  0.5387900000000  0.4643570000000 1.0
C      1  0.6141070000000  0.4776030000000  0.5217680000000 1.0
C      1  0.6096140000000  0.5019810000000  0.5403360000000 1.0
C      1  0.4464870000000  0.5698310000000  0.4315600000000 1.0
C      1  0.5278680000000  0.5153280000000  0.4185920000000 1.0
C      1  0.5488100000000  0.4888240000000  0.3808130000000 1.0
C      1  0.4330590000000  0.5304640000000  0.5111980000000 1.0
C      1  0.4825590000000  0.4134370000000  0.3830670000000 1.0
C      1  0.4188410000000  0.5846900000000  0.5678900000000 1.0
C      1  0.4729300000000  0.4393700000000  0.6194490000000 1.0
C      1  0.4638660000000  0.5002540000000  0.5633890000000 1.0
C      1  0.5409800000000  0.5990160000000  0.5817370000000 1.0
C      1  0.4735530000000  0.5982220000000  0.5130370000000 1.0
C      1  0.5038270000000  0.4830320000000  0.4543640000000 1.0
C      1  0.4128190000000  0.5886520000000  0.5137450000000 1.0
C      1  0.4149420000000  0.4826920000000  0.5102920000000 1.0
C      1  0.4676570000000  0.3891660000000  0.5770480000000 1.0
C      1  0.4258010000000  0.4254660000000  0.4752040000000 1.0
C      1  0.6011110000000  0.4903480000000  0.5663300000000 1.0
C      1  0.5744820000000  0.4796120000000  0.4808730000000 1.0
C      1  0.4445990000000  0.5954890000000  0.4447200000000 1.0
C      1  0.4747310000000  0.5059410000000  0.3927550000000 1.0
C      1  0.3769680000000  0.5632460000000  0.4916290000000 1.0
C      1  0.5394180000000  0.4446940000000  0.4427240000000 1.0
C      1  0.4744410000000  0.5319270000000  0.5284200000000 1.0
C      1  0.5418940000000  0.5073280000000  0.6146220000000 1.0
C      1  0.4902260000000  0.5212700000000  0.6241240000000 1.0
C      1  0.4972670000000  0.4417770000000  0.6044200000000 1.0
C      1  0.6030320000000  0.4530230000000  0.5346630000000 1.0
C      1  0.5555190000000  0.4647010000000  0.5480760000000 1.0
C      1  0.4197660000000  0.4989400000000  0.4481340000000 1.0
C      1  0.5157680000000  0.6062940000000  0.5891000000000 1.0
C      1  0.5082740000000  0.4266580000000  0.5114500000000 1.0
C      1  0.4346880000000  0.4495910000000  0.4592730000000 1.0
C      1  0.5188860000000  0.4237580000000  0.4824760000000 1.0
C      1  0.4336990000000  0.4016440000000  0.4616000000000 1.0
C      1  0.4480420000000  0.4774320000000  0.5565070000000 1.0
C      1  0.4083120000000  0.5405090000000  0.5214720000000 1.0
C      1  0.5435820000000  0.4506040000000  0.6163260000000 1.0
C      1  0.6186600000000  0.3657100000000  0.4381940000000 1.0
C      1  0.5380670000000  0.5736620000000  0.4259990000000 1.0
C      1  0.4803510000000  0.4306660000000  0.4050140000000 1.0
C      1  0.4031380000000  0.5340790000000  0.5486560000000 1.0
C      1  0.5995140000000  0.5274670000000  0.4155930000000 1.0
C      1  0.5520060000000  0.5730490000000  0.5798760000000 1.0
C      1  0.4613640000000  0.4241810000000  0.4261480000000 1.0
C      1  0.4619150000000  0.4856940000000  0.4369650000000 1.0
C      1  0.4646210000000  0.4167630000000  0.6320130000000 1.0
C      1  0.4899450000000  0.5985790000000  0.5914840000000 1.0
C      1  0.5558680000000  0.6135980000000  0.4859220000000 1.0
C      1  0.5655600000000  0.4374860000000  0.4352970000000 1.0
C      1  0.4102530000000  0.4560590000000  0.5098660000000 1.0
C      1  0.6232510000000  0.4774160000000  0.4943970000000 1.0
C      1  0.3974050000000  0.4731710000000  0.5758500000000 1.0
C      1  0.5571070000000  0.5405670000000  0.4889790000000 1.0
C      1  0.4588190000000  0.4529720000000  0.5463160000000 1.0
C      1  0.4477520000000  0.4721930000000  0.4156130000000 1.0
C      1  0.5308160000000  0.4690000000000  0.4874680000000 1.0
C      1  0.5193720000000  0.4343720000000  0.5594050000000 1.0
C      1  0.5862410000000  0.5546320000000  0.5412210000000 1.0
C      1  0.4069470000000  0.5070980000000  0.4236920000000 1.0
C      1  0.5291400000000  0.3702150000000  0.4992580000000 1.0
C      1  0.5186670000000  0.5179610000000  0.5530100000000 1.0
C      1  0.5031190000000  0.5560890000000  0.3995540000000 1.0
C      1  0.4849300000000  0.3975570000000  0.3625420000000 1.0
C      1  0.6125870000000  0.3899340000000  0.4456370000000 1.0
C      1  0.3735090000000  0.4701200000000  0.5858050000000 1.0
C      1  0.4771340000000  0.5414310000000  0.3986440000000 1.0
C      1  0.4622800000000  0.5808530000000  0.5550370000000 1.0
C      1  0.4600520000000  0.4042840000000  0.4493690000000 1.0
C      1  0.5629700000000  0.4596790000000  0.5974240000000 1.0
C      1  0.5084420000000  0.5512010000000  0.5871460000000 1.0
C      1  0.4823600000000  0.3875690000000  0.4962570000000 1.0
C      1  0.5932390000000  0.5003060000000  0.4106630000000 1.0
C      1  0.5744810000000  0.5320460000000  0.5863730000000 1.0
C      1  0.4945450000000  0.4544610000000  0.5148460000000 1.0
C      1  0.5073070000000  0.6087910000000  0.4228790000000 1.0
C      1  0.4708130000000  0.5270220000000  0.5556860000000 1.0
C      1  0.4536540000000  0.5608510000000  0.5983040000000 1.0
C      1  0.5440230000000  0.5870270000000  0.4860860000000 1.0
C      1  0.4296190000000  0.5404520000000  0.3962250000000 1.0
C      1  0.5141220000000  0.5906540000000  0.5402710000000 1.0
C      1  0.5674010000000  0.5108500000000  0.5268310000000 1.0
C      1  0.5146830000000  0.5827900000000  0.4104290000000 1.0
C      1  0.4247220000000  0.5129980000000  0.4015330000000 1.0
C      1  0.5084670000000  0.4726490000000  0.5336350000000 1.0
C      1  0.4973270000000  0.4547400000000  0.4057330000000 1.0
C      1  0.5156040000000  0.4971400000000  0.6229470000000 1.0
C      1  0.5940930000000  0.4161030000000  0.5009860000000 1.0
C      1  0.5106740000000  0.5277270000000  0.4749010000000 1.0
C      1  0.4417460000000  0.4459790000000  0.4287310000000 1.0
C      1  0.4597260000000  0.5299140000000  0.4580220000000 1.0
C      1  0.5621590000000  0.5681260000000  0.4965860000000 1.0
C      1  0.3041290000000  0.5106380000000  0.4454640000000 1.0
C      1  0.4552690000000  0.5491210000000  0.5172220000000 1.0
C      1  0.4959000000000  0.6076100000000  0.5286870000000 1.0
C      1  0.5805380000000  0.5287370000000  0.4742590000000 1.0
C      1  0.2814040000000  0.5093380000000  0.4590480000000 1.0
C      1  0.4873040000000  0.5427150000000  0.5728420000000 1.0
C      1  0.5487590000000  0.5291650000000  0.5164220000000 1.0
C      1  0.4213870000000  0.4769540000000  0.5652400000000 1.0
C      1  0.6099440000000  0.4275640000000  0.4803820000000 1.0
C      1  0.4691190000000  0.4855010000000  0.6073380000000 1.0
C      1  0.5140780000000  0.6153690000000  0.4513400000000 1.0
C      1  0.3279830000000  0.5112390000000  0.4339330000000 1.0
C      1  0.4644520000000  0.4538490000000  0.4703260000000 1.0
C      1  0.3793130000000  0.5094910000000  0.4217290000000 1.0
C      1  0.5070970000000  0.4064110000000  0.4636050000000 1.0
C      1  0.5196000000000  0.4968030000000  0.4358490000000 1.0
C      1  0.5009130000000  0.3657240000000  0.5012810000000 1.0
C      1  0.5769020000000  0.6088250000000  0.5085600000000 1.0
C      1  0.5931460000000  0.4364480000000  0.4394160000000 1.0
C      1  0.5606700000000  0.4829030000000  0.5262280000000 1.0
C      1  0.5232840000000  0.5352790000000  0.4011740000000 1.0
C      1  0.4985140000000  0.6014740000000  0.4720210000000 1.0
C      1  0.4981470000000  0.4285220000000  0.5776320000000 1.0
C      1  0.5722140000000  0.4537560000000  0.5706480000000 1.0
C      1  0.5351400000000  0.5542240000000  0.5948230000000 1.0
C      1  0.5797930000000  0.5037820000000  0.5816510000000 1.0
C      1  0.4871310000000  0.5365280000000  0.4611390000000 1.0
C      1  0.5074700000000  0.5645710000000  0.5044010000000 1.0
C      1  0.4597990000000  0.4641520000000  0.6205980000000 1.0
C      1  0.4937960000000  0.6274580000000  0.4077910000000 1.0
C      1  0.5307480000000  0.5395350000000  0.5371940000000 1.0
C      1  0.4477140000000  0.5060890000000  0.4498170000000 1.0
C      1  0.5790150000000  0.5790610000000  0.5172510000000 1.0
C      1  0.4695330000000  0.4592060000000  0.4982570000000 1.0
C      1  0.4131580000000  0.5382310000000  0.5735490000000 1.0
C      1  0.4762570000000  0.4125740000000  0.5658510000000 1.0
C      1  0.5511730000000  0.5332590000000  0.6055220000000 1.0
C      1  0.5318570000000  0.4457300000000  0.4707050000000 1.0
C      1  0.5208660000000  0.4499650000000  0.4218780000000 1.0
C      1  0.4225860000000  0.6051420000000  0.4911210000000 1.0
C      1  0.5179340000000  0.5639440000000  0.5309830000000 1.0
C      1  0.4362630000000  0.4171190000000  0.5239640000000 1.0
C      1  0.5282960000000  0.4826160000000  0.5780670000000 1.0
C      1  0.4365380000000  0.5010460000000  0.5063560000000 1.0
C      1  0.5769980000000  0.5019750000000  0.4670720000000 1.0
C      1  0.6164510000000  0.4565240000000  0.4754210000000 1.0
C      1  0.4213990000000  0.4305640000000  0.5033500000000 1.0
C      1  0.5293220000000  0.4229030000000  0.5340720000000 1.0
C      1  0.6056310000000  0.5434610000000  0.4364200000000 1.0
C      1  0.4922970000000  0.5152190000000  0.5157140000000 1.0
C      1  0.4964310000000  0.4820720000000  0.3914670000000 1.0
C      1  0.4460150000000  0.6018460000000  0.4731370000000 1.0
C      1  0.4724030000000  0.6029940000000  0.4847590000000 1.0
C      1  0.5085720000000  0.4861740000000  0.4819260000000 1.0
C      1  0.5352110000000  0.5400630000000  0.4687230000000 1.0
C      1  0.2595580000000  0.5077660000000  0.4731880000000 1.0
C      1  0.5922300000000  0.5247710000000  0.5338460000000 1.0
C      1  0.4793630000000  0.4701960000000  0.4514680000000 1.0
C      1  0.5087320000000  0.5008900000000  0.5324540000000 1.0
C      1  0.4599330000000  0.5766220000000  0.5265600000000 1.0
C      1  0.5398170000000  0.6261300000000  0.4637510000000 1.0
C      1  0.4912700000000  0.3409790000000  0.5079990000000 1.0
C      1  0.4633080000000  0.4220530000000  0.5384790000000 1.0
C      1  0.4431070000000  0.5517290000000  0.4533980000000 1.0
C      1  0.5161590000000  0.5835940000000  0.4860130000000 1.0
C      1  0.5546150000000  0.3787390000000  0.4965420000000 1.0
C      1  0.5857720000000  0.4313830000000  0.5236090000000 1.0
C      1  0.6340240000000  0.5019040000000  0.4849860000000 1.0
C      1  0.4154340000000  0.4730230000000  0.4593430000000 1.0
C      1  0.5581830000000  0.4239460000000  0.5308330000000 1.0
C      1  0.4520760000000  0.5548720000000  0.4066040000000 1.0
C      1  0.5745280000000  0.5566900000000  0.5685760000000 1.0
C      1  0.4185280000000  0.3790990000000  0.4598960000000 1.0
C      1  0.6280510000000  0.5266560000000  0.4762590000000 1.0
C      1  0.5093590000000  0.5031490000000  0.5768320000000 1.0
C      1  0.5550220000000  0.4743840000000  0.4998790000000 1.0
C      1  0.5727000000000  0.4928800000000  0.3925780000000 1.0
C      1  0.6054500000000  0.4151400000000  0.4542190000000 1.0
C      1  0.5286080000000  0.5582820000000  0.4474760000000 1.0
C      1  0.5546470000000  0.4886020000000  0.5935900000000 1.0
C      1  0.5166270000000  0.4610280000000  0.6168660000000 1.0
C      1  0.4686640000000  0.5818200000000  0.5830880000000 1.0
C      1  0.5219010000000  0.4873500000000  0.3785770000000 1.0
C      1  0.4151260000000  0.5940010000000  0.5422700000000 1.0
END
