TITL C-627109-622-1436 -38.9156595026048 125000 -80.8257435211117 0 0 15 (C1) n - 1
REM
REM in /home/nfs/bkarasulu/CARBON/AIRSS/Generating-Clusters/LCBOP/Only-C1/SD-CG/FIRE-CG
REM
REM
REM
REM
REM
REM ./C.cell (11c1c37f851c82e70ff6c80c92926a4b)
REM AIRSS Version 0.9.1 bugfix July 2018 build 013d7b7c2542+ Fri, 06 Jul 2018 19:26:36 +0100
REM compiler GCC version 9.2.1 20190827 (Red Hat 9.2.1-1)
REM options -cpp -mtune=generic -march=x86-64 -g -O0 -fpre-include=/usr/include/finclude/math-vector-fortran.h
REM seed -867346696 -1019033220 883725507 -1741148954 336431326 -1762641885 -720516027 -1517419653 -1698417833 875773333 1447425209 -715289265 1143017110 1789297234 1299753981 -910565591 -1424017773 -1694511505 -335991712 659574703 1183281395 764144708 -293640100 -908577394 -806952643 799124487 427734447 -219447499 -966200254 -602083705 224789352 542635998 -31668377
REM
CELL 1.54180   50.00000   50.00000   50.00000   90.00000   90.00000   90.00000
LATT -1
SFAC C  
C      1  0.5364380000000  0.5131290000000  0.5306230000000 1.0
C      1  0.4799920000000  0.4963360000000  0.4504970000000 1.0
C      1  0.4406060000000  0.4749620000000  0.4687560000000 1.0
C      1  0.5074240000000  0.5141470000000  0.4093480000000 1.0
C      1  0.4576910000000  0.4763800000000  0.5666480000000 1.0
C      1  0.5122040000000  0.5029190000000  0.5274510000000 1.0
C      1  0.4866750000000  0.4921570000000  0.5239090000000 1.0
C      1  0.6088140000000  0.5435480000000  0.5400760000000 1.0
C      1  0.4760850000000  0.4895370000000  0.4982150000000 1.0
C      1  0.5849510000000  0.5335250000000  0.5369590000000 1.0
C      1  0.4717370000000  0.4840150000000  0.5460650000000 1.0
C      1  0.4938180000000  0.5053100000000  0.4297540000000 1.0
C      1  0.4173130000000  0.4637580000000  0.4654190000000 1.0
C      1  0.5606900000000  0.5233290000000  0.5337900000000 1.0
C      1  0.4655620000000  0.4869460000000  0.4724900000000 1.0
END
