TITL C-627112-676-786 36547.5008792633 125000 -701.236579560697 0 0 117 (C1) n - 1
REM
REM in /home/nfs/bkarasulu/CARBON/AIRSS/Generating-Clusters/LCBOP/Only-C1/SD-CG/FIRE-CG
REM
REM
REM
REM
REM
REM ./C.cell (11c1c37f851c82e70ff6c80c92926a4b)
REM AIRSS Version 0.9.1 bugfix July 2018 build 013d7b7c2542+ Fri, 06 Jul 2018 19:26:36 +0100
REM compiler GCC version 9.2.1 20190827 (Red Hat 9.2.1-1)
REM options -cpp -mtune=generic -march=x86-64 -g -O0 -fpre-include=/usr/include/finclude/math-vector-fortran.h
REM seed 489481667 639699635 -1408524184 254535016 770489257 1547100652 -1165231285 -1997261038 318178789 534935056 1239854756 -1399975826 232978354 -2133780614 -338468046 166693087 -763395947 954709176 -1310298782 -1922602189 -433610528 1544568712 417131832 901980348 -945182419 2096644109 -149005732 144260223 -829633153 2084930591 -1466023289 267906042 -12824514
REM
CELL 1.54180   50.00000   50.00000   50.00000   90.00000   90.00000   90.00000
LATT -1
SFAC C  
C      1  0.4919390000000  0.4236660000000  0.4436770000000 1.0
C      1  0.4989430000000  0.5568850000000  0.4968010000000 1.0
C      1  0.4802600000000  0.4965790000000  0.5592400000000 1.0
C      1  0.4327290000000  0.4963420000000  0.5209670000000 1.0
C      1  0.4279900000000  0.5371480000000  0.4313300000000 1.0
C      1  0.4093320000000  0.5582200000000  0.4918690000000 1.0
C      1  0.5085460000000  0.5516160000000  0.4245980000000 1.0
C      1  0.5615020000000  0.4671080000000  0.4490720000000 1.0
C      1  0.5251810000000  0.4867480000000  0.5465060000000 1.0
C      1  0.4357070000000  0.3900810000000  0.4231120000000 1.0
C      1  0.5805550000000  0.5436550000000  0.5560670000000 1.0
C      1  0.5210840000000  0.5843400000000  0.5332000000000 1.0
C      1  0.5307380000000  0.5307190000000  0.4688090000000 1.0
C      1  0.4623820000000  0.4548080000000  0.5892840000000 1.0
C      1  0.5768230000000  0.5272800000000  0.4367410000000 1.0
C      1  0.5058020000000  0.4182210000000  0.5494290000000 1.0
C      1  0.5097140000000  0.5092740000000  0.5046970000000 1.0
C      1  0.5256470000000  0.5509370000000  0.4878140000000 1.0
C      1  0.5013010000000  0.5233770000000  0.5272620000000 1.0
C      1  0.5329060000000  0.4656900000000  0.5025350000000 1.0
C      1  0.5347550000000  0.5936460000000  0.5100690000000 1.0
C      1  0.4053380000000  0.5797640000000  0.4294960000000 1.0
C      1  0.5679390000000  0.5074770000000  0.5218160000000 1.0
C      1  0.5342260000000  0.5868330000000  0.4525540000000 1.0
C      1  0.4197980000000  0.5613630000000  0.4437610000000 1.0
C      1  0.4863640000000  0.4527100000000  0.4435450000000 1.0
C      1  0.4266940000000  0.5670070000000  0.4712220000000 1.0
C      1  0.4853880000000  0.5783300000000  0.5607260000000 1.0
C      1  0.5425770000000  0.5099700000000  0.5374370000000 1.0
C      1  0.4921230000000  0.5640970000000  0.4447500000000 1.0
C      1  0.5369500000000  0.5469000000000  0.4243720000000 1.0
C      1  0.5830210000000  0.4875630000000  0.5357590000000 1.0
C      1  0.5450940000000  0.5715520000000  0.4956890000000 1.0
C      1  0.4198800000000  0.4625370000000  0.5541260000000 1.0
C      1  0.4196480000000  0.5370870000000  0.5076810000000 1.0
C      1  0.5066590000000  0.4933730000000  0.5676470000000 1.0
C      1  0.5617570000000  0.4396530000000  0.4424720000000 1.0
C      1  0.5787390000000  0.5425480000000  0.4866540000000 1.0
C      1  0.5840600000000  0.4795900000000  0.4599600000000 1.0
C      1  0.5843170000000  0.5203150000000  0.5700030000000 1.0
C      1  0.5215700000000  0.4214720000000  0.4834750000000 1.0
C      1  0.4155270000000  0.5083630000000  0.5016350000000 1.0
C      1  0.4222290000000  0.4523910000000  0.4885040000000 1.0
C      1  0.5359340000000  0.5598590000000  0.5422990000000 1.0
C      1  0.4713270000000  0.5519440000000  0.4619830000000 1.0
C      1  0.4198990000000  0.4514230000000  0.4609880000000 1.0
C      1  0.5273290000000  0.4251160000000  0.5670810000000 1.0
C      1  0.4842680000000  0.4357410000000  0.5472890000000 1.0
C      1  0.5187040000000  0.4156230000000  0.4532410000000 1.0
C      1  0.4694030000000  0.5500770000000  0.5145570000000 1.0
C      1  0.5732820000000  0.5481640000000  0.4574810000000 1.0
C      1  0.5061940000000  0.5854330000000  0.4594840000000 1.0
C      1  0.5473610000000  0.4975650000000  0.4067660000000 1.0
C      1  0.5304950000000  0.4469970000000  0.4102240000000 1.0
C      1  0.4724280000000  0.5226590000000  0.4651580000000 1.0
C      1  0.5653440000000  0.5580520000000  0.5363120000000 1.0
C      1  0.5612280000000  0.4548250000000  0.5057430000000 1.0
C      1  0.5150560000000  0.5095310000000  0.5898980000000 1.0
C      1  0.4955950000000  0.5846460000000  0.4863070000000 1.0
C      1  0.4592680000000  0.5046230000000  0.5153420000000 1.0
C      1  0.5021050000000  0.4854900000000  0.4007580000000 1.0
C      1  0.5510940000000  0.5648160000000  0.4444160000000 1.0
C      1  0.4744910000000  0.5922990000000  0.5023410000000 1.0
C      1  0.5182130000000  0.4499070000000  0.4823300000000 1.0
C      1  0.5111700000000  0.4634610000000  0.4569160000000 1.0
C      1  0.5757970000000  0.4612130000000  0.5290670000000 1.0
C      1  0.4674840000000  0.5038800000000  0.4872410000000 1.0
C      1  0.4368460000000  0.5121840000000  0.4264230000000 1.0
C      1  0.4173850000000  0.4801460000000  0.4553630000000 1.0
C      1  0.5484920000000  0.4263410000000  0.5474920000000 1.0
C      1  0.5675670000000  0.4468670000000  0.5524900000000 1.0
C      1  0.4541600000000  0.5707210000000  0.4774820000000 1.0
C      1  0.5457160000000  0.4673180000000  0.5925070000000 1.0
C      1  0.4830400000000  0.5550600000000  0.5775770000000 1.0
C      1  0.4918460000000  0.5882780000000  0.5347440000000 1.0
C      1  0.5299430000000  0.4431970000000  0.5890350000000 1.0
C      1  0.5025130000000  0.5362380000000  0.5894400000000 1.0
C      1  0.4374410000000  0.4145790000000  0.4318340000000 1.0
C      1  0.5824010000000  0.4922480000000  0.5647440000000 1.0
C      1  0.5691140000000  0.5606690000000  0.5069290000000 1.0
C      1  0.4889700000000  0.4544780000000  0.5260010000000 1.0
C      1  0.5292140000000  0.4937280000000  0.4930740000000 1.0
C      1  0.4417920000000  0.5435700000000  0.5271470000000 1.0
C      1  0.4507370000000  0.4771320000000  0.5991320000000 1.0
C      1  0.4367250000000  0.4988840000000  0.5911910000000 1.0
C      1  0.5157820000000  0.4668860000000  0.5275870000000 1.0
C      1  0.5374800000000  0.4282830000000  0.4325810000000 1.0
C      1  0.4695970000000  0.4557950000000  0.5042010000000 1.0
C      1  0.5347130000000  0.4923370000000  0.6026710000000 1.0
C      1  0.4396400000000  0.4861930000000  0.4372450000000 1.0
C      1  0.5722940000000  0.4336720000000  0.4909170000000 1.0
C      1  0.3848860000000  0.5693720000000  0.4964110000000 1.0
C      1  0.5684890000000  0.4676980000000  0.5746180000000 1.0
C      1  0.4288620000000  0.5094630000000  0.5658800000000 1.0
C      1  0.5267360000000  0.4157380000000  0.5185050000000 1.0
C      1  0.4111400000000  0.4907990000000  0.4801390000000 1.0
C      1  0.4620180000000  0.4402970000000  0.5649640000000 1.0
C      1  0.5910200000000  0.4962860000000  0.4795730000000 1.0
C      1  0.5537110000000  0.5228790000000  0.4188670000000 1.0
C      1  0.5350880000000  0.5031710000000  0.4671400000000 1.0
C      1  0.4236080000000  0.4893850000000  0.5464630000000 1.0
C      1  0.4729310000000  0.4759310000000  0.4844170000000 1.0
C      1  0.4585600000000  0.4613180000000  0.4373550000000 1.0
C      1  0.4363050000000  0.4274380000000  0.5267650000000 1.0
C      1  0.4825650000000  0.5104190000000  0.4414820000000 1.0
C      1  0.4387410000000  0.4397760000000  0.4431340000000 1.0
C      1  0.5862020000000  0.4124490000000  0.4847820000000 1.0
C      1  0.5248500000000  0.5336550000000  0.5398460000000 1.0
C      1  0.4390900000000  0.5350830000000  0.5561810000000 1.0
C      1  0.4559340000000  0.5470650000000  0.5755480000000 1.0
C      1  0.5800490000000  0.5157080000000  0.4966740000000 1.0
C      1  0.5285490000000  0.4755050000000  0.4030720000000 1.0
C      1  0.4878990000000  0.5012950000000  0.4169970000000 1.0
C      1  0.4363190000000  0.4395300000000  0.5521230000000 1.0
C      1  0.4772210000000  0.5112230000000  0.5358480000000 1.0
C      1  0.5352040000000  0.4798760000000  0.4511900000000 1.0
C      1  0.4434110000000  0.4432530000000  0.5046320000000 1.0
END
