TITL C-627106-156-958 0.000350910556391359 125000 -876.434838242532 0 0 142 (C1) n - 1
REM
REM in /home/nfs/bkarasulu/CARBON/AIRSS/Generating-Clusters/LCBOP/Only-C1/SD-CG/FIRE-CG
REM
REM
REM
REM
REM
REM ./C.cell (11c1c37f851c82e70ff6c80c92926a4b)
REM AIRSS Version 0.9.1 bugfix July 2018 build 013d7b7c2542+ Fri, 06 Jul 2018 19:26:36 +0100
REM compiler GCC version 9.2.1 20190827 (Red Hat 9.2.1-1)
REM options -cpp -mtune=generic -march=x86-64 -g -O0 -fpre-include=/usr/include/finclude/math-vector-fortran.h
REM seed 1380603101 -614531842 -1679715855 1583951137 -1850232176 -251905681 2079047172 -555341195 -912800120 -1699762359 1679527522 -1891599538 2084873164 707489687 -966873542 -1642422559 -37374559 16695919 -1264985136 33493032 -58644750 419594030 -766503282 765838162 185166126 -58504764 1042482856 -1920522197 1672294576 1091459149 1647903634 1338940163 -895447979
REM
CELL 1.54180   50.00000   50.00000   50.00000   90.00000   90.00000   90.00000
LATT -1
SFAC C  
C      1  0.4584420000000  0.5358640000000  0.4017040000000 1.0
C      1  0.5580730000000  0.5016600000000  0.4166690000000 1.0
C      1  0.4469000000000  0.5688270000000  0.4974660000000 1.0
C      1  0.5418820000000  0.6052160000000  0.4301810000000 1.0
C      1  0.4435030000000  0.5745100000000  0.5860250000000 1.0
C      1  0.4365710000000  0.4054940000000  0.4734790000000 1.0
C      1  0.4995740000000  0.4238360000000  0.5652780000000 1.0
C      1  0.4679650000000  0.4862540000000  0.4069350000000 1.0
C      1  0.5126860000000  0.4063300000000  0.4078210000000 1.0
C      1  0.4991050000000  0.5477830000000  0.4602470000000 1.0
C      1  0.5653140000000  0.4490550000000  0.5669120000000 1.0
C      1  0.5859770000000  0.4807030000000  0.4553560000000 1.0
C      1  0.4177280000000  0.5097930000000  0.4561100000000 1.0
C      1  0.4786030000000  0.5515390000000  0.4398750000000 1.0
C      1  0.4406930000000  0.4687960000000  0.4702840000000 1.0
C      1  0.5211580000000  0.4377990000000  0.5224420000000 1.0
C      1  0.5541980000000  0.4346280000000  0.4073580000000 1.0
C      1  0.5014810000000  0.5561510000000  0.5602760000000 1.0
C      1  0.5587690000000  0.5522830000000  0.4242440000000 1.0
C      1  0.4990000000000  0.5076780000000  0.5666550000000 1.0
C      1  0.5427000000000  0.5285210000000  0.5395290000000 1.0
C      1  0.4507320000000  0.5943970000000  0.5387230000000 1.0
C      1  0.6274750000000  0.4953710000000  0.5232630000000 1.0
C      1  0.4765380000000  0.5457680000000  0.5503720000000 1.0
C      1  0.5242460000000  0.5621350000000  0.5140670000000 1.0
C      1  0.4798400000000  0.4605600000000  0.4025460000000 1.0
C      1  0.5330520000000  0.4866040000000  0.5970040000000 1.0
C      1  0.4191610000000  0.4951340000000  0.5042830000000 1.0
C      1  0.4740570000000  0.4362130000000  0.4159210000000 1.0
C      1  0.5194500000000  0.5452850000000  0.3929620000000 1.0
C      1  0.4849470000000  0.5987170000000  0.5036970000000 1.0
C      1  0.5886580000000  0.4463450000000  0.5152250000000 1.0
C      1  0.4179130000000  0.5358990000000  0.4670210000000 1.0
C      1  0.4516750000000  0.4362780000000  0.4350290000000 1.0
C      1  0.4924720000000  0.3900170000000  0.4936710000000 1.0
C      1  0.4972700000000  0.5545040000000  0.5896170000000 1.0
C      1  0.5434480000000  0.5352180000000  0.5840200000000 1.0
C      1  0.4852880000000  0.4062640000000  0.5152870000000 1.0
C      1  0.4218450000000  0.3795270000000  0.6032540000000 1.0
C      1  0.4250200000000  0.5880330000000  0.4406430000000 1.0
C      1  0.4729770000000  0.4102070000000  0.5622410000000 1.0
C      1  0.4771670000000  0.4762050000000  0.5086520000000 1.0
C      1  0.6090370000000  0.4581290000000  0.4975360000000 1.0
C      1  0.4109100000000  0.5306030000000  0.5727160000000 1.0
C      1  0.4855200000000  0.6235390000000  0.4922310000000 1.0
C      1  0.4660510000000  0.4001890000000  0.5357540000000 1.0
C      1  0.5373590000000  0.5623080000000  0.4070360000000 1.0
C      1  0.5363260000000  0.4759760000000  0.4854340000000 1.0
C      1  0.5410380000000  0.4992790000000  0.5445740000000 1.0
C      1  0.4002910000000  0.5440620000000  0.5517820000000 1.0
C      1  0.4321020000000  0.5519540000000  0.4831110000000 1.0
C      1  0.4748750000000  0.4607960000000  0.5526960000000 1.0
C      1  0.5582890000000  0.5948320000000  0.4491360000000 1.0
C      1  0.5573210000000  0.4296830000000  0.4748480000000 1.0
C      1  0.4724610000000  0.5116520000000  0.6113880000000 1.0
C      1  0.5251240000000  0.4641500000000  0.4624090000000 1.0
C      1  0.4487110000000  0.5492060000000  0.5968780000000 1.0
C      1  0.5236610000000  0.5124000000000  0.5847130000000 1.0
C      1  0.4783850000000  0.3999420000000  0.4455410000000 1.0
C      1  0.4936200000000  0.4331140000000  0.5162060000000 1.0
C      1  0.5090950000000  0.5190150000000  0.3978160000000 1.0
C      1  0.5725230000000  0.5270780000000  0.4198260000000 1.0
C      1  0.5487930000000  0.4267120000000  0.5627170000000 1.0
C      1  0.5614770000000  0.5531150000000  0.5721940000000 1.0
C      1  0.5847580000000  0.4567020000000  0.5439210000000 1.0
C      1  0.5745130000000  0.5663700000000  0.5513700000000 1.0
C      1  0.5213500000000  0.5300840000000  0.4558180000000 1.0
C      1  0.4817020000000  0.4874070000000  0.4642870000000 1.0
C      1  0.4464290000000  0.5013930000000  0.6005140000000 1.0
C      1  0.4427180000000  0.4732800000000  0.5955330000000 1.0
C      1  0.5438970000000  0.4442440000000  0.4536440000000 1.0
C      1  0.4405510000000  0.3955000000000  0.5243620000000 1.0
C      1  0.5106390000000  0.4961430000000  0.5428950000000 1.0
C      1  0.6027400000000  0.5040660000000  0.5333050000000 1.0
C      1  0.4894530000000  0.4123740000000  0.4217890000000 1.0
C      1  0.5859520000000  0.5683590000000  0.4978620000000 1.0
C      1  0.4440360000000  0.5799610000000  0.4231210000000 1.0
C      1  0.5287650000000  0.5045450000000  0.4145500000000 1.0
C      1  0.4043790000000  0.5970920000000  0.4582570000000 1.0
C      1  0.5548620000000  0.4735070000000  0.5822010000000 1.0
C      1  0.4446560000000  0.5900720000000  0.5643350000000 1.0
C      1  0.4311930000000  0.5000760000000  0.5277570000000 1.0
C      1  0.5699630000000  0.4775030000000  0.4306360000000 1.0
C      1  0.4438010000000  0.4833620000000  0.4239340000000 1.0
C      1  0.5884340000000  0.4859290000000  0.5495890000000 1.0
C      1  0.4915730000000  0.4940590000000  0.6225710000000 1.0
C      1  0.3930350000000  0.5740470000000  0.5075850000000 1.0
C      1  0.4519990000000  0.4193460000000  0.5811880000000 1.0
C      1  0.4315920000000  0.3989680000000  0.4990670000000 1.0
C      1  0.4365170000000  0.3991390000000  0.5931590000000 1.0
C      1  0.3899290000000  0.6190840000000  0.4501240000000 1.0
C      1  0.5509620000000  0.5013330000000  0.4810000000000 1.0
C      1  0.5365770000000  0.4157020000000  0.4004670000000 1.0
C      1  0.5778530000000  0.5031850000000  0.4712620000000 1.0
C      1  0.4074020000000  0.3601600000000  0.6130500000000 1.0
C      1  0.4502770000000  0.5057980000000  0.5457400000000 1.0
C      1  0.5479080000000  0.4770340000000  0.5272340000000 1.0
C      1  0.4914920000000  0.3876840000000  0.4669970000000 1.0
C      1  0.5061950000000  0.4824560000000  0.4518340000000 1.0
C      1  0.4617680000000  0.5285450000000  0.4460200000000 1.0
C      1  0.5824550000000  0.5556940000000  0.4713320000000 1.0
C      1  0.5176660000000  0.5058650000000  0.4405640000000 1.0
C      1  0.5228920000000  0.5510200000000  0.5415550000000 1.0
C      1  0.5610820000000  0.5335250000000  0.5182260000000 1.0
C      1  0.5963430000000  0.5264270000000  0.4356850000000 1.0
C      1  0.4857790000000  0.5327890000000  0.4826210000000 1.0
C      1  0.4925270000000  0.5228430000000  0.5072470000000 1.0
C      1  0.4316170000000  0.5260100000000  0.4083160000000 1.0
C      1  0.5827780000000  0.5723530000000  0.5253610000000 1.0
C      1  0.4714270000000  0.5134200000000  0.4668480000000 1.0
C      1  0.4417300000000  0.4613540000000  0.4425030000000 1.0
C      1  0.4265250000000  0.5058280000000  0.4281970000000 1.0
C      1  0.5083600000000  0.5834430000000  0.5060310000000 1.0
C      1  0.5646980000000  0.4947380000000  0.5641410000000 1.0
C      1  0.4728930000000  0.5183880000000  0.5571080000000 1.0
C      1  0.4792610000000  0.5133510000000  0.3995270000000 1.0
C      1  0.4646420000000  0.5612000000000  0.4166490000000 1.0
C      1  0.5871220000000  0.5236430000000  0.5206810000000 1.0
C      1  0.4317500000000  0.5258410000000  0.5914410000000 1.0
C      1  0.5343100000000  0.4605660000000  0.5098350000000 1.0
C      1  0.4912500000000  0.4505540000000  0.5717130000000 1.0
C      1  0.4216740000000  0.4892370000000  0.4766610000000 1.0
C      1  0.5241980000000  0.4250110000000  0.5493370000000 1.0
C      1  0.5377420000000  0.5267310000000  0.4783180000000 1.0
C      1  0.6302820000000  0.4729580000000  0.5085550000000 1.0
C      1  0.5427630000000  0.5452630000000  0.4988070000000 1.0
C      1  0.3949080000000  0.5593110000000  0.5301610000000 1.0
C      1  0.5704460000000  0.4305570000000  0.4989340000000 1.0
C      1  0.5322670000000  0.5901120000000  0.4097950000000 1.0
C      1  0.4457570000000  0.4468410000000  0.5889930000000 1.0
C      1  0.4526090000000  0.4126720000000  0.4516290000000 1.0
C      1  0.3972320000000  0.5856310000000  0.4834890000000 1.0
C      1  0.5147590000000  0.4806920000000  0.6179180000000 1.0
C      1  0.6023320000000  0.4626300000000  0.4699510000000 1.0
C      1  0.5573750000000  0.4516290000000  0.4292400000000 1.0
C      1  0.5906920000000  0.5284760000000  0.4641020000000 1.0
C      1  0.4759140000000  0.5405070000000  0.6038870000000 1.0
C      1  0.4945550000000  0.4973390000000  0.5187240000000 1.0
C      1  0.4667830000000  0.4721560000000  0.4825860000000 1.0
C      1  0.5671580000000  0.5678010000000  0.4489960000000 1.0
C      1  0.4603660000000  0.5877800000000  0.5131640000000 1.0
C      1  0.4766850000000  0.4541700000000  0.5253110000000 1.0
END
