TITL C-627107-135-206 15719.0091329828 125000 -1012.11790953879 0 0 165 (C1) n - 1
REM
REM in /home/nfs/bkarasulu/CARBON/AIRSS/Generating-Clusters/LCBOP/Only-C1/SD-CG/FIRE-CG
REM
REM
REM
REM
REM
REM ./C.cell (11c1c37f851c82e70ff6c80c92926a4b)
REM AIRSS Version 0.9.1 bugfix July 2018 build 013d7b7c2542+ Fri, 06 Jul 2018 19:26:36 +0100
REM compiler GCC version 9.2.1 20190827 (Red Hat 9.2.1-1)
REM options -cpp -mtune=generic -march=x86-64 -g -O0 -fpre-include=/usr/include/finclude/math-vector-fortran.h
REM seed -1637840068 1267418675 -1610891336 -1211173309 1242393790 1092569393 -47689013 -1588342737 1548115439 -1991321034 -497573416 -489819486 20372001 484122100 1105504022 464658210 -627726119 240593045 -196083235 1951760245 -296743730 -788391731 -1448579569 -648772391 -457968277 -1205682735 -1887403528 512224921 -1742706228 349920849 114055532 -1957653440 -110652509
REM
CELL 1.54180   50.00000   50.00000   50.00000   90.00000   90.00000   90.00000
LATT -1
SFAC C  
C      1  0.5516780000000  0.4531350000000  0.4843840000000 1.0
C      1  0.5096770000000  0.4826710000000  0.6120550000000 1.0
C      1  0.4376700000000  0.5256270000000  0.4893730000000 1.0
C      1  0.5268810000000  0.5854600000000  0.5384460000000 1.0
C      1  0.5564260000000  0.4137830000000  0.3863580000000 1.0
C      1  0.4994720000000  0.4850820000000  0.5360910000000 1.0
C      1  0.5161970000000  0.3871580000000  0.5672020000000 1.0
C      1  0.5204590000000  0.4060160000000  0.3597970000000 1.0
C      1  0.5520340000000  0.3436640000000  0.5685610000000 1.0
C      1  0.5351310000000  0.4749730000000  0.5710710000000 1.0
C      1  0.4822840000000  0.4639780000000  0.4188700000000 1.0
C      1  0.4319980000000  0.4786080000000  0.5073570000000 1.0
C      1  0.5949100000000  0.4835290000000  0.4541010000000 1.0
C      1  0.5988620000000  0.4707110000000  0.4801210000000 1.0
C      1  0.4424730000000  0.4883760000000  0.5600620000000 1.0
C      1  0.3671580000000  0.5069150000000  0.4452110000000 1.0
C      1  0.4211200000000  0.6046430000000  0.4779240000000 1.0
C      1  0.5580580000000  0.4629430000000  0.5291700000000 1.0
C      1  0.4406710000000  0.5552650000000  0.5294860000000 1.0
C      1  0.5124180000000  0.4795260000000  0.3648540000000 1.0
C      1  0.5328620000000  0.5845660000000  0.4259050000000 1.0
C      1  0.4150140000000  0.4644290000000  0.4573420000000 1.0
C      1  0.5777220000000  0.5254280000000  0.4253970000000 1.0
C      1  0.5233760000000  0.5258040000000  0.4679980000000 1.0
C      1  0.4592140000000  0.5617300000000  0.4647910000000 1.0
C      1  0.4246540000000  0.5468400000000  0.5044310000000 1.0
C      1  0.4858090000000  0.5892880000000  0.5852430000000 1.0
C      1  0.4429760000000  0.5343290000000  0.4169870000000 1.0
C      1  0.3877130000000  0.4464250000000  0.4236560000000 1.0
C      1  0.4491630000000  0.4539650000000  0.4614290000000 1.0
C      1  0.6233850000000  0.5278260000000  0.4801050000000 1.0
C      1  0.4036450000000  0.5575560000000  0.4881810000000 1.0
C      1  0.4720000000000  0.4865160000000  0.4808520000000 1.0
C      1  0.5215260000000  0.5160360000000  0.4419620000000 1.0
C      1  0.4661910000000  0.6215260000000  0.4979390000000 1.0
C      1  0.5202460000000  0.5502160000000  0.4818890000000 1.0
C      1  0.4768160000000  0.4502270000000  0.5066690000000 1.0
C      1  0.4425460000000  0.5949620000000  0.6079180000000 1.0
C      1  0.5713860000000  0.4197050000000  0.5330250000000 1.0
C      1  0.5399710000000  0.4633820000000  0.4001620000000 1.0
C      1  0.3409720000000  0.5111300000000  0.4406730000000 1.0
C      1  0.3967530000000  0.4431020000000  0.4697030000000 1.0
C      1  0.5139210000000  0.6075020000000  0.4942310000000 1.0
C      1  0.4561940000000  0.5790060000000  0.5205300000000 1.0
C      1  0.4756880000000  0.5201220000000  0.4543920000000 1.0
C      1  0.6427970000000  0.5027500000000  0.5997880000000 1.0
C      1  0.4188460000000  0.4889310000000  0.4132130000000 1.0
C      1  0.3980710000000  0.4425950000000  0.4977670000000 1.0
C      1  0.6373920000000  0.5124370000000  0.5761960000000 1.0
C      1  0.5573790000000  0.4040490000000  0.5131250000000 1.0
C      1  0.5812410000000  0.4496350000000  0.4899980000000 1.0
C      1  0.4568970000000  0.5342580000000  0.4698490000000 1.0
C      1  0.5585800000000  0.5376830000000  0.5272730000000 1.0
C      1  0.4601480000000  0.5325430000000  0.5326270000000 1.0
C      1  0.5181090000000  0.5597630000000  0.5299870000000 1.0
C      1  0.4705160000000  0.5922230000000  0.5005670000000 1.0
C      1  0.5800870000000  0.4445110000000  0.5202140000000 1.0
C      1  0.4532370000000  0.3989190000000  0.5598400000000 1.0
C      1  0.5586990000000  0.5434090000000  0.5984190000000 1.0
C      1  0.4216250000000  0.5507860000000  0.4261190000000 1.0
C      1  0.4818140000000  0.5767520000000  0.4548560000000 1.0
C      1  0.4844130000000  0.5311530000000  0.5184490000000 1.0
C      1  0.5052840000000  0.4548490000000  0.4364900000000 1.0
C      1  0.5395510000000  0.3896780000000  0.5827860000000 1.0
C      1  0.5315280000000  0.4131230000000  0.5025870000000 1.0
C      1  0.4076680000000  0.4936380000000  0.4696510000000 1.0
C      1  0.6034210000000  0.5531800000000  0.5264950000000 1.0
C      1  0.4997970000000  0.5273130000000  0.6034820000000 1.0
C      1  0.5190770000000  0.5234970000000  0.5596890000000 1.0
C      1  0.5441760000000  0.3953170000000  0.3695740000000 1.0
C      1  0.4077190000000  0.4670640000000  0.4271030000000 1.0
C      1  0.5357810000000  0.4363920000000  0.6013220000000 1.0
C      1  0.4684840000000  0.5488490000000  0.4126250000000 1.0
C      1  0.4507020000000  0.5293540000000  0.5974290000000 1.0
C      1  0.4347100000000  0.5505390000000  0.5858300000000 1.0
C      1  0.5358680000000  0.4925220000000  0.4370100000000 1.0
C      1  0.4872790000000  0.5273450000000  0.4087980000000 1.0
C      1  0.4453260000000  0.4709590000000  0.5801000000000 1.0
C      1  0.3562380000000  0.5455170000000  0.4857860000000 1.0
C      1  0.5492960000000  0.5703890000000  0.4439420000000 1.0
C      1  0.4525120000000  0.3773440000000  0.5438860000000 1.0
C      1  0.5766050000000  0.5305420000000  0.4844470000000 1.0
C      1  0.5301910000000  0.5359420000000  0.3806640000000 1.0
C      1  0.5435850000000  0.4988900000000  0.4999120000000 1.0
C      1  0.5366440000000  0.3344790000000  0.5484730000000 1.0
C      1  0.5297240000000  0.4337160000000  0.4809550000000 1.0
C      1  0.5404650000000  0.4378180000000  0.3880040000000 1.0
C      1  0.4931950000000  0.5885050000000  0.4804350000000 1.0
C      1  0.5159530000000  0.4946500000000  0.5572200000000 1.0
C      1  0.5043810000000  0.4404930000000  0.4640780000000 1.0
C      1  0.4288830000000  0.5722970000000  0.6030650000000 1.0
C      1  0.5404540000000  0.5839470000000  0.5640140000000 1.0
C      1  0.4987800000000  0.4547710000000  0.3702620000000 1.0
C      1  0.5385540000000  0.5686980000000  0.4701860000000 1.0
C      1  0.5564110000000  0.4948760000000  0.5820470000000 1.0
C      1  0.4983610000000  0.3632420000000  0.5302120000000 1.0
C      1  0.5485480000000  0.4165670000000  0.5843120000000 1.0
C      1  0.5685830000000  0.5151950000000  0.4009740000000 1.0
C      1  0.5179230000000  0.5584060000000  0.3892020000000 1.0
C      1  0.3315260000000  0.5422900000000  0.4756200000000 1.0
C      1  0.5574320000000  0.4267930000000  0.5588220000000 1.0
C      1  0.4952430000000  0.5174260000000  0.4334740000000 1.0
C      1  0.5984780000000  0.5282610000000  0.4672370000000 1.0
C      1  0.4926680000000  0.4312300000000  0.5652780000000 1.0
C      1  0.5302960000000  0.4669820000000  0.4268830000000 1.0
C      1  0.5363940000000  0.5980820000000  0.5134360000000 1.0
C      1  0.5403810000000  0.4519320000000  0.5511310000000 1.0
C      1  0.5142960000000  0.4123030000000  0.5257860000000 1.0
C      1  0.4803570000000  0.4866880000000  0.6110900000000 1.0
C      1  0.4947020000000  0.5658730000000  0.5761210000000 1.0
C      1  0.5925910000000  0.5110280000000  0.4453320000000 1.0
C      1  0.5760220000000  0.5611020000000  0.5238790000000 1.0
C      1  0.4637710000000  0.4845540000000  0.4285720000000 1.0
C      1  0.4960180000000  0.4961420000000  0.4906490000000 1.0
C      1  0.5165230000000  0.4325960000000  0.3703290000000 1.0
C      1  0.5106810000000  0.5746380000000  0.4116330000000 1.0
C      1  0.4776060000000  0.4391050000000  0.4785350000000 1.0
C      1  0.4397830000000  0.6228140000000  0.4865610000000 1.0
C      1  0.6017330000000  0.5525130000000  0.6300750000000 1.0
C      1  0.5475690000000  0.5164040000000  0.5994670000000 1.0
C      1  0.5545050000000  0.3657820000000  0.5839270000000 1.0
C      1  0.4502880000000  0.5100370000000  0.5466920000000 1.0
C      1  0.5464440000000  0.4725000000000  0.5054130000000 1.0
C      1  0.3240850000000  0.5269550000000  0.4546400000000 1.0
C      1  0.6232940000000  0.5128570000000  0.5043530000000 1.0
C      1  0.4294630000000  0.5558030000000  0.5578600000000 1.0
C      1  0.4927880000000  0.5044830000000  0.5172220000000 1.0
C      1  0.4245620000000  0.5006050000000  0.4910690000000 1.0
C      1  0.5090970000000  0.3878960000000  0.5398650000000 1.0
C      1  0.3870880000000  0.5131740000000  0.4643660000000 1.0
C      1  0.5499100000000  0.5660330000000  0.5825430000000 1.0
C      1  0.5215670000000  0.5038380000000  0.4842520000000 1.0
C      1  0.4702180000000  0.3621830000000  0.5303560000000 1.0
C      1  0.3831160000000  0.5383240000000  0.4800530000000 1.0
C      1  0.5344130000000  0.4859680000000  0.3819860000000 1.0
C      1  0.5040210000000  0.5501720000000  0.5072280000000 1.0
C      1  0.5610630000000  0.5200870000000  0.5052490000000 1.0
C      1  0.4957470000000  0.4578270000000  0.5271980000000 1.0
C      1  0.5119830000000  0.4380740000000  0.5423240000000 1.0
C      1  0.5247950000000  0.4627920000000  0.5973610000000 1.0
C      1  0.4611310000000  0.4685840000000  0.6016990000000 1.0
C      1  0.4669060000000  0.6021420000000  0.5991340000000 1.0
C      1  0.3816790000000  0.4332700000000  0.4472380000000 1.0
C      1  0.4695190000000  0.4181490000000  0.5689220000000 1.0
C      1  0.5810040000000  0.5480120000000  0.6149370000000 1.0
C      1  0.4947120000000  0.6305930000000  0.4993220000000 1.0
C      1  0.5039790000000  0.5395940000000  0.5785380000000 1.0
C      1  0.6148010000000  0.4857230000000  0.4994190000000 1.0
C      1  0.4433030000000  0.5035360000000  0.4174910000000 1.0
C      1  0.4737490000000  0.5153410000000  0.6071220000000 1.0
C      1  0.4851530000000  0.5709810000000  0.4255000000000 1.0
C      1  0.4585560000000  0.4721150000000  0.5028380000000 1.0
C      1  0.5676280000000  0.5512670000000  0.4334580000000 1.0
C      1  0.5450020000000  0.5121790000000  0.3856610000000 1.0
C      1  0.5218390000000  0.5102310000000  0.6116120000000 1.0
C      1  0.4128690000000  0.4587560000000  0.5137040000000 1.0
C      1  0.4127130000000  0.5700340000000  0.4427800000000 1.0
C      1  0.4805780000000  0.4558050000000  0.3918430000000 1.0
C      1  0.6195810000000  0.5292530000000  0.5278140000000 1.0
C      1  0.4612470000000  0.4784820000000  0.4561900000000 1.0
C      1  0.5339770000000  0.5386510000000  0.5409700000000 1.0
C      1  0.5157570000000  0.3411500000000  0.5328120000000 1.0
C      1  0.4105630000000  0.5791160000000  0.4698030000000 1.0
C      1  0.5637680000000  0.5854520000000  0.5118680000000 1.0
C      1  0.6306390000000  0.5214560000000  0.5522180000000 1.0
END
