TITL C-627109-622-922 -2.740497919454e-07 125000 -802.765628658731 0 0 134 (C1) n - 1
REM
REM in /home/nfs/bkarasulu/CARBON/AIRSS/Generating-Clusters/LCBOP/Only-C1/SD-CG/FIRE-CG
REM
REM
REM
REM
REM
REM ./C.cell (11c1c37f851c82e70ff6c80c92926a4b)
REM AIRSS Version 0.9.1 bugfix July 2018 build 013d7b7c2542+ Fri, 06 Jul 2018 19:26:36 +0100
REM compiler GCC version 9.2.1 20190827 (Red Hat 9.2.1-1)
REM options -cpp -mtune=generic -march=x86-64 -g -O0 -fpre-include=/usr/include/finclude/math-vector-fortran.h
REM seed -255995249 1208538861 1903197564 -898198815 -429922860 -668327838 1756621220 -695819567 -186246423 -781768671 -1539205588 256009555 67229013 1859107288 1602022458 -1280955539 -2138769318 -188657286 561728056 757708268 998291096 -1896119440 -718152716 -1961491744 1188301322 1871128685 -666900228 1355234083 354718520 1607172838 63056482 790150122 1987274953
REM
CELL 1.54180   50.00000   50.00000   50.00000   90.00000   90.00000   90.00000
LATT -1
SFAC C  
C      1  0.4701250000000  0.4789930000000  0.4884690000000 1.0
C      1  0.4133630000000  0.5301380000000  0.4480380000000 1.0
C      1  0.4181480000000  0.5028860000000  0.4929800000000 1.0
C      1  0.5407150000000  0.5388690000000  0.5749630000000 1.0
C      1  0.4560450000000  0.4276620000000  0.4513210000000 1.0
C      1  0.5444100000000  0.5101850000000  0.4768200000000 1.0
C      1  0.5390750000000  0.5762800000000  0.5398740000000 1.0
C      1  0.5691340000000  0.4752820000000  0.5057560000000 1.0
C      1  0.5543940000000  0.5023550000000  0.4094990000000 1.0
C      1  0.4644610000000  0.4585290000000  0.5065020000000 1.0
C      1  0.5999790000000  0.5328900000000  0.5039120000000 1.0
C      1  0.5392980000000  0.5769710000000  0.4506260000000 1.0
C      1  0.5265480000000  0.4564050000000  0.4635110000000 1.0
C      1  0.5963000000000  0.6449720000000  0.5288770000000 1.0
C      1  0.4952200000000  0.4972520000000  0.4093290000000 1.0
C      1  0.5368780000000  0.4752770000000  0.5737300000000 1.0
C      1  0.4979570000000  0.4444370000000  0.5636620000000 1.0
C      1  0.4244690000000  0.4084720000000  0.5151620000000 1.0
C      1  0.4303050000000  0.5354560000000  0.5894480000000 1.0
C      1  0.4910490000000  0.6157330000000  0.4224760000000 1.0
C      1  0.6229330000000  0.4944290000000  0.4751890000000 1.0
C      1  0.4285070000000  0.5701900000000  0.5263570000000 1.0
C      1  0.4798000000000  0.5329370000000  0.5533410000000 1.0
C      1  0.5334940000000  0.4325280000000  0.4027330000000 1.0
C      1  0.5830320000000  0.5685450000000  0.4794160000000 1.0
C      1  0.5636500000000  0.4846760000000  0.4773320000000 1.0
C      1  0.4293300000000  0.4876620000000  0.5162110000000 1.0
C      1  0.4239530000000  0.3821010000000  0.4743140000000 1.0
C      1  0.4882170000000  0.4330120000000  0.4125850000000 1.0
C      1  0.4430340000000  0.4646220000000  0.5235620000000 1.0
C      1  0.4213400000000  0.3594150000000  0.4617560000000 1.0
C      1  0.4147060000000  0.5552150000000  0.4599200000000 1.0
C      1  0.4166050000000  0.4552430000000  0.4772930000000 1.0
C      1  0.4685260000000  0.5775020000000  0.4525680000000 1.0
C      1  0.4563230000000  0.4923990000000  0.6014120000000 1.0
C      1  0.5139400000000  0.4762800000000  0.4119790000000 1.0
C      1  0.5186940000000  0.5916360000000  0.5527290000000 1.0
C      1  0.4614670000000  0.5114740000000  0.4132240000000 1.0
C      1  0.5517460000000  0.4664260000000  0.4504260000000 1.0
C      1  0.4797130000000  0.5793300000000  0.5289320000000 1.0
C      1  0.5323530000000  0.5266310000000  0.4553340000000 1.0
C      1  0.5045220000000  0.5729350000000  0.5715020000000 1.0
C      1  0.4234160000000  0.5025180000000  0.4457740000000 1.0
C      1  0.4118320000000  0.4688000000000  0.5723420000000 1.0
C      1  0.4614360000000  0.5505060000000  0.4451730000000 1.0
C      1  0.5032780000000  0.5240610000000  0.4532980000000 1.0
C      1  0.4849950000000  0.5274030000000  0.4787940000000 1.0
C      1  0.5060420000000  0.4032880000000  0.5051870000000 1.0
C      1  0.5362040000000  0.4183860000000  0.5449570000000 1.0
C      1  0.5175380000000  0.4155350000000  0.4463040000000 1.0
C      1  0.5828500000000  0.5131070000000  0.5701560000000 1.0
C      1  0.5099640000000  0.4488760000000  0.4033720000000 1.0
C      1  0.3968320000000  0.4785250000000  0.5495110000000 1.0
C      1  0.4951890000000  0.4621000000000  0.5407450000000 1.0
C      1  0.5523560000000  0.4603860000000  0.5544990000000 1.0
C      1  0.6165530000000  0.4458070000000  0.4506620000000 1.0
C      1  0.4998330000000  0.5300420000000  0.4228750000000 1.0
C      1  0.5739650000000  0.5977360000000  0.5155240000000 1.0
C      1  0.4439310000000  0.5160440000000  0.6016940000000 1.0
C      1  0.5263520000000  0.5425740000000  0.4141150000000 1.0
C      1  0.5536350000000  0.4572500000000  0.5233990000000 1.0
C      1  0.4252230000000  0.5722710000000  0.5537390000000 1.0
C      1  0.4979410000000  0.6011970000000  0.5352020000000 1.0
C      1  0.5274930000000  0.4193530000000  0.4962030000000 1.0
C      1  0.5017020000000  0.5146930000000  0.5508420000000 1.0
C      1  0.4583100000000  0.5794890000000  0.4801660000000 1.0
C      1  0.3909960000000  0.4620650000000  0.5260130000000 1.0
C      1  0.3989010000000  0.5066750000000  0.5458310000000 1.0
C      1  0.4510150000000  0.4493170000000  0.4340190000000 1.0
C      1  0.5542390000000  0.4320590000000  0.5627880000000 1.0
C      1  0.4616310000000  0.4740690000000  0.4410400000000 1.0
C      1  0.5855730000000  0.6221410000000  0.5223360000000 1.0
C      1  0.5444640000000  0.5258450000000  0.3998920000000 1.0
C      1  0.5909090000000  0.4367160000000  0.4433600000000 1.0
C      1  0.4190350000000  0.4841260000000  0.4684670000000 1.0
C      1  0.6201750000000  0.4713440000000  0.4620670000000 1.0
C      1  0.5081750000000  0.4195350000000  0.5519790000000 1.0
C      1  0.3981670000000  0.4533990000000  0.5007860000000 1.0
C      1  0.5241090000000  0.4294840000000  0.4706230000000 1.0
C      1  0.5032880000000  0.4892450000000  0.5372970000000 1.0
C      1  0.4985440000000  0.5502690000000  0.4941460000000 1.0
C      1  0.4804710000000  0.4746470000000  0.4625180000000 1.0
C      1  0.3891120000000  0.5103590000000  0.4953710000000 1.0
C      1  0.4824930000000  0.5616290000000  0.5535170000000 1.0
C      1  0.5811900000000  0.5551970000000  0.5469360000000 1.0
C      1  0.4292080000000  0.4216060000000  0.5380760000000 1.0
C      1  0.4469300000000  0.4960500000000  0.4308240000000 1.0
C      1  0.5423600000000  0.4304040000000  0.5178860000000 1.0
C      1  0.4563950000000  0.5349030000000  0.4702970000000 1.0
C      1  0.6382720000000  0.4296170000000  0.4466370000000 1.0
C      1  0.3640170000000  0.5171420000000  0.4936070000000 1.0
C      1  0.5879700000000  0.4980540000000  0.5921800000000 1.0
C      1  0.4353390000000  0.5288490000000  0.4923930000000 1.0
C      1  0.5197690000000  0.4952540000000  0.4863780000000 1.0
C      1  0.5691010000000  0.5390430000000  0.5700890000000 1.0
C      1  0.4841460000000  0.4443720000000  0.5201690000000 1.0
C      1  0.4685950000000  0.3950760000000  0.5353740000000 1.0
C      1  0.5264630000000  0.5459460000000  0.5041520000000 1.0
C      1  0.4156080000000  0.5290760000000  0.5421420000000 1.0
C      1  0.5148490000000  0.4757320000000  0.5929560000000 1.0
C      1  0.4271360000000  0.5425480000000  0.5173540000000 1.0
C      1  0.4782780000000  0.5711680000000  0.5013580000000 1.0
C      1  0.5416300000000  0.4227970000000  0.4285310000000 1.0
C      1  0.4888900000000  0.4189950000000  0.4379770000000 1.0
C      1  0.5670920000000  0.5784720000000  0.5360490000000 1.0
C      1  0.5685470000000  0.5911320000000  0.4879820000000 1.0
C      1  0.4397710000000  0.4466290000000  0.5453780000000 1.0
C      1  0.5967860000000  0.5347740000000  0.5318430000000 1.0
C      1  0.5292810000000  0.5505290000000  0.5315770000000 1.0
C      1  0.4898840000000  0.4143050000000  0.5274940000000 1.0
C      1  0.6176810000000  0.5159930000000  0.4901030000000 1.0
C      1  0.4621360000000  0.4684490000000  0.5872990000000 1.0
C      1  0.5513250000000  0.5331800000000  0.4942140000000 1.0
C      1  0.5177160000000  0.4920520000000  0.5136240000000 1.0
C      1  0.4705850000000  0.5370280000000  0.4219280000000 1.0
C      1  0.4275480000000  0.4065740000000  0.4872510000000 1.0
C      1  0.4391900000000  0.4586470000000  0.5714030000000 1.0
C      1  0.5778840000000  0.5434430000000  0.4902350000000 1.0
C      1  0.5926220000000  0.5084140000000  0.5435070000000 1.0
C      1  0.5170030000000  0.4892810000000  0.6166390000000 1.0
C      1  0.4775570000000  0.5048520000000  0.4970080000000 1.0
C      1  0.5632510000000  0.4396030000000  0.4404290000000 1.0
C      1  0.5262960000000  0.5300280000000  0.5513490000000 1.0
C      1  0.4805160000000  0.5973100000000  0.4375990000000 1.0
C      1  0.5873950000000  0.4885590000000  0.5239890000000 1.0
C      1  0.4291850000000  0.5734590000000  0.4754640000000 1.0
C      1  0.5408950000000  0.4818690000000  0.4238770000000 1.0
C      1  0.5226680000000  0.5574550000000  0.5877680000000 1.0
C      1  0.4342290000000  0.4300800000000  0.4718240000000 1.0
C      1  0.4907520000000  0.4604540000000  0.5859390000000 1.0
C      1  0.5084330000000  0.4765400000000  0.4679030000000 1.0
C      1  0.5376980000000  0.5509920000000  0.4398850000000 1.0
C      1  0.5468840000000  0.5946360000000  0.4699190000000 1.0
C      1  0.4211260000000  0.5463250000000  0.5655500000000 1.0
END
