TITL C-627107-135-1035 -508.678257442038 125000 -1115.7790027545 0 0 182 (C1) n - 1
REM
REM in /home/nfs/bkarasulu/CARBON/AIRSS/Generating-Clusters/LCBOP/Only-C1/SD-CG/FIRE-CG
REM
REM
REM
REM
REM
REM ./C.cell (11c1c37f851c82e70ff6c80c92926a4b)
REM AIRSS Version 0.9.1 bugfix July 2018 build 013d7b7c2542+ Fri, 06 Jul 2018 19:26:36 +0100
REM compiler GCC version 9.2.1 20190827 (Red Hat 9.2.1-1)
REM options -cpp -mtune=generic -march=x86-64 -g -O0 -fpre-include=/usr/include/finclude/math-vector-fortran.h
REM seed -408661593 -1326057295 1957199195 -1707272708 -1402976428 -1023346855 1156563600 216741219 -1593257861 874052210 580999247 -1526687595 1076794785 -623637261 -47956890 -1229737402 2101343268 1052832175 -1960315398 60230435 -1464994909 -228185061 -105743474 -1444100209 682803462 910503510 1380870520 1457848515 259567846 -1713765478 488440503 1197984450 -813809677
REM
CELL 1.54180   50.00000   50.00000   50.00000   90.00000   90.00000   90.00000
LATT -1
SFAC C  
C      1  0.4329890000000  0.5439630000000  0.5710510000000 1.0
C      1  0.4481200000000  0.5284810000000  0.4551130000000 1.0
C      1  0.4650860000000  0.5615340000000  0.4838240000000 1.0
C      1  0.5098260000000  0.4710520000000  0.5109680000000 1.0
C      1  0.4750320000000  0.3808520000000  0.4708330000000 1.0
C      1  0.5075650000000  0.5213790000000  0.4951310000000 1.0
C      1  0.4063180000000  0.5517490000000  0.5030560000000 1.0
C      1  0.5388140000000  0.5829970000000  0.3924320000000 1.0
C      1  0.4129640000000  0.5584420000000  0.5536250000000 1.0
C      1  0.4675110000000  0.4620310000000  0.4459220000000 1.0
C      1  0.3777710000000  0.6538500000000  0.4910630000000 1.0
C      1  0.4776840000000  0.4167100000000  0.4328330000000 1.0
C      1  0.6141570000000  0.5108150000000  0.4453230000000 1.0
C      1  0.5017220000000  0.4170450000000  0.5325750000000 1.0
C      1  0.5927720000000  0.4811700000000  0.6056350000000 1.0
C      1  0.5905500000000  0.5823180000000  0.4460300000000 1.0
C      1  0.4254440000000  0.5435490000000  0.4586800000000 1.0
C      1  0.5196580000000  0.4979540000000  0.4541310000000 1.0
C      1  0.4537000000000  0.5201700000000  0.6075110000000 1.0
C      1  0.4696920000000  0.6031590000000  0.5200410000000 1.0
C      1  0.4811030000000  0.5242460000000  0.5664970000000 1.0
C      1  0.5014810000000  0.5280160000000  0.6106800000000 1.0
C      1  0.4994850000000  0.5630440000000  0.5158840000000 1.0
C      1  0.3955150000000  0.4212680000000  0.5350330000000 1.0
C      1  0.4471060000000  0.4529930000000  0.5525860000000 1.0
C      1  0.5312480000000  0.4703420000000  0.4491750000000 1.0
C      1  0.5200800000000  0.5691640000000  0.4973820000000 1.0
C      1  0.5617240000000  0.4425060000000  0.5595660000000 1.0
C      1  0.4704340000000  0.5656600000000  0.5970160000000 1.0
C      1  0.4571510000000  0.4415460000000  0.5287390000000 1.0
C      1  0.5534560000000  0.3960850000000  0.5633610000000 1.0
C      1  0.4534940000000  0.5779750000000  0.5515840000000 1.0
C      1  0.4301150000000  0.4295280000000  0.4452260000000 1.0
C      1  0.4566430000000  0.5337560000000  0.5544270000000 1.0
C      1  0.4298150000000  0.4349810000000  0.4919970000000 1.0
C      1  0.4907380000000  0.5863130000000  0.5302500000000 1.0
C      1  0.5258550000000  0.5128370000000  0.3788680000000 1.0
C      1  0.4012810000000  0.6049190000000  0.4925180000000 1.0
C      1  0.4794190000000  0.5181700000000  0.5951440000000 1.0
C      1  0.6038780000000  0.4343520000000  0.4633740000000 1.0
C      1  0.5427670000000  0.5080120000000  0.4704390000000 1.0
C      1  0.4144060000000  0.4201790000000  0.5566010000000 1.0
C      1  0.3921580000000  0.5950910000000  0.4453120000000 1.0
C      1  0.4506760000000  0.5475910000000  0.5068200000000 1.0
C      1  0.5863920000000  0.5472100000000  0.4127520000000 1.0
C      1  0.4889530000000  0.5288500000000  0.5124740000000 1.0
C      1  0.5411580000000  0.4703370000000  0.5156060000000 1.0
C      1  0.3193510000000  0.4621680000000  0.4727830000000 1.0
C      1  0.6047340000000  0.4902090000000  0.4655200000000 1.0
C      1  0.5697040000000  0.4861130000000  0.3914980000000 1.0
C      1  0.3872570000000  0.4613150000000  0.4978450000000 1.0
C      1  0.5390680000000  0.4486610000000  0.5431400000000 1.0
C      1  0.5784150000000  0.5739710000000  0.4222010000000 1.0
C      1  0.4257950000000  0.5307580000000  0.5064250000000 1.0
C      1  0.4614310000000  0.3931160000000  0.5204870000000 1.0
C      1  0.5604740000000  0.5429610000000  0.5251860000000 1.0
C      1  0.4656290000000  0.4655720000000  0.5687470000000 1.0
C      1  0.4778780000000  0.4994480000000  0.4059110000000 1.0
C      1  0.4461730000000  0.4529640000000  0.5054160000000 1.0
C      1  0.4455280000000  0.4955830000000  0.6184660000000 1.0
C      1  0.4980570000000  0.5571580000000  0.6070900000000 1.0
C      1  0.5706090000000  0.4969000000000  0.4359100000000 1.0
C      1  0.5168390000000  0.5158690000000  0.4277060000000 1.0
C      1  0.5481750000000  0.4930670000000  0.5443760000000 1.0
C      1  0.5514580000000  0.6039040000000  0.5337150000000 1.0
C      1  0.4007340000000  0.4915390000000  0.5651730000000 1.0
C      1  0.3873510000000  0.4549750000000  0.4487000000000 1.0
C      1  0.4219820000000  0.4465970000000  0.5635120000000 1.0
C      1  0.5491440000000  0.5797560000000  0.4188620000000 1.0
C      1  0.4055240000000  0.4666410000000  0.5736320000000 1.0
C      1  0.5379690000000  0.5238730000000  0.5143870000000 1.0
C      1  0.5132870000000  0.4354570000000  0.5509490000000 1.0
C      1  0.5267840000000  0.4535040000000  0.4716600000000 1.0
C      1  0.5573770000000  0.4640420000000  0.4066350000000 1.0
C      1  0.5273080000000  0.5655920000000  0.3752280000000 1.0
C      1  0.5646030000000  0.4265020000000  0.4926260000000 1.0
C      1  0.5250220000000  0.4266160000000  0.4117350000000 1.0
C      1  0.5829230000000  0.5059480000000  0.6020500000000 1.0
C      1  0.5007440000000  0.6216940000000  0.4802190000000 1.0
C      1  0.4765700000000  0.4677690000000  0.4729330000000 1.0
C      1  0.6032210000000  0.5230760000000  0.4197950000000 1.0
C      1  0.5780950000000  0.4226140000000  0.4676160000000 1.0
C      1  0.5431510000000  0.4125060000000  0.4279270000000 1.0
C      1  0.5868500000000  0.5313110000000  0.5197380000000 1.0
C      1  0.4930900000000  0.5358260000000  0.4357480000000 1.0
C      1  0.5415170000000  0.5346700000000  0.4304570000000 1.0
C      1  0.4079910000000  0.5702080000000  0.5261950000000 1.0
C      1  0.4001270000000  0.5868670000000  0.4701130000000 1.0
C      1  0.5196820000000  0.3957360000000  0.5274090000000 1.0
C      1  0.5598250000000  0.3727650000000  0.5761810000000 1.0
C      1  0.3453680000000  0.4606620000000  0.4725630000000 1.0
C      1  0.4069900000000  0.5059590000000  0.5436640000000 1.0
C      1  0.6077600000000  0.4623180000000  0.4622410000000 1.0
C      1  0.4734410000000  0.4740950000000  0.4205830000000 1.0
C      1  0.5021040000000  0.4604010000000  0.4844890000000 1.0
C      1  0.4566680000000  0.5544630000000  0.5341930000000 1.0
C      1  0.4973900000000  0.5099210000000  0.4712680000000 1.0
C      1  0.5527890000000  0.4984520000000  0.4963780000000 1.0
C      1  0.3883830000000  0.6296050000000  0.4922610000000 1.0
C      1  0.4587560000000  0.4768140000000  0.4945020000000 1.0
C      1  0.5524360000000  0.4215510000000  0.5774940000000 1.0
C      1  0.4861690000000  0.6034420000000  0.4666470000000 1.0
C      1  0.5075160000000  0.4884390000000  0.5706820000000 1.0
C      1  0.5719820000000  0.5026720000000  0.5554080000000 1.0
C      1  0.5197200000000  0.5727310000000  0.5963810000000 1.0
C      1  0.5859470000000  0.5009440000000  0.4107960000000 1.0
C      1  0.4592840000000  0.5080130000000  0.3866230000000 1.0
C      1  0.5360590000000  0.5918700000000  0.4930990000000 1.0
C      1  0.5628750000000  0.4121700000000  0.4461130000000 1.0
C      1  0.4742080000000  0.4183010000000  0.5261100000000 1.0
C      1  0.4835340000000  0.5751200000000  0.4639320000000 1.0
C      1  0.5218030000000  0.5843430000000  0.5703280000000 1.0
C      1  0.4458220000000  0.5467580000000  0.5977240000000 1.0
C      1  0.4685520000000  0.4496760000000  0.3769350000000 1.0
C      1  0.5286140000000  0.5130110000000  0.5403270000000 1.0
C      1  0.5662570000000  0.5452790000000  0.5741140000000 1.0
C      1  0.4139680000000  0.5065390000000  0.5163350000000 1.0
C      1  0.5216860000000  0.5396580000000  0.3707680000000 1.0
C      1  0.4547110000000  0.4701720000000  0.6151600000000 1.0
C      1  0.4526270000000  0.4664900000000  0.3629950000000 1.0
C      1  0.6050200000000  0.4616290000000  0.5428570000000 1.0
C      1  0.4025630000000  0.4850840000000  0.5016950000000 1.0
C      1  0.4163320000000  0.5963480000000  0.5156000000000 1.0
C      1  0.4670480000000  0.4546150000000  0.5952130000000 1.0
C      1  0.4252970000000  0.4193260000000  0.4709500000000 1.0
C      1  0.4960810000000  0.4277500000000  0.4140270000000 1.0
C      1  0.4573740000000  0.4353030000000  0.4409670000000 1.0
C      1  0.6463510000000  0.4014360000000  0.4577510000000 1.0
C      1  0.5555000000000  0.4723990000000  0.4343120000000 1.0
C      1  0.3868860000000  0.4396370000000  0.5167740000000 1.0
C      1  0.5803850000000  0.5412580000000  0.4699170000000 1.0
C      1  0.5513180000000  0.4998660000000  0.3744670000000 1.0
C      1  0.5325860000000  0.6245840000000  0.5239590000000 1.0
C      1  0.5599100000000  0.5363740000000  0.4065310000000 1.0
C      1  0.6102000000000  0.4864810000000  0.5333210000000 1.0
C      1  0.5191930000000  0.5074260000000  0.6194360000000 1.0
C      1  0.4879860000000  0.4751280000000  0.5557010000000 1.0
C      1  0.4078450000000  0.5599420000000  0.4751820000000 1.0
C      1  0.5726260000000  0.5184390000000  0.5792310000000 1.0
C      1  0.6259710000000  0.4174550000000  0.4604390000000 1.0
C      1  0.5611200000000  0.5927830000000  0.5078880000000 1.0
C      1  0.5305100000000  0.4322230000000  0.5944400000000 1.0
C      1  0.4761780000000  0.5225110000000  0.4550970000000 1.0
C      1  0.5021540000000  0.5621450000000  0.4443660000000 1.0
C      1  0.5323200000000  0.4556130000000  0.6112130000000 1.0
C      1  0.4896290000000  0.4805300000000  0.5280940000000 1.0
C      1  0.5474360000000  0.3966200000000  0.5345830000000 1.0
C      1  0.5342250000000  0.4508780000000  0.3985270000000 1.0
C      1  0.5951650000000  0.4595290000000  0.5899100000000 1.0
C      1  0.4858750000000  0.4535510000000  0.4006260000000 1.0
C      1  0.3678900000000  0.6779250000000  0.4895130000000 1.0
C      1  0.5276680000000  0.4814740000000  0.6185180000000 1.0
C      1  0.4802710000000  0.3932340000000  0.4477690000000 1.0
C      1  0.5577010000000  0.5582960000000  0.5502010000000 1.0
C      1  0.5640200000000  0.4078560000000  0.5141560000000 1.0
C      1  0.5449820000000  0.5838850000000  0.5532500000000 1.0
C      1  0.5914640000000  0.5264270000000  0.4923110000000 1.0
C      1  0.4361260000000  0.4013590000000  0.5627750000000 1.0
C      1  0.5612810000000  0.5226110000000  0.4520850000000 1.0
C      1  0.4782450000000  0.4280850000000  0.5896410000000 1.0
C      1  0.5057950000000  0.4300910000000  0.5793290000000 1.0
C      1  0.5880690000000  0.4521460000000  0.5634550000000 1.0
C      1  0.5876690000000  0.4992160000000  0.4869980000000 1.0
C      1  0.4964050000000  0.5883240000000  0.5584460000000 1.0
C      1  0.4441090000000  0.3846980000000  0.5411000000000 1.0
C      1  0.4666620000000  0.3804450000000  0.4961580000000 1.0
C      1  0.5864640000000  0.5691400000000  0.4703720000000 1.0
C      1  0.4578290000000  0.4088150000000  0.5813440000000 1.0
C      1  0.4429080000000  0.6064310000000  0.5177440000000 1.0
C      1  0.5473430000000  0.4489510000000  0.4927910000000 1.0
C      1  0.5307770000000  0.5636510000000  0.4359900000000 1.0
C      1  0.5834920000000  0.5838010000000  0.4942160000000 1.0
C      1  0.4708380000000  0.4970460000000  0.5136920000000 1.0
C      1  0.5089340000000  0.5003230000000  0.4013090000000 1.0
C      1  0.3732420000000  0.4589170000000  0.4728390000000 1.0
C      1  0.4719760000000  0.5826000000000  0.5731920000000 1.0
C      1  0.4481790000000  0.4928330000000  0.3671700000000 1.0
C      1  0.5932150000000  0.5087280000000  0.5369770000000 1.0
C      1  0.4081410000000  0.4442100000000  0.4354000000000 1.0
C      1  0.5078410000000  0.5152320000000  0.5589790000000 1.0
C      1  0.5121580000000  0.4688010000000  0.3946880000000 1.0
C      1  0.5224460000000  0.6177030000000  0.4974240000000 1.0
END
