TITL C-627109-622-410 1236758.74455265 125000 -862.752241660844 0 0 144 (C1) n - 1
REM
REM in /home/nfs/bkarasulu/CARBON/AIRSS/Generating-Clusters/LCBOP/Only-C1/SD-CG/FIRE-CG
REM
REM
REM
REM
REM
REM ./C.cell (11c1c37f851c82e70ff6c80c92926a4b)
REM AIRSS Version 0.9.1 bugfix July 2018 build 013d7b7c2542+ Fri, 06 Jul 2018 19:26:36 +0100
REM compiler GCC version 9.2.1 20190827 (Red Hat 9.2.1-1)
REM options -cpp -mtune=generic -march=x86-64 -g -O0 -fpre-include=/usr/include/finclude/math-vector-fortran.h
REM seed 1989135111 298140114 579011506 -743378713 60633336 -1213230986 1920201176 -1584919468 1675704624 -229301641 -1106491610 -1881020027 -1998502104 1791073309 1811228472 1898675531 1562687636 -710772098 743131241 2094289539 2098111727 993195759 -236496261 -196670759 -1733115621 1188765561 -1776073567 1511265801 -438648830 -1710682332 558213207 -1642680186 518535211
REM
CELL 1.54180   50.00000   50.00000   50.00000   90.00000   90.00000   90.00000
LATT -1
SFAC C  
C      1  0.4837550000000  0.5544870000000  0.4217790000000 1.0
C      1  0.3850740000000  0.5002950000000  0.4493200000000 1.0
C      1  0.5271440000000  0.5041080000000  0.4261360000000 1.0
C      1  0.4309870000000  0.3841280000000  0.5625630000000 1.0
C      1  0.5963990000000  0.5107750000000  0.4241220000000 1.0
C      1  0.4151270000000  0.4597170000000  0.4352100000000 1.0
C      1  0.5941540000000  0.4797040000000  0.4615640000000 1.0
C      1  0.4324290000000  0.5695280000000  0.4302330000000 1.0
C      1  0.4222570000000  0.5702840000000  0.5239780000000 1.0
C      1  0.5414230000000  0.5064160000000  0.4504430000000 1.0
C      1  0.5004810000000  0.4836390000000  0.5308350000000 1.0
C      1  0.5218140000000  0.4033860000000  0.5188010000000 1.0
C      1  0.4574320000000  0.4723730000000  0.4583880000000 1.0
C      1  0.5344000000000  0.4918950000000  0.4014390000000 1.0
C      1  0.4264490000000  0.4546380000000  0.4097970000000 1.0
C      1  0.5579200000000  0.4344100000000  0.4558550000000 1.0
C      1  0.3919850000000  0.5500240000000  0.5549550000000 1.0
C      1  0.6017980000000  0.5554500000000  0.4893810000000 1.0
C      1  0.4922670000000  0.4214670000000  0.5533920000000 1.0
C      1  0.4230440000000  0.4248910000000  0.4934480000000 1.0
C      1  0.4068130000000  0.5151840000000  0.4592990000000 1.0
C      1  0.4990910000000  0.5559720000000  0.3968540000000 1.0
C      1  0.4564860000000  0.5686830000000  0.4883240000000 1.0
C      1  0.5252860000000  0.4935510000000  0.5470670000000 1.0
C      1  0.5250930000000  0.5100350000000  0.3812180000000 1.0
C      1  0.5193520000000  0.3986520000000  0.4921620000000 1.0
C      1  0.5644390000000  0.5406630000000  0.5132510000000 1.0
C      1  0.5261750000000  0.4636510000000  0.5884140000000 1.0
C      1  0.4724090000000  0.5386750000000  0.6087820000000 1.0
C      1  0.5938680000000  0.5357410000000  0.5102520000000 1.0
C      1  0.5918610000000  0.4867700000000  0.5524730000000 1.0
C      1  0.5469560000000  0.4765570000000  0.5336270000000 1.0
C      1  0.5207480000000  0.4195200000000  0.4179960000000 1.0
C      1  0.4779240000000  0.4408990000000  0.4850500000000 1.0
C      1  0.4539350000000  0.4814440000000  0.5126890000000 1.0
C      1  0.6055330000000  0.5383130000000  0.5642590000000 1.0
C      1  0.4172740000000  0.5596990000000  0.5499930000000 1.0
C      1  0.4870610000000  0.4654290000000  0.5489010000000 1.0
C      1  0.4610710000000  0.4879220000000  0.5824770000000 1.0
C      1  0.4574110000000  0.5636510000000  0.4232990000000 1.0
C      1  0.3898840000000  0.4669120000000  0.5636250000000 1.0
C      1  0.4366640000000  0.4298920000000  0.4693150000000 1.0
C      1  0.5757740000000  0.4197560000000  0.4982150000000 1.0
C      1  0.5136710000000  0.6014470000000  0.5238170000000 1.0
C      1  0.5530160000000  0.5582330000000  0.5590930000000 1.0
C      1  0.4889420000000  0.5884230000000  0.5186990000000 1.0
C      1  0.5955350000000  0.4598320000000  0.5086360000000 1.0
C      1  0.5541280000000  0.4482350000000  0.5333560000000 1.0
C      1  0.4852440000000  0.6060330000000  0.4725980000000 1.0
C      1  0.4967840000000  0.5371550000000  0.4440230000000 1.0
C      1  0.4032400000000  0.4915870000000  0.5138470000000 1.0
C      1  0.4214200000000  0.4341130000000  0.5186400000000 1.0
C      1  0.4110660000000  0.5767200000000  0.4752640000000 1.0
C      1  0.4338800000000  0.4553400000000  0.4562970000000 1.0
C      1  0.5547760000000  0.4877630000000  0.5094990000000 1.0
C      1  0.5083450000000  0.5596260000000  0.5837570000000 1.0
C      1  0.4959560000000  0.5292340000000  0.5537400000000 1.0
C      1  0.5906830000000  0.5370840000000  0.4266060000000 1.0
C      1  0.4987310000000  0.4521580000000  0.5906410000000 1.0
C      1  0.5909700000000  0.4839190000000  0.4328950000000 1.0
C      1  0.5048470000000  0.4082740000000  0.4401280000000 1.0
C      1  0.5976290000000  0.5079490000000  0.5039060000000 1.0
C      1  0.4660510000000  0.5420960000000  0.4943280000000 1.0
C      1  0.5981120000000  0.4849310000000  0.5227190000000 1.0
C      1  0.5575990000000  0.5438870000000  0.4825080000000 1.0
C      1  0.5808480000000  0.5602080000000  0.4693880000000 1.0
C      1  0.5137510000000  0.5275050000000  0.5116930000000 1.0
C      1  0.5081670000000  0.4741830000000  0.5050240000000 1.0
C      1  0.5272920000000  0.4916810000000  0.4694550000000 1.0
C      1  0.5493370000000  0.4505050000000  0.5770450000000 1.0
C      1  0.5244140000000  0.4916170000000  0.5785870000000 1.0
C      1  0.5083680000000  0.4539030000000  0.4506020000000 1.0
C      1  0.4693220000000  0.4483580000000  0.5103290000000 1.0
C      1  0.5147010000000  0.5128310000000  0.5957050000000 1.0
C      1  0.4058720000000  0.4525690000000  0.5813840000000 1.0
C      1  0.5768920000000  0.4393720000000  0.5191040000000 1.0
C      1  0.5751370000000  0.5566250000000  0.4404890000000 1.0
C      1  0.5110300000000  0.5333880000000  0.3836530000000 1.0
C      1  0.5445810000000  0.4793440000000  0.4866690000000 1.0
C      1  0.4671140000000  0.4305740000000  0.4180530000000 1.0
C      1  0.5641980000000  0.5988240000000  0.5392250000000 1.0
C      1  0.4765990000000  0.4992610000000  0.5212320000000 1.0
C      1  0.4834830000000  0.4723410000000  0.5761410000000 1.0
C      1  0.4732070000000  0.5010280000000  0.4255210000000 1.0
C      1  0.5869050000000  0.5028930000000  0.4766320000000 1.0
C      1  0.4411420000000  0.4027290000000  0.5777670000000 1.0
C      1  0.5397790000000  0.6052860000000  0.5292740000000 1.0
C      1  0.5475680000000  0.4662030000000  0.4045650000000 1.0
C      1  0.4653470000000  0.5299240000000  0.6337660000000 1.0
C      1  0.3921220000000  0.4750550000000  0.4390500000000 1.0
C      1  0.5487430000000  0.5389970000000  0.5384280000000 1.0
C      1  0.5235050000000  0.5527760000000  0.4493610000000 1.0
C      1  0.4795530000000  0.4411100000000  0.5356810000000 1.0
C      1  0.4507300000000  0.5000090000000  0.5583680000000 1.0
C      1  0.4220470000000  0.4567930000000  0.5350660000000 1.0
C      1  0.4363920000000  0.5573940000000  0.5710550000000 1.0
C      1  0.5416930000000  0.4332210000000  0.5541000000000 1.0
C      1  0.4524480000000  0.5493220000000  0.5911960000000 1.0
C      1  0.4692320000000  0.5193080000000  0.5415890000000 1.0
C      1  0.3592890000000  0.5087420000000  0.4516340000000 1.0
C      1  0.4331080000000  0.4491820000000  0.5914310000000 1.0
C      1  0.5957200000000  0.4565690000000  0.4783620000000 1.0
C      1  0.5334100000000  0.4407220000000  0.4056190000000 1.0
C      1  0.5747550000000  0.4678710000000  0.5700540000000 1.0
C      1  0.5253810000000  0.6253150000000  0.4454680000000 1.0
C      1  0.4758400000000  0.5895020000000  0.4928970000000 1.0
C      1  0.5126660000000  0.5489260000000  0.4962180000000 1.0
C      1  0.5230570000000  0.5226680000000  0.5394380000000 1.0
C      1  0.4290540000000  0.5731790000000  0.4965010000000 1.0
C      1  0.4138550000000  0.5747600000000  0.4486700000000 1.0
C      1  0.5357480000000  0.5641060000000  0.5803660000000 1.0
C      1  0.4798040000000  0.5672170000000  0.5358050000000 1.0
C      1  0.5307810000000  0.5541840000000  0.4765130000000 1.0
C      1  0.4853450000000  0.4646740000000  0.4665040000000 1.0
C      1  0.6004880000000  0.5118000000000  0.5640280000000 1.0
C      1  0.4999870000000  0.5373170000000  0.6004180000000 1.0
C      1  0.5742270000000  0.5764420000000  0.5534630000000 1.0
C      1  0.4292490000000  0.4946110000000  0.4979300000000 1.0
C      1  0.5800450000000  0.4323510000000  0.4726600000000 1.0
C      1  0.4769930000000  0.4167520000000  0.4410680000000 1.0
C      1  0.5196780000000  0.4159430000000  0.5448950000000 1.0
C      1  0.5337610000000  0.4454030000000  0.4529970000000 1.0
C      1  0.5032810000000  0.6173040000000  0.4567550000000 1.0
C      1  0.4673580000000  0.4794370000000  0.4081200000000 1.0
C      1  0.5630430000000  0.5173870000000  0.4671690000000 1.0
C      1  0.4413900000000  0.4776030000000  0.5402860000000 1.0
C      1  0.5152620000000  0.3985160000000  0.4652620000000 1.0
C      1  0.4938440000000  0.5582540000000  0.5592860000000 1.0
C      1  0.4311010000000  0.5081500000000  0.4716110000000 1.0
C      1  0.4548290000000  0.4538860000000  0.4073170000000 1.0
C      1  0.5467870000000  0.5591160000000  0.4331550000000 1.0
C      1  0.5035930000000  0.5810220000000  0.3863110000000 1.0
C      1  0.4804790000000  0.5193320000000  0.4716890000000 1.0
C      1  0.4835200000000  0.4280180000000  0.5815990000000 1.0
C      1  0.4438830000000  0.4742500000000  0.6000050000000 1.0
C      1  0.4998990000000  0.5121020000000  0.4279410000000 1.0
C      1  0.3974860000000  0.4727410000000  0.5363130000000 1.0
C      1  0.4657040000000  0.5433810000000  0.5234080000000 1.0
C      1  0.4644830000000  0.4217020000000  0.4670060000000 1.0
C      1  0.5991470000000  0.5642000000000  0.5589880000000 1.0
C      1  0.4996360000000  0.4890180000000  0.4796050000000 1.0
C      1  0.4565730000000  0.5023940000000  0.4538190000000 1.0
C      1  0.4530320000000  0.4272580000000  0.5858390000000 1.0
C      1  0.5738390000000  0.4683300000000  0.4162050000000 1.0
END
