TITL C-627110-360-1098 -2.20803119401215e-06 125000 -1111.23044823195 0 0 184 (C1) n - 1
REM
REM in /home/nfs/bkarasulu/CARBON/AIRSS/Generating-Clusters/LCBOP/Only-C1/SD-CG/FIRE-CG
REM
REM
REM
REM
REM
REM ./C.cell (11c1c37f851c82e70ff6c80c92926a4b)
REM AIRSS Version 0.9.1 bugfix July 2018 build 013d7b7c2542+ Fri, 06 Jul 2018 19:26:36 +0100
REM compiler GCC version 9.2.1 20190827 (Red Hat 9.2.1-1)
REM options -cpp -mtune=generic -march=x86-64 -g -O0 -fpre-include=/usr/include/finclude/math-vector-fortran.h
REM seed -2070268496 -1362779577 -951082784 -82315522 177094618 1380396724 -1918898400 -1880986930 612719715 478835258 -1466162502 1774491077 -1885718029 1665468862 583264908 -1429977992 313289686 932530844 -2085405921 1889044681 -1400392364 294861362 637478481 -992878074 319053421 1798602489 -326078490 993658301 1527299433 -543325675 1532081788 374977691 -1988755320
REM
CELL 1.54180   50.00000   50.00000   50.00000   90.00000   90.00000   90.00000
LATT -1
SFAC C  
C      1  0.4918530000000  0.6249950000000  0.5538370000000 1.0
C      1  0.4293290000000  0.5757980000000  0.6065900000000 1.0
C      1  0.4274280000000  0.5451300000000  0.4243070000000 1.0
C      1  0.5130430000000  0.5767440000000  0.4311380000000 1.0
C      1  0.6273980000000  0.5712070000000  0.5151480000000 1.0
C      1  0.4635450000000  0.3864900000000  0.4695590000000 1.0
C      1  0.6057290000000  0.5157630000000  0.5634060000000 1.0
C      1  0.5414590000000  0.4601080000000  0.6029970000000 1.0
C      1  0.4768560000000  0.4781750000000  0.3803860000000 1.0
C      1  0.4720830000000  0.5841070000000  0.4019020000000 1.0
C      1  0.3702870000000  0.4627320000000  0.4541000000000 1.0
C      1  0.4649680000000  0.4257220000000  0.4318340000000 1.0
C      1  0.5288320000000  0.4383890000000  0.4668040000000 1.0
C      1  0.4452700000000  0.6269210000000  0.4638370000000 1.0
C      1  0.5708220000000  0.5310910000000  0.4016530000000 1.0
C      1  0.5519220000000  0.5388100000000  0.5444120000000 1.0
C      1  0.5522410000000  0.4844570000000  0.3801340000000 1.0
C      1  0.5229930000000  0.4826780000000  0.5168890000000 1.0
C      1  0.4548380000000  0.4036810000000  0.4481710000000 1.0
C      1  0.5302690000000  0.4421950000000  0.3941200000000 1.0
C      1  0.4440640000000  0.5799360000000  0.5854690000000 1.0
C      1  0.5729110000000  0.5796830000000  0.4607220000000 1.0
C      1  0.5192410000000  0.5912150000000  0.4548750000000 1.0
C      1  0.4530020000000  0.4516860000000  0.5676050000000 1.0
C      1  0.4955730000000  0.4243390000000  0.4303170000000 1.0
C      1  0.5562400000000  0.4819410000000  0.4627100000000 1.0
C      1  0.5162380000000  0.3978630000000  0.5612370000000 1.0
C      1  0.5157540000000  0.3912650000000  0.4669280000000 1.0
C      1  0.4743120000000  0.5212140000000  0.4330840000000 1.0
C      1  0.4068770000000  0.4845100000000  0.4188500000000 1.0
C      1  0.6075030000000  0.5242150000000  0.4616900000000 1.0
C      1  0.4687910000000  0.4289870000000  0.5760650000000 1.0
C      1  0.4176550000000  0.4685630000000  0.5416590000000 1.0
C      1  0.5274810000000  0.4973540000000  0.5416080000000 1.0
C      1  0.5981680000000  0.4315660000000  0.4742120000000 1.0
C      1  0.4583570000000  0.4908590000000  0.6185460000000 1.0
C      1  0.5782850000000  0.5703570000000  0.4361460000000 1.0
C      1  0.4314700000000  0.4899260000000  0.4673160000000 1.0
C      1  0.5350140000000  0.3961760000000  0.5390740000000 1.0
C      1  0.4389540000000  0.3524980000000  0.5304460000000 1.0
C      1  0.6047800000000  0.4943670000000  0.5432530000000 1.0
C      1  0.4820330000000  0.4938680000000  0.5168640000000 1.0
C      1  0.3590930000000  0.4651930000000  0.4785500000000 1.0
C      1  0.4926870000000  0.5674170000000  0.4136110000000 1.0
C      1  0.4413180000000  0.5085150000000  0.5173640000000 1.0
C      1  0.5038040000000  0.5356390000000  0.6154970000000 1.0
C      1  0.4446600000000  0.5344810000000  0.5599030000000 1.0
C      1  0.4626510000000  0.6067920000000  0.4162420000000 1.0
C      1  0.3767150000000  0.5381420000000  0.4576820000000 1.0
C      1  0.4522460000000  0.5701760000000  0.3872990000000 1.0
C      1  0.5941660000000  0.4311260000000  0.5024860000000 1.0
C      1  0.5133390000000  0.6062820000000  0.5514190000000 1.0
C      1  0.3972170000000  0.5200500000000  0.4520930000000 1.0
C      1  0.4107610000000  0.5750390000000  0.4615170000000 1.0
C      1  0.4941200000000  0.4519660000000  0.6136150000000 1.0
C      1  0.4703010000000  0.4432470000000  0.5227510000000 1.0
C      1  0.4894190000000  0.3884130000000  0.5570680000000 1.0
C      1  0.5534720000000  0.4579570000000  0.3909390000000 1.0
C      1  0.4133490000000  0.5916470000000  0.4837740000000 1.0
C      1  0.4235550000000  0.4629950000000  0.4088590000000 1.0
C      1  0.4479110000000  0.5019220000000  0.4883350000000 1.0
C      1  0.4504580000000  0.3825120000000  0.4945720000000 1.0
C      1  0.3589470000000  0.4773800000000  0.5024320000000 1.0
C      1  0.4711100000000  0.4672700000000  0.6203910000000 1.0
C      1  0.5308220000000  0.4916660000000  0.3310510000000 1.0
C      1  0.5402400000000  0.4880100000000  0.3550730000000 1.0
C      1  0.5570100000000  0.4905380000000  0.4904180000000 1.0
C      1  0.5558750000000  0.4159480000000  0.5325270000000 1.0
C      1  0.4339090000000  0.5536680000000  0.3980400000000 1.0
C      1  0.4445750000000  0.3781390000000  0.5222600000000 1.0
C      1  0.5964470000000  0.4408380000000  0.3769800000000 1.0
C      1  0.5789070000000  0.4466740000000  0.3971980000000 1.0
C      1  0.5195400000000  0.4645650000000  0.6206810000000 1.0
C      1  0.4819420000000  0.4832860000000  0.4070520000000 1.0
C      1  0.4628690000000  0.6100240000000  0.4464170000000 1.0
C      1  0.5625870000000  0.3953180000000  0.4891430000000 1.0
C      1  0.4886060000000  0.6261810000000  0.4496320000000 1.0
C      1  0.4251360000000  0.4205510000000  0.5386280000000 1.0
C      1  0.5035550000000  0.5083710000000  0.5518530000000 1.0
C      1  0.3654300000000  0.4936860000000  0.5226310000000 1.0
C      1  0.4339800000000  0.5650020000000  0.4468540000000 1.0
C      1  0.5554650000000  0.5807020000000  0.4813560000000 1.0
C      1  0.4656420000000  0.4038160000000  0.5605700000000 1.0
C      1  0.4447120000000  0.4506180000000  0.4253410000000 1.0
C      1  0.3851610000000  0.5647520000000  0.4567310000000 1.0
C      1  0.5289340000000  0.5002250000000  0.4943470000000 1.0
C      1  0.5280610000000  0.5282870000000  0.4803370000000 1.0
C      1  0.5125460000000  0.4576460000000  0.5605320000000 1.0
C      1  0.5355580000000  0.3855460000000  0.4882070000000 1.0
C      1  0.4297500000000  0.6046930000000  0.5020540000000 1.0
C      1  0.5851700000000  0.4454650000000  0.5875500000000 1.0
C      1  0.5481620000000  0.4431000000000  0.5338620000000 1.0
C      1  0.5541640000000  0.5930470000000  0.5701400000000 1.0
C      1  0.4916460000000  0.5181970000000  0.5270790000000 1.0
C      1  0.4042990000000  0.4945520000000  0.4628080000000 1.0
C      1  0.3921320000000  0.4764240000000  0.4432760000000 1.0
C      1  0.4726520000000  0.6160720000000  0.5722650000000 1.0
C      1  0.5859120000000  0.4413320000000  0.4237830000000 1.0
C      1  0.5348010000000  0.4640100000000  0.4563390000000 1.0
C      1  0.4906450000000  0.3779480000000  0.4676090000000 1.0
C      1  0.5195020000000  0.5591470000000  0.5766810000000 1.0
C      1  0.5891810000000  0.5178110000000  0.5872500000000 1.0
C      1  0.5996000000000  0.5314830000000  0.5068770000000 1.0
C      1  0.6274890000000  0.4658690000000  0.4991350000000 1.0
C      1  0.5701850000000  0.5839630000000  0.5500840000000 1.0
C      1  0.4169610000000  0.5323130000000  0.5658150000000 1.0
C      1  0.5942600000000  0.5017440000000  0.6098050000000 1.0
C      1  0.5061890000000  0.4797560000000  0.4208890000000 1.0
C      1  0.5315570000000  0.4557160000000  0.5148450000000 1.0
C      1  0.5870450000000  0.5337870000000  0.4799320000000 1.0
C      1  0.5269640000000  0.5824330000000  0.4813920000000 1.0
C      1  0.6321450000000  0.4829420000000  0.4790630000000 1.0
C      1  0.4674040000000  0.5263100000000  0.5804520000000 1.0
C      1  0.5695280000000  0.4588200000000  0.6070080000000 1.0
C      1  0.3510410000000  0.5309300000000  0.4630690000000 1.0
C      1  0.4828790000000  0.5692280000000  0.5228690000000 1.0
C      1  0.3765090000000  0.5097890000000  0.5409030000000 1.0
C      1  0.4595010000000  0.4806900000000  0.5599890000000 1.0
C      1  0.4601390000000  0.5789260000000  0.4551280000000 1.0
C      1  0.6053780000000  0.4651410000000  0.5423430000000 1.0
C      1  0.6147590000000  0.5487350000000  0.5239770000000 1.0
C      1  0.4381800000000  0.4883990000000  0.5386700000000 1.0
C      1  0.5186080000000  0.4895620000000  0.6338320000000 1.0
C      1  0.5256920000000  0.5879070000000  0.5703190000000 1.0
C      1  0.5740770000000  0.4116540000000  0.5102400000000 1.0
C      1  0.4642850000000  0.6384480000000  0.5096510000000 1.0
C      1  0.5043960000000  0.4192270000000  0.5027020000000 1.0
C      1  0.4438860000000  0.3992480000000  0.5422090000000 1.0
C      1  0.4855430000000  0.5400550000000  0.4155180000000 1.0
C      1  0.4495020000000  0.4743310000000  0.4455190000000 1.0
C      1  0.4830370000000  0.5225050000000  0.4596650000000 1.0
C      1  0.4816650000000  0.4203950000000  0.5159070000000 1.0
C      1  0.4275090000000  0.4325170000000  0.4901820000000 1.0
C      1  0.4751180000000  0.5016330000000  0.4757330000000 1.0
C      1  0.5510270000000  0.5121330000000  0.5352940000000 1.0
C      1  0.4638080000000  0.4955160000000  0.4256350000000 1.0
C      1  0.4667120000000  0.4588480000000  0.4653260000000 1.0
C      1  0.5830860000000  0.4796560000000  0.6202260000000 1.0
C      1  0.5005120000000  0.5417880000000  0.4708640000000 1.0
C      1  0.4118600000000  0.5202800000000  0.4271280000000 1.0
C      1  0.5944490000000  0.4351520000000  0.4481520000000 1.0
C      1  0.3933900000000  0.5231240000000  0.5568440000000 1.0
C      1  0.4920990000000  0.4307690000000  0.5938010000000 1.0
C      1  0.5205170000000  0.6011910000000  0.5248180000000 1.0
C      1  0.4394910000000  0.5909680000000  0.5238860000000 1.0
C      1  0.5103360000000  0.4762710000000  0.4485540000000 1.0
C      1  0.5632180000000  0.5069730000000  0.3930160000000 1.0
C      1  0.4151890000000  0.4238070000000  0.5123280000000 1.0
C      1  0.5655800000000  0.5616930000000  0.5352040000000 1.0
C      1  0.5146530000000  0.4171920000000  0.4525960000000 1.0
C      1  0.5145670000000  0.4143470000000  0.5849960000000 1.0
C      1  0.4505380000000  0.4410600000000  0.4796530000000 1.0
C      1  0.5644560000000  0.5324650000000  0.5885130000000 1.0
C      1  0.5593930000000  0.5073950000000  0.4494610000000 1.0
C      1  0.4770800000000  0.5416950000000  0.5236990000000 1.0
C      1  0.4972600000000  0.5453630000000  0.5898100000000 1.0
C      1  0.5092350000000  0.4307460000000  0.4061200000000 1.0
C      1  0.4562160000000  0.5146390000000  0.6059690000000 1.0
C      1  0.5106710000000  0.5829360000000  0.5060250000000 1.0
C      1  0.5434700000000  0.5420440000000  0.5719060000000 1.0
C      1  0.6247830000000  0.5036280000000  0.4637420000000 1.0
C      1  0.4701450000000  0.4720990000000  0.3559510000000 1.0
C      1  0.5680430000000  0.4993580000000  0.5152570000000 1.0
C      1  0.5138010000000  0.6186250000000  0.4531320000000 1.0
C      1  0.5582180000000  0.5302180000000  0.4690940000000 1.0
C      1  0.4885330000000  0.4769350000000  0.4679050000000 1.0
C      1  0.4451040000000  0.6265770000000  0.4922660000000 1.0
C      1  0.5330600000000  0.4604550000000  0.5763540000000 1.0
C      1  0.5763380000000  0.5531230000000  0.4157640000000 1.0
C      1  0.4826470000000  0.5657610000000  0.4689180000000 1.0
C      1  0.6160200000000  0.5398510000000  0.5513150000000 1.0
C      1  0.5278510000000  0.3800010000000  0.5158270000000 1.0
C      1  0.4276190000000  0.4445530000000  0.5537830000000 1.0
C      1  0.5229560000000  0.4382540000000  0.4944860000000 1.0
C      1  0.5127180000000  0.5154790000000  0.6306450000000 1.0
C      1  0.4743440000000  0.4686690000000  0.5175820000000 1.0
C      1  0.5989630000000  0.4500480000000  0.5651110000000 1.0
C      1  0.4605200000000  0.5913180000000  0.5661530000000 1.0
C      1  0.4813120000000  0.6383740000000  0.5307140000000 1.0
C      1  0.5945970000000  0.5059130000000  0.5188620000000 1.0
C      1  0.4503540000000  0.5332420000000  0.5309540000000 1.0
C      1  0.4798720000000  0.5011180000000  0.5672310000000 1.0
C      1  0.6091000000000  0.4522670000000  0.5163510000000 1.0
C      1  0.4625620000000  0.5840310000000  0.5382070000000 1.0
END
