TITL C-627112-676-1193 2.55552255080873e-07 125000 -326.51786453451 0 0 56 (C1) n - 1
REM
REM in /home/nfs/bkarasulu/CARBON/AIRSS/Generating-Clusters/LCBOP/Only-C1/SD-CG/FIRE-CG
REM
REM
REM
REM
REM
REM ./C.cell (11c1c37f851c82e70ff6c80c92926a4b)
REM AIRSS Version 0.9.1 bugfix July 2018 build 013d7b7c2542+ Fri, 06 Jul 2018 19:26:36 +0100
REM compiler GCC version 9.2.1 20190827 (Red Hat 9.2.1-1)
REM options -cpp -mtune=generic -march=x86-64 -g -O0 -fpre-include=/usr/include/finclude/math-vector-fortran.h
REM seed -346875189 1067830311 -1563215043 -1383605433 -1114417795 -835034547 -71443009 1554127281 -270427406 2068195326 1109136333 1203256022 1846591911 -1048251276 -1443258474 1010814815 -836105065 -1387419838 871414997 826214539 -453547490 1550213301 -1732009874 1982434782 1107426641 -1074081231 384720871 1844414722 672235395 1530225870 -585364778 103335673 411942209
REM
CELL 1.54180   50.00000   50.00000   50.00000   90.00000   90.00000   90.00000
LATT -1
SFAC C  
C      1  0.5640890000000  0.4843500000000  0.4813330000000 1.0
C      1  0.5578060000000  0.4865520000000  0.5676780000000 1.0
C      1  0.5218110000000  0.5076160000000  0.4923070000000 1.0
C      1  0.5110060000000  0.5580170000000  0.4970770000000 1.0
C      1  0.5502710000000  0.5071630000000  0.4912930000000 1.0
C      1  0.4496160000000  0.5018460000000  0.5383130000000 1.0
C      1  0.5082960000000  0.4748520000000  0.5825630000000 1.0
C      1  0.4640680000000  0.4445120000000  0.4623550000000 1.0
C      1  0.4717040000000  0.5153220000000  0.4490980000000 1.0
C      1  0.4924800000000  0.5207080000000  0.5285370000000 1.0
C      1  0.5062740000000  0.4941700000000  0.5344150000000 1.0
C      1  0.4610360000000  0.4745110000000  0.5381130000000 1.0
C      1  0.4380920000000  0.4522620000000  0.4750020000000 1.0
C      1  0.4882100000000  0.4420160000000  0.4798370000000 1.0
C      1  0.5096120000000  0.4951310000000  0.5639760000000 1.0
C      1  0.4718130000000  0.5606850000000  0.5315890000000 1.0
C      1  0.5071100000000  0.5307300000000  0.5046660000000 1.0
C      1  0.5072900000000  0.4460760000000  0.5314690000000 1.0
C      1  0.5455440000000  0.5364020000000  0.5541940000000 1.0
C      1  0.5050600000000  0.4523060000000  0.5023140000000 1.0
C      1  0.5177830000000  0.5439790000000  0.5600360000000 1.0
C      1  0.5025240000000  0.4669090000000  0.4068580000000 1.0
C      1  0.5776700000000  0.4856470000000  0.4570140000000 1.0
C      1  0.4883450000000  0.5745580000000  0.4542330000000 1.0
C      1  0.4806970000000  0.4546670000000  0.4162290000000 1.0
C      1  0.4693710000000  0.5201360000000  0.5476510000000 1.0
C      1  0.5359970000000  0.4478140000000  0.5384670000000 1.0
C      1  0.4523600000000  0.5046000000000  0.4310210000000 1.0
C      1  0.5155200000000  0.4900620000000  0.4100150000000 1.0
C      1  0.5889670000000  0.4872940000000  0.4335870000000 1.0
C      1  0.5533740000000  0.4452890000000  0.5159060000000 1.0
C      1  0.4406290000000  0.4515450000000  0.5024780000000 1.0
C      1  0.4930040000000  0.5715200000000  0.4803320000000 1.0
C      1  0.5121620000000  0.5135770000000  0.4222390000000 1.0
C      1  0.4615090000000  0.4570640000000  0.4362850000000 1.0
C      1  0.4779330000000  0.4877320000000  0.4944990000000 1.0
C      1  0.4918440000000  0.5565710000000  0.4347500000000 1.0
C      1  0.5632980000000  0.4603950000000  0.4961330000000 1.0
C      1  0.5481260000000  0.4627120000000  0.5594330000000 1.0
C      1  0.4390410000000  0.5170030000000  0.5131090000000 1.0
C      1  0.5588070000000  0.5405590000000  0.5296670000000 1.0
C      1  0.4600670000000  0.4698510000000  0.5102010000000 1.0
C      1  0.5631170000000  0.5268920000000  0.5068890000000 1.0
C      1  0.4422740000000  0.4793860000000  0.4383700000000 1.0
C      1  0.4512690000000  0.5462170000000  0.5178530000000 1.0
C      1  0.4761480000000  0.5255790000000  0.5746980000000 1.0
C      1  0.4931960000000  0.5286750000000  0.4362290000000 1.0
C      1  0.5065050000000  0.4832800000000  0.5037280000000 1.0
C      1  0.4966270000000  0.5612090000000  0.5460860000000 1.0
C      1  0.4826580000000  0.4553750000000  0.5463090000000 1.0
C      1  0.5328290000000  0.5727510000000  0.5047980000000 1.0
C      1  0.5560540000000  0.5135100000000  0.5681860000000 1.0
C      1  0.4377520000000  0.5041710000000  0.4840880000000 1.0
C      1  0.4298960000000  0.4794300000000  0.4656920000000 1.0
C      1  0.5046310000000  0.5222280000000  0.5747330000000 1.0
C      1  0.4668270000000  0.5065870000000  0.4760660000000 1.0
END
