TITL C-627108-131-1917 246224.819172851 125000 -1207.64831253962 0 0 198 (C1) n - 1
REM
REM in /home/nfs/bkarasulu/CARBON/AIRSS/Generating-Clusters/LCBOP/Only-C1/SD-CG/FIRE-CG
REM
REM
REM
REM
REM
REM ./C.cell (11c1c37f851c82e70ff6c80c92926a4b)
REM AIRSS Version 0.9.1 bugfix July 2018 build 013d7b7c2542+ Fri, 06 Jul 2018 19:26:36 +0100
REM compiler GCC version 9.2.1 20190827 (Red Hat 9.2.1-1)
REM options -cpp -mtune=generic -march=x86-64 -g -O0 -fpre-include=/usr/include/finclude/math-vector-fortran.h
REM seed -1988600227 2056929318 -168944694 -1689951976 -2080604910 1600615685 2075488055 -1165947226 366250830 -517069366 1376803122 -1968829342 517879458 -666069188 -1940229476 336309005 -755788494 -1569780971 1374798476 -2116613923 -2050084066 1925193098 -460707252 1530303291 -109849732 -331318187 -124932110 -2018712442 -1070392918 -1514454048 -1802133617 -144916982 2032473080
REM
CELL 1.54180   50.00000   50.00000   50.00000   90.00000   90.00000   90.00000
LATT -1
SFAC C  
C      1  0.4728000000000  0.3914180000000  0.5041920000000 1.0
C      1  0.5017340000000  0.4920830000000  0.4144980000000 1.0
C      1  0.5519130000000  0.4553130000000  0.3990350000000 1.0
C      1  0.5822120000000  0.5060350000000  0.5542840000000 1.0
C      1  0.5117990000000  0.4347730000000  0.4632760000000 1.0
C      1  0.5410770000000  0.5967030000000  0.4824000000000 1.0
C      1  0.4635380000000  0.3868360000000  0.5572740000000 1.0
C      1  0.3738630000000  0.4902560000000  0.4932280000000 1.0
C      1  0.4391130000000  0.5522970000000  0.5839000000000 1.0
C      1  0.5265480000000  0.4727980000000  0.5667220000000 1.0
C      1  0.5777430000000  0.5399680000000  0.5220060000000 1.0
C      1  0.6307810000000  0.5195500000000  0.4564200000000 1.0
C      1  0.4099090000000  0.5341790000000  0.4145920000000 1.0
C      1  0.3983670000000  0.4714240000000  0.5395480000000 1.0
C      1  0.4443460000000  0.4384770000000  0.4040030000000 1.0
C      1  0.4939580000000  0.5456690000000  0.4707950000000 1.0
C      1  0.5715170000000  0.4387630000000  0.4413480000000 1.0
C      1  0.5881610000000  0.5903490000000  0.4757780000000 1.0
C      1  0.5150560000000  0.5249420000000  0.4642440000000 1.0
C      1  0.6325220000000  0.5315300000000  0.4810920000000 1.0
C      1  0.5264090000000  0.5597590000000  0.5183140000000 1.0
C      1  0.4215790000000  0.4644470000000  0.5543240000000 1.0
C      1  0.6167520000000  0.5539580000000  0.4889010000000 1.0
C      1  0.5230700000000  0.5135000000000  0.6247850000000 1.0
C      1  0.6140890000000  0.5605240000000  0.4404160000000 1.0
C      1  0.4951270000000  0.4178250000000  0.4219470000000 1.0
C      1  0.5173860000000  0.5304700000000  0.3757570000000 1.0
C      1  0.5818180000000  0.5105660000000  0.5258870000000 1.0
C      1  0.5434950000000  0.5285550000000  0.5773450000000 1.0
C      1  0.5633260000000  0.5336270000000  0.4755330000000 1.0
C      1  0.5630350000000  0.4823120000000  0.4051610000000 1.0
C      1  0.4388880000000  0.5843650000000  0.4045500000000 1.0
C      1  0.6281380000000  0.4981370000000  0.5583950000000 1.0
C      1  0.5499240000000  0.4138600000000  0.5482850000000 1.0
C      1  0.5795440000000  0.4217160000000  0.4621670000000 1.0
C      1  0.4109830000000  0.5917660000000  0.5025070000000 1.0
C      1  0.5086910000000  0.5840780000000  0.4231420000000 1.0
C      1  0.4791480000000  0.4305400000000  0.4003730000000 1.0
C      1  0.5858150000000  0.5187710000000  0.4819580000000 1.0
C      1  0.4091720000000  0.4208750000000  0.4869910000000 1.0
C      1  0.4888800000000  0.3854910000000  0.5701740000000 1.0
C      1  0.5230990000000  0.5418110000000  0.6178240000000 1.0
C      1  0.5662660000000  0.5507360000000  0.4546180000000 1.0
C      1  0.5100610000000  0.5851410000000  0.5786060000000 1.0
C      1  0.5443090000000  0.4014060000000  0.4331910000000 1.0
C      1  0.5120520000000  0.4073810000000  0.6053470000000 1.0
C      1  0.5726220000000  0.4804400000000  0.4542140000000 1.0
C      1  0.3900950000000  0.5005630000000  0.5403220000000 1.0
C      1  0.5388470000000  0.5222970000000  0.4819420000000 1.0
C      1  0.5359890000000  0.5760610000000  0.4211160000000 1.0
C      1  0.5914160000000  0.4456040000000  0.4860320000000 1.0
C      1  0.4468570000000  0.4605080000000  0.5401960000000 1.0
C      1  0.5056050000000  0.4577660000000  0.5777320000000 1.0
C      1  0.5625500000000  0.5962990000000  0.4637120000000 1.0
C      1  0.4376320000000  0.5222290000000  0.6231030000000 1.0
C      1  0.4668040000000  0.4811070000000  0.5478630000000 1.0
C      1  0.3877810000000  0.5084730000000  0.5120220000000 1.0
C      1  0.4895210000000  0.4284990000000  0.4473460000000 1.0
C      1  0.4884010000000  0.5728250000000  0.5966570000000 1.0
C      1  0.4060780000000  0.5683800000000  0.5475900000000 1.0
C      1  0.4993920000000  0.5582650000000  0.6189030000000 1.0
C      1  0.5562870000000  0.4809350000000  0.6358630000000 1.0
C      1  0.5415780000000  0.4927920000000  0.6155840000000 1.0
C      1  0.4337370000000  0.4623190000000  0.3915180000000 1.0
C      1  0.4141780000000  0.5119190000000  0.3993330000000 1.0
C      1  0.4614430000000  0.5721330000000  0.5822580000000 1.0
C      1  0.5021320000000  0.4213500000000  0.6277850000000 1.0
C      1  0.3967930000000  0.4657690000000  0.4338920000000 1.0
C      1  0.4957290000000  0.5227320000000  0.4164100000000 1.0
C      1  0.4916510000000  0.4634690000000  0.3355990000000 1.0
C      1  0.4229760000000  0.4873740000000  0.3915200000000 1.0
C      1  0.5970170000000  0.5583080000000  0.5103370000000 1.0
C      1  0.5130850000000  0.5117260000000  0.5440530000000 1.0
C      1  0.5245420000000  0.4151030000000  0.4166020000000 1.0
C      1  0.4697600000000  0.4779690000000  0.4955460000000 1.0
C      1  0.5520800000000  0.4091800000000  0.5763650000000 1.0
C      1  0.5788410000000  0.4932790000000  0.4282910000000 1.0
C      1  0.5509730000000  0.5487430000000  0.5267560000000 1.0
C      1  0.3946480000000  0.6140770000000  0.5020670000000 1.0
C      1  0.4276070000000  0.4784800000000  0.5780270000000 1.0
C      1  0.5227150000000  0.4778980000000  0.5110500000000 1.0
C      1  0.4368580000000  0.4256340000000  0.5853540000000 1.0
C      1  0.4846140000000  0.5800310000000  0.4372310000000 1.0
C      1  0.5426200000000  0.5459520000000  0.4155660000000 1.0
C      1  0.5294340000000  0.5831530000000  0.5023280000000 1.0
C      1  0.5290450000000  0.4371340000000  0.3966780000000 1.0
C      1  0.5263410000000  0.4572610000000  0.4514370000000 1.0
C      1  0.4530270000000  0.5696000000000  0.3871160000000 1.0
C      1  0.5878550000000  0.5859980000000  0.5051550000000 1.0
C      1  0.4207670000000  0.5840920000000  0.5287890000000 1.0
C      1  0.4715830000000  0.4887410000000  0.5762700000000 1.0
C      1  0.4854430000000  0.5557810000000  0.4952700000000 1.0
C      1  0.5606040000000  0.5062210000000  0.5727300000000 1.0
C      1  0.6092410000000  0.5721910000000  0.4661470000000 1.0
C      1  0.5016370000000  0.4410820000000  0.3834110000000 1.0
C      1  0.4920290000000  0.5222020000000  0.5291670000000 1.0
C      1  0.5548110000000  0.5918690000000  0.4364750000000 1.0
C      1  0.5539630000000  0.4593490000000  0.4482520000000 1.0
C      1  0.4808140000000  0.4385610000000  0.6280380000000 1.0
C      1  0.6643830000000  0.4744200000000  0.5379570000000 1.0
C      1  0.5891270000000  0.5204680000000  0.4268990000000 1.0
C      1  0.5686710000000  0.5405330000000  0.4286280000000 1.0
C      1  0.3953010000000  0.4544830000000  0.5164240000000 1.0
C      1  0.4319660000000  0.5271380000000  0.4552050000000 1.0
C      1  0.5204770000000  0.5314920000000  0.4333540000000 1.0
C      1  0.6039820000000  0.5424860000000  0.5752480000000 1.0
C      1  0.5336710000000  0.3976690000000  0.4882860000000 1.0
C      1  0.4703790000000  0.5150440000000  0.5871300000000 1.0
C      1  0.5037260000000  0.5053190000000  0.6427920000000 1.0
C      1  0.4680730000000  0.5072310000000  0.5343380000000 1.0
C      1  0.5872870000000  0.5640650000000  0.5773720000000 1.0
C      1  0.5660460000000  0.3971300000000  0.4534230000000 1.0
C      1  0.4382620000000  0.5896700000000  0.4324460000000 1.0
C      1  0.4434100000000  0.5181770000000  0.5423990000000 1.0
C      1  0.6204890000000  0.4577160000000  0.5283490000000 1.0
C      1  0.4210690000000  0.5733060000000  0.4491140000000 1.0
C      1  0.4845990000000  0.4697500000000  0.5918960000000 1.0
C      1  0.5331240000000  0.3921800000000  0.5903560000000 1.0
C      1  0.5745150000000  0.3721450000000  0.4606790000000 1.0
C      1  0.4289070000000  0.5319710000000  0.5226150000000 1.0
C      1  0.4915010000000  0.4131800000000  0.5030380000000 1.0
C      1  0.4941320000000  0.5287810000000  0.5825840000000 1.0
C      1  0.4748220000000  0.6075200000000  0.4917350000000 1.0
C      1  0.4673340000000  0.4551470000000  0.6091330000000 1.0
C      1  0.5394200000000  0.5005740000000  0.5000300000000 1.0
C      1  0.5196340000000  0.4925890000000  0.3905720000000 1.0
C      1  0.4657550000000  0.5887030000000  0.5587250000000 1.0
C      1  0.4939390000000  0.5353900000000  0.3892740000000 1.0
C      1  0.6070050000000  0.5155940000000  0.5653730000000 1.0
C      1  0.4529410000000  0.5135990000000  0.4409090000000 1.0
C      1  0.4976070000000  0.4823690000000  0.4918500000000 1.0
C      1  0.5172280000000  0.5247320000000  0.5677240000000 1.0
C      1  0.4457110000000  0.5925520000000  0.5393790000000 1.0
C      1  0.5660080000000  0.4570310000000  0.5899690000000 1.0
C      1  0.3945520000000  0.4364680000000  0.4685750000000 1.0
C      1  0.4442680000000  0.4172170000000  0.4469050000000 1.0
C      1  0.4635600000000  0.3828250000000  0.5294640000000 1.0
C      1  0.5041460000000  0.4961950000000  0.4661140000000 1.0
C      1  0.5420770000000  0.5305270000000  0.3893390000000 1.0
C      1  0.4887460000000  0.4329950000000  0.5216040000000 1.0
C      1  0.5654490000000  0.4301630000000  0.5899150000000 1.0
C      1  0.4888380000000  0.6214760000000  0.5118460000000 1.0
C      1  0.5868090000000  0.4965610000000  0.4999860000000 1.0
C      1  0.4728100000000  0.5315490000000  0.4324160000000 1.0
C      1  0.4162550000000  0.5798640000000  0.4768220000000 1.0
C      1  0.4561370000000  0.4643540000000  0.4534250000000 1.0
C      1  0.5368020000000  0.4513970000000  0.5129140000000 1.0
C      1  0.4635010000000  0.5984670000000  0.4431190000000 1.0
C      1  0.4978900000000  0.4513470000000  0.3578100000000 1.0
C      1  0.5490370000000  0.4817050000000  0.5863590000000 1.0
C      1  0.4671580000000  0.6151460000000  0.4656690000000 1.0
C      1  0.4414110000000  0.4400830000000  0.5212280000000 1.0
C      1  0.4573370000000  0.4854690000000  0.4341570000000 1.0
C      1  0.4465450000000  0.3925680000000  0.4595520000000 1.0
C      1  0.3825980000000  0.4625940000000  0.4920190000000 1.0
C      1  0.5112010000000  0.4804130000000  0.4428540000000 1.0
C      1  0.4023590000000  0.4386310000000  0.4398080000000 1.0
C      1  0.4594690000000  0.3831730000000  0.4809770000000 1.0
C      1  0.4441430000000  0.4037120000000  0.5708020000000 1.0
C      1  0.3536110000000  0.5000880000000  0.4767370000000 1.0
C      1  0.4800780000000  0.5540020000000  0.4476960000000 1.0
C      1  0.4934680000000  0.4105760000000  0.5833110000000 1.0
C      1  0.5405190000000  0.5495990000000  0.5963800000000 1.0
C      1  0.4482770000000  0.5289230000000  0.5988430000000 1.0
C      1  0.5648320000000  0.5821170000000  0.5721360000000 1.0
C      1  0.4156370000000  0.4341730000000  0.5111500000000 1.0
C      1  0.5844990000000  0.4739030000000  0.4809000000000 1.0
C      1  0.5154810000000  0.3734060000000  0.5741700000000 1.0
C      1  0.4937300000000  0.5977290000000  0.5572330000000 1.0
C      1  0.5136090000000  0.4159080000000  0.4850270000000 1.0
C      1  0.4717200000000  0.5798650000000  0.4966700000000 1.0
C      1  0.4413760000000  0.4520650000000  0.5965620000000 1.0
C      1  0.4025950000000  0.5196110000000  0.5620250000000 1.0
C      1  0.4989510000000  0.6157790000000  0.5362690000000 1.0
C      1  0.4725560000000  0.5520010000000  0.3820940000000 1.0
C      1  0.5385360000000  0.5757570000000  0.5833170000000 1.0
C      1  0.4227800000000  0.4879830000000  0.4745340000000 1.0
C      1  0.4120850000000  0.5485520000000  0.5675440000000 1.0
C      1  0.4107480000000  0.5235800000000  0.5029840000000 1.0
C      1  0.4986720000000  0.4329300000000  0.5680460000000 1.0
C      1  0.5461980000000  0.5014910000000  0.3926250000000 1.0
C      1  0.4054890000000  0.4830360000000  0.4523950000000 1.0
C      1  0.4225010000000  0.5159230000000  0.4789680000000 1.0
C      1  0.4742880000000  0.4811280000000  0.4120350000000 1.0
C      1  0.5214410000000  0.4853860000000  0.5410880000000 1.0
C      1  0.4284880000000  0.5059520000000  0.5661570000000 1.0
C      1  0.4637690000000  0.4371300000000  0.4524430000000 1.0
C      1  0.6372350000000  0.4765860000000  0.5419170000000 1.0
C      1  0.3387980000000  0.5121660000000  0.4590150000000 1.0
C      1  0.6078830000000  0.4432930000000  0.5090810000000 1.0
C      1  0.5002750000000  0.5467040000000  0.5170710000000 1.0
C      1  0.5787420000000  0.6017720000000  0.5263330000000 1.0
C      1  0.5462580000000  0.4311290000000  0.5279720000000 1.0
C      1  0.4176690000000  0.5460360000000  0.4396440000000 1.0
C      1  0.4475510000000  0.4744240000000  0.4783880000000 1.0
C      1  0.6143980000000  0.5314560000000  0.4361870000000 1.0
C      1  0.4268900000000  0.4276930000000  0.4268860000000 1.0
C      1  0.5687110000000  0.6004030000000  0.5511250000000 1.0
END
