TITL C-627113-6568-385 -2.27334614198668e-07 125000 -866.725396308609 0 0 142 (C1) n - 1
REM
REM in /home/nfs/bkarasulu/CARBON/AIRSS/Generating-Clusters/LCBOP/Only-C1/SD-CG/FIRE-CG
REM
REM
REM
REM
REM
REM ./C.cell (11c1c37f851c82e70ff6c80c92926a4b)
REM AIRSS Version 0.9.1 bugfix July 2018 build 013d7b7c2542+ Fri, 06 Jul 2018 19:26:36 +0100
REM compiler GCC version 9.2.1 20190827 (Red Hat 9.2.1-1)
REM options -cpp -mtune=generic -march=x86-64 -g -O0 -fpre-include=/usr/include/finclude/math-vector-fortran.h
REM seed 1725848314 -893264345 -1971189261 -1715278412 628028309 -98076003 1672055177 678354772 -1420960697 1580003484 522421309 -1427480056 579506983 -2105559839 865587103 -61844714 -1619064367 1196867921 -191663255 1242449382 2005722478 -979336927 -687505681 1461715251 217565724 427103927 -1911369880 -739358276 2017879381 -1449279682 402646485 -1218448837 -474623473
REM
CELL 1.54180   50.00000   50.00000   50.00000   90.00000   90.00000   90.00000
LATT -1
SFAC C  
C      1  0.5180850000000  0.5457290000000  0.4626450000000 1.0
C      1  0.5441280000000  0.4195690000000  0.5822830000000 1.0
C      1  0.4416240000000  0.5743000000000  0.5998720000000 1.0
C      1  0.3935720000000  0.4788170000000  0.5433120000000 1.0
C      1  0.5463320000000  0.4694540000000  0.5387100000000 1.0
C      1  0.4506090000000  0.4802770000000  0.5978050000000 1.0
C      1  0.4485210000000  0.5783550000000  0.5049030000000 1.0
C      1  0.5915420000000  0.4568510000000  0.5533080000000 1.0
C      1  0.5820770000000  0.4835370000000  0.4295170000000 1.0
C      1  0.5998940000000  0.4690760000000  0.5271160000000 1.0
C      1  0.4641990000000  0.4553980000000  0.5943470000000 1.0
C      1  0.5427200000000  0.5830810000000  0.4937240000000 1.0
C      1  0.4454080000000  0.4772560000000  0.5209390000000 1.0
C      1  0.5484710000000  0.4062020000000  0.5575150000000 1.0
C      1  0.5559300000000  0.5845420000000  0.5190330000000 1.0
C      1  0.4205380000000  0.4107610000000  0.5315500000000 1.0
C      1  0.4786170000000  0.5390420000000  0.4949630000000 1.0
C      1  0.4993540000000  0.4586230000000  0.4651360000000 1.0
C      1  0.4579660000000  0.4764840000000  0.4079310000000 1.0
C      1  0.4676780000000  0.5949850000000  0.4139540000000 1.0
C      1  0.3939430000000  0.4500120000000  0.5367490000000 1.0
C      1  0.4077870000000  0.4224110000000  0.4713580000000 1.0
C      1  0.4507730000000  0.5540550000000  0.5862550000000 1.0
C      1  0.5622830000000  0.4365590000000  0.4646220000000 1.0
C      1  0.4718670000000  0.5874900000000  0.5232120000000 1.0
C      1  0.5018820000000  0.5476520000000  0.5047510000000 1.0
C      1  0.5594740000000  0.5265800000000  0.4217240000000 1.0
C      1  0.4139460000000  0.5238690000000  0.4447490000000 1.0
C      1  0.5332000000000  0.4706990000000  0.5631320000000 1.0
C      1  0.4376060000000  0.4443200000000  0.4376780000000 1.0
C      1  0.4088380000000  0.5420490000000  0.4960200000000 1.0
C      1  0.5817690000000  0.4361550000000  0.4870240000000 1.0
C      1  0.4932020000000  0.5040560000000  0.4200690000000 1.0
C      1  0.5290150000000  0.5691910000000  0.4750590000000 1.0
C      1  0.4618490000000  0.4511010000000  0.4225050000000 1.0
C      1  0.5277630000000  0.5398490000000  0.5984020000000 1.0
C      1  0.4963360000000  0.4500950000000  0.5249560000000 1.0
C      1  0.3864370000000  0.4477210000000  0.5083020000000 1.0
C      1  0.4852940000000  0.6083140000000  0.5071960000000 1.0
C      1  0.4889820000000  0.5329850000000  0.3866770000000 1.0
C      1  0.5003850000000  0.5612590000000  0.4204650000000 1.0
C      1  0.4040530000000  0.4851500000000  0.5691950000000 1.0
C      1  0.6272090000000  0.4968540000000  0.4736690000000 1.0
C      1  0.5586830000000  0.4971680000000  0.4198080000000 1.0
C      1  0.5120510000000  0.6038500000000  0.4353130000000 1.0
C      1  0.4911130000000  0.4974670000000  0.5189140000000 1.0
C      1  0.4944690000000  0.5887290000000  0.4189580000000 1.0
C      1  0.4048030000000  0.4701340000000  0.4692980000000 1.0
C      1  0.3927800000000  0.4936570000000  0.5171090000000 1.0
C      1  0.5392280000000  0.4410180000000  0.4467120000000 1.0
C      1  0.5475620000000  0.5382250000000  0.5177650000000 1.0
C      1  0.4841800000000  0.5185960000000  0.5792610000000 1.0
C      1  0.4975620000000  0.5456590000000  0.4437430000000 1.0
C      1  0.5738120000000  0.5293720000000  0.5665240000000 1.0
C      1  0.5754120000000  0.4078830000000  0.5479170000000 1.0
C      1  0.5423610000000  0.5469650000000  0.4081510000000 1.0
C      1  0.5030790000000  0.4337510000000  0.4810140000000 1.0
C      1  0.4432040000000  0.5358540000000  0.5259520000000 1.0
C      1  0.4578800000000  0.5236220000000  0.5052680000000 1.0
C      1  0.3952990000000  0.5211620000000  0.5107950000000 1.0
C      1  0.5651570000000  0.4871460000000  0.4732050000000 1.0
C      1  0.4999110000000  0.5041660000000  0.5613140000000 1.0
C      1  0.5339940000000  0.4824200000000  0.4227960000000 1.0
C      1  0.5130610000000  0.5455920000000  0.3993260000000 1.0
C      1  0.3926890000000  0.4736830000000  0.4953090000000 1.0
C      1  0.5991680000000  0.4586680000000  0.4980000000000 1.0
C      1  0.4797890000000  0.6045290000000  0.4790770000000 1.0
C      1  0.4458840000000  0.4478110000000  0.5094840000000 1.0
C      1  0.5391080000000  0.5967010000000  0.4287010000000 1.0
C      1  0.4475690000000  0.5038940000000  0.4067380000000 1.0
C      1  0.5330510000000  0.5212690000000  0.4658470000000 1.0
C      1  0.5491450000000  0.5746120000000  0.4158090000000 1.0
C      1  0.4727670000000  0.4667770000000  0.4693870000000 1.0
C      1  0.5158990000000  0.4025550000000  0.5138870000000 1.0
C      1  0.4297080000000  0.5569990000000  0.5113570000000 1.0
C      1  0.4656690000000  0.4453630000000  0.5677370000000 1.0
C      1  0.5056750000000  0.5144860000000  0.5359680000000 1.0
C      1  0.3855820000000  0.4265400000000  0.4893790000000 1.0
C      1  0.6230600000000  0.5204650000000  0.4608390000000 1.0
C      1  0.6087100000000  0.4755380000000  0.4755510000000 1.0
C      1  0.5100640000000  0.4099520000000  0.4652550000000 1.0
C      1  0.5852190000000  0.4108980000000  0.4992880000000 1.0
C      1  0.4885430000000  0.4547210000000  0.5524330000000 1.0
C      1  0.5567700000000  0.5599730000000  0.5334470000000 1.0
C      1  0.4437650000000  0.4923370000000  0.5481990000000 1.0
C      1  0.6005760000000  0.4977070000000  0.5354270000000 1.0
C      1  0.5909770000000  0.4292670000000  0.5575460000000 1.0
C      1  0.4487940000000  0.5761220000000  0.4238720000000 1.0
C      1  0.5147930000000  0.4231930000000  0.4392010000000 1.0
C      1  0.4361360000000  0.4195080000000  0.5100160000000 1.0
C      1  0.5024790000000  0.4741490000000  0.5103430000000 1.0
C      1  0.5646770000000  0.5259890000000  0.4987230000000 1.0
C      1  0.4101100000000  0.5375620000000  0.4677640000000 1.0
C      1  0.4135370000000  0.4322660000000  0.5485980000000 1.0
C      1  0.5288790000000  0.3983590000000  0.5384900000000 1.0
C      1  0.5867960000000  0.4796440000000  0.4570160000000 1.0
C      1  0.5054910000000  0.4759290000000  0.5639340000000 1.0
C      1  0.4556150000000  0.5874420000000  0.4770770000000 1.0
C      1  0.4449170000000  0.5786740000000  0.4521680000000 1.0
C      1  0.5118860000000  0.4897420000000  0.4078110000000 1.0
C      1  0.5791420000000  0.4776110000000  0.5720290000000 1.0
C      1  0.5499890000000  0.4424780000000  0.5957880000000 1.0
C      1  0.6034440000000  0.5342460000000  0.4483180000000 1.0
C      1  0.4477810000000  0.5527080000000  0.4075050000000 1.0
C      1  0.5668400000000  0.6076440000000  0.5285150000000 1.0
C      1  0.4606420000000  0.5323960000000  0.5718230000000 1.0
C      1  0.5856200000000  0.5042910000000  0.5601810000000 1.0
C      1  0.5178150000000  0.3913670000000  0.4864480000000 1.0
C      1  0.4638600000000  0.5123020000000  0.4557250000000 1.0
C      1  0.5084290000000  0.5691860000000  0.5616480000000 1.0
C      1  0.4900890000000  0.5110380000000  0.6066300000000 1.0
C      1  0.5193800000000  0.5141380000000  0.6085270000000 1.0
C      1  0.5823640000000  0.3981490000000  0.5225840000000 1.0
C      1  0.5680210000000  0.4977420000000  0.5005770000000 1.0
C      1  0.4515770000000  0.4969330000000  0.4990140000000 1.0
C      1  0.4156150000000  0.4462300000000  0.4563370000000 1.0
C      1  0.4290540000000  0.4088630000000  0.4844560000000 1.0
C      1  0.4997300000000  0.6288650000000  0.5177390000000 1.0
C      1  0.5564540000000  0.5518090000000  0.5608550000000 1.0
C      1  0.5028570000000  0.4279850000000  0.5092920000000 1.0
C      1  0.5385760000000  0.4924110000000  0.6056250000000 1.0
C      1  0.4251630000000  0.5100950000000  0.4242580000000 1.0
C      1  0.4466660000000  0.5217230000000  0.5495800000000 1.0
C      1  0.5256260000000  0.4690420000000  0.4497180000000 1.0
C      1  0.5751800000000  0.5349900000000  0.4459350000000 1.0
C      1  0.5310020000000  0.5556470000000  0.5747720000000 1.0
C      1  0.5490920000000  0.4818090000000  0.5145980000000 1.0
C      1  0.4840960000000  0.5213920000000  0.4398140000000 1.0
C      1  0.4322660000000  0.4856430000000  0.5750420000000 1.0
C      1  0.4875550000000  0.5773090000000  0.5455450000000 1.0
C      1  0.5264690000000  0.4793640000000  0.4970800000000 1.0
C      1  0.5197070000000  0.5337590000000  0.5213560000000 1.0
C      1  0.4605440000000  0.4912360000000  0.4728500000000 1.0
C      1  0.5606310000000  0.5321290000000  0.4705240000000 1.0
C      1  0.4885770000000  0.4352530000000  0.4256060000000 1.0
C      1  0.4608570000000  0.5289160000000  0.3967360000000 1.0
C      1  0.4586650000000  0.4477950000000  0.4839190000000 1.0
C      1  0.4992170000000  0.6115590000000  0.4595220000000 1.0
C      1  0.4660150000000  0.4977710000000  0.6149090000000 1.0
C      1  0.4387520000000  0.4383940000000  0.5608960000000 1.0
C      1  0.5346280000000  0.4897670000000  0.4695720000000 1.0
C      1  0.5517550000000  0.4714880000000  0.5870010000000 1.0
END
