TITL C-627113-6568-219 155025.265786734 125000 -963.237759783492 0 0 160 (C1) n - 1
REM
REM in /home/nfs/bkarasulu/CARBON/AIRSS/Generating-Clusters/LCBOP/Only-C1/SD-CG/FIRE-CG
REM
REM
REM
REM
REM
REM ./C.cell (11c1c37f851c82e70ff6c80c92926a4b)
REM AIRSS Version 0.9.1 bugfix July 2018 build 013d7b7c2542+ Fri, 06 Jul 2018 19:26:36 +0100
REM compiler GCC version 9.2.1 20190827 (Red Hat 9.2.1-1)
REM options -cpp -mtune=generic -march=x86-64 -g -O0 -fpre-include=/usr/include/finclude/math-vector-fortran.h
REM seed 1910184866 1576499119 -55855125 563937953 -1767925204 1979864212 766106144 -557084284 -962704719 571860660 -1635712424 859959377 1153093722 47073855 1693067452 -2042306763 -942296592 -667379658 -1340492023 -2026906965 456503181 950617060 2065130298 1189703149 2118136679 283741414 -2020727514 -302075984 -243381667 -1374790642 -1076365719 -955593773 -1889911327
REM
CELL 1.54180   50.00000   50.00000   50.00000   90.00000   90.00000   90.00000
LATT -1
SFAC C  
C      1  0.5073050000000  0.5183950000000  0.4526870000000 1.0
C      1  0.4736540000000  0.5697720000000  0.5048880000000 1.0
C      1  0.4134550000000  0.5400030000000  0.4971030000000 1.0
C      1  0.4545620000000  0.5428680000000  0.4624870000000 1.0
C      1  0.5385860000000  0.4502630000000  0.5207260000000 1.0
C      1  0.5746170000000  0.5443350000000  0.4507450000000 1.0
C      1  0.4808280000000  0.5091210000000  0.4492540000000 1.0
C      1  0.5022130000000  0.5986540000000  0.5297120000000 1.0
C      1  0.4057750000000  0.5022850000000  0.4663850000000 1.0
C      1  0.5284110000000  0.4006650000000  0.4341030000000 1.0
C      1  0.4930330000000  0.5563070000000  0.3930530000000 1.0
C      1  0.4849040000000  0.3788670000000  0.4929450000000 1.0
C      1  0.5024030000000  0.4513900000000  0.5944430000000 1.0
C      1  0.5735830000000  0.4364270000000  0.6052920000000 1.0
C      1  0.4511530000000  0.4723150000000  0.5963160000000 1.0
C      1  0.5964950000000  0.4300560000000  0.4421790000000 1.0
C      1  0.4840710000000  0.4048010000000  0.4522390000000 1.0
C      1  0.4447580000000  0.5487730000000  0.4136740000000 1.0
C      1  0.4221870000000  0.5079670000000  0.4430790000000 1.0
C      1  0.4448770000000  0.4614590000000  0.4232690000000 1.0
C      1  0.4908570000000  0.5226640000000  0.6158340000000 1.0
C      1  0.4611160000000  0.4727040000000  0.5360990000000 1.0
C      1  0.5546850000000  0.5051770000000  0.5876330000000 1.0
C      1  0.5150220000000  0.4786810000000  0.4190610000000 1.0
C      1  0.5980780000000  0.5019330000000  0.5217260000000 1.0
C      1  0.4722790000000  0.4496010000000  0.4211590000000 1.0
C      1  0.5012600000000  0.5755670000000  0.5116350000000 1.0
C      1  0.5504480000000  0.6060900000000  0.4632390000000 1.0
C      1  0.4139980000000  0.5657040000000  0.5342260000000 1.0
C      1  0.5170370000000  0.5288180000000  0.6069690000000 1.0
C      1  0.5502350000000  0.5000850000000  0.5109650000000 1.0
C      1  0.4289340000000  0.4579040000000  0.5845780000000 1.0
C      1  0.5119690000000  0.5467260000000  0.4460700000000 1.0
C      1  0.5665490000000  0.4115790000000  0.5289630000000 1.0
C      1  0.4228910000000  0.4452690000000  0.4198310000000 1.0
C      1  0.4249410000000  0.5846650000000  0.4807480000000 1.0
C      1  0.4105300000000  0.4687890000000  0.5653570000000 1.0
C      1  0.4744520000000  0.5093530000000  0.4985000000000 1.0
C      1  0.5284070000000  0.4147510000000  0.6038740000000 1.0
C      1  0.5126280000000  0.4850110000000  0.4873490000000 1.0
C      1  0.3961960000000  0.4513340000000  0.4801960000000 1.0
C      1  0.5162970000000  0.5667810000000  0.4690650000000 1.0
C      1  0.5409450000000  0.4379740000000  0.4057100000000 1.0
C      1  0.6001540000000  0.5047560000000  0.4323300000000 1.0
C      1  0.4673090000000  0.3957700000000  0.4763000000000 1.0
C      1  0.5557040000000  0.5919320000000  0.4385420000000 1.0
C      1  0.4850500000000  0.5813610000000  0.5863010000000 1.0
C      1  0.5549420000000  0.5162160000000  0.6357320000000 1.0
C      1  0.5456270000000  0.4847240000000  0.4549370000000 1.0
C      1  0.5204760000000  0.5970820000000  0.5510360000000 1.0
C      1  0.6059440000000  0.5247960000000  0.5045620000000 1.0
C      1  0.5242160000000  0.4044480000000  0.5061380000000 1.0
C      1  0.4143620000000  0.5686010000000  0.5038880000000 1.0
C      1  0.4538350000000  0.4764650000000  0.4738180000000 1.0
C      1  0.4779070000000  0.4642990000000  0.5916960000000 1.0
C      1  0.5174230000000  0.4633590000000  0.5369440000000 1.0
C      1  0.5198550000000  0.5619870000000  0.4965630000000 1.0
C      1  0.5172180000000  0.5452660000000  0.5844560000000 1.0
C      1  0.5012530000000  0.5918510000000  0.4629260000000 1.0
C      1  0.4426660000000  0.4582200000000  0.5168870000000 1.0
C      1  0.4662180000000  0.5044410000000  0.4258560000000 1.0
C      1  0.4502530000000  0.4956520000000  0.5527570000000 1.0
C      1  0.4086060000000  0.4286880000000  0.4945340000000 1.0
C      1  0.3973680000000  0.5262780000000  0.4791880000000 1.0
C      1  0.4663630000000  0.5518600000000  0.3966710000000 1.0
C      1  0.5400920000000  0.4818410000000  0.5785630000000 1.0
C      1  0.3739350000000  0.3997130000000  0.4748050000000 1.0
C      1  0.4301790000000  0.5267800000000  0.5164390000000 1.0
C      1  0.5199090000000  0.5635420000000  0.4001720000000 1.0
C      1  0.4471700000000  0.6054420000000  0.4837040000000 1.0
C      1  0.5309230000000  0.5895920000000  0.3954290000000 1.0
C      1  0.3638550000000  0.4203890000000  0.4602040000000 1.0
C      1  0.5326190000000  0.5518880000000  0.4243970000000 1.0
C      1  0.5184540000000  0.3878670000000  0.4825710000000 1.0
C      1  0.4657780000000  0.5558310000000  0.4826390000000 1.0
C      1  0.5985720000000  0.5278650000000  0.4499340000000 1.0
C      1  0.3746470000000  0.4452550000000  0.4627710000000 1.0
C      1  0.4330730000000  0.5443490000000  0.4419910000000 1.0
C      1  0.5725820000000  0.5198120000000  0.5685140000000 1.0
C      1  0.4752790000000  0.6093610000000  0.5252370000000 1.0
C      1  0.4887890000000  0.4432590000000  0.4857570000000 1.0
C      1  0.5414240000000  0.4501220000000  0.3794710000000 1.0
C      1  0.5177120000000  0.5441410000000  0.5581200000000 1.0
C      1  0.5866480000000  0.5720110000000  0.5234540000000 1.0
C      1  0.5505940000000  0.5247730000000  0.4965440000000 1.0
C      1  0.5614540000000  0.5348250000000  0.4737360000000 1.0
C      1  0.4232410000000  0.5380060000000  0.5432860000000 1.0
C      1  0.5467620000000  0.4369170000000  0.6013670000000 1.0
C      1  0.5806380000000  0.4183560000000  0.4624440000000 1.0
C      1  0.6069350000000  0.5164750000000  0.4766230000000 1.0
C      1  0.4812000000000  0.4256560000000  0.5067960000000 1.0
C      1  0.4904090000000  0.4738400000000  0.5290910000000 1.0
C      1  0.5788030000000  0.5941740000000  0.5070480000000 1.0
C      1  0.4739790000000  0.6158270000000  0.4957830000000 1.0
C      1  0.4559120000000  0.4148760000000  0.4968050000000 1.0
C      1  0.5075120000000  0.5935590000000  0.5763050000000 1.0
C      1  0.4344710000000  0.4309370000000  0.5067940000000 1.0
C      1  0.6015900000000  0.4861150000000  0.4749960000000 1.0
C      1  0.4268480000000  0.4299590000000  0.5910410000000 1.0
C      1  0.5426990000000  0.5167640000000  0.6113660000000 1.0
C      1  0.5889590000000  0.5060220000000  0.5486870000000 1.0
C      1  0.5012180000000  0.4224720000000  0.5992790000000 1.0
C      1  0.4394100000000  0.5225730000000  0.5630580000000 1.0
C      1  0.4348780000000  0.4746200000000  0.4942060000000 1.0
C      1  0.4640590000000  0.5208840000000  0.6062410000000 1.0
C      1  0.4493570000000  0.4968950000000  0.6101330000000 1.0
C      1  0.5201010000000  0.4223190000000  0.4181730000000 1.0
C      1  0.3949520000000  0.4038640000000  0.4916080000000 1.0
C      1  0.4411170000000  0.4907020000000  0.4281880000000 1.0
C      1  0.5871050000000  0.4552320000000  0.4329620000000 1.0
C      1  0.4763110000000  0.4101770000000  0.5976810000000 1.0
C      1  0.4672130000000  0.5009830000000  0.4727130000000 1.0
C      1  0.5432040000000  0.4222900000000  0.5178200000000 1.0
C      1  0.5238560000000  0.4996170000000  0.4657850000000 1.0
C      1  0.3983110000000  0.4771170000000  0.5426110000000 1.0
C      1  0.5016750000000  0.6123120000000  0.4824970000000 1.0
C      1  0.5880990000000  0.4029150000000  0.5407800000000 1.0
C      1  0.5371630000000  0.5051320000000  0.5360480000000 1.0
C      1  0.4918010000000  0.4679900000000  0.4120060000000 1.0
C      1  0.5558800000000  0.4644780000000  0.4740300000000 1.0
C      1  0.3943580000000  0.4832950000000  0.5164240000000 1.0
C      1  0.5534890000000  0.4931990000000  0.3981500000000 1.0
C      1  0.4585260000000  0.5238940000000  0.5156140000000 1.0
C      1  0.5909290000000  0.4798930000000  0.5024760000000 1.0
C      1  0.5307200000000  0.4835800000000  0.5522870000000 1.0
C      1  0.5579660000000  0.5625220000000  0.4358190000000 1.0
C      1  0.4022370000000  0.4185120000000  0.5946780000000 1.0
C      1  0.4854990000000  0.4250100000000  0.4297230000000 1.0
C      1  0.4976900000000  0.4057930000000  0.5163400000000 1.0
C      1  0.4870010000000  0.5603090000000  0.4341940000000 1.0
C      1  0.4059610000000  0.4789940000000  0.4875330000000 1.0
C      1  0.4683280000000  0.4532070000000  0.4692600000000 1.0
C      1  0.4640150000000  0.5640700000000  0.5478880000000 1.0
C      1  0.5677120000000  0.5709520000000  0.5461690000000 1.0
C      1  0.5122000000000  0.4571860000000  0.4835100000000 1.0
C      1  0.5469030000000  0.5923110000000  0.5406010000000 1.0
C      1  0.5304860000000  0.4598320000000  0.5935520000000 1.0
C      1  0.5121860000000  0.3946530000000  0.4561710000000 1.0
C      1  0.5463480000000  0.6030430000000  0.4136620000000 1.0
C      1  0.4714590000000  0.5390490000000  0.5356910000000 1.0
C      1  0.5841790000000  0.3932390000000  0.4720780000000 1.0
C      1  0.5334040000000  0.5425380000000  0.5102350000000 1.0
C      1  0.5696950000000  0.5483970000000  0.5637420000000 1.0
C      1  0.5604390000000  0.4732090000000  0.5028790000000 1.0
C      1  0.4603810000000  0.5838970000000  0.5277500000000 1.0
C      1  0.5979710000000  0.4789470000000  0.4459330000000 1.0
C      1  0.5517240000000  0.6041590000000  0.5125510000000 1.0
C      1  0.4501980000000  0.4144790000000  0.5940040000000 1.0
C      1  0.5606200000000  0.4365980000000  0.4705770000000 1.0
C      1  0.6027010000000  0.5509650000000  0.5142930000000 1.0
C      1  0.5447980000000  0.4811520000000  0.4248780000000 1.0
C      1  0.5272100000000  0.5317400000000  0.5357520000000 1.0
C      1  0.4192380000000  0.5704820000000  0.4538810000000 1.0
C      1  0.4656320000000  0.5629670000000  0.5761530000000 1.0
C      1  0.5361150000000  0.6119930000000  0.4887140000000 1.0
C      1  0.5597870000000  0.4540910000000  0.4223180000000 1.0
C      1  0.4952350000000  0.4933180000000  0.5079120000000 1.0
C      1  0.5495240000000  0.4763590000000  0.3763500000000 1.0
C      1  0.4546000000000  0.5371540000000  0.5845250000000 1.0
C      1  0.4838050000000  0.5863580000000  0.4416040000000 1.0
END
