TITL C-627109-622-248 3.37193562474941e-07 125000 -319.335719036709 0 0 53 (C1) n - 1
REM
REM in /home/nfs/bkarasulu/CARBON/AIRSS/Generating-Clusters/LCBOP/Only-C1/SD-CG/FIRE-CG
REM
REM
REM
REM
REM
REM ./C.cell (11c1c37f851c82e70ff6c80c92926a4b)
REM AIRSS Version 0.9.1 bugfix July 2018 build 013d7b7c2542+ Fri, 06 Jul 2018 19:26:36 +0100
REM compiler GCC version 9.2.1 20190827 (Red Hat 9.2.1-1)
REM options -cpp -mtune=generic -march=x86-64 -g -O0 -fpre-include=/usr/include/finclude/math-vector-fortran.h
REM seed -1288948594 1953046367 857731617 594122957 -1817103658 1638308238 -689262704 -1070412309 -324329963 1939286126 776116146 89510691 1441997148 -1284184684 -712996379 1284464933 -1991909445 -1416452694 -1239876099 1433503353 -2055640126 -2024542012 -1358705743 1723068765 642618816 1333823959 220119281 -181595276 519864467 1890419309 -1396500586 -322107946 -252029313
REM
CELL 1.54180   50.00000   50.00000   50.00000   90.00000   90.00000   90.00000
LATT -1
SFAC C  
C      1  0.4631830000000  0.4702580000000  0.4528430000000 1.0
C      1  0.4573820000000  0.5079150000000  0.4835970000000 1.0
C      1  0.5002140000000  0.3750110000000  0.4906390000000 1.0
C      1  0.5048590000000  0.4202880000000  0.4440460000000 1.0
C      1  0.5466260000000  0.4713800000000  0.6147440000000 1.0
C      1  0.5467100000000  0.5356950000000  0.5135790000000 1.0
C      1  0.5112790000000  0.5311100000000  0.4644420000000 1.0
C      1  0.5007750000000  0.4867480000000  0.4829600000000 1.0
C      1  0.5237260000000  0.5200780000000  0.5110240000000 1.0
C      1  0.5212590000000  0.4419220000000  0.4843900000000 1.0
C      1  0.4565210000000  0.5483550000000  0.5050990000000 1.0
C      1  0.4787760000000  0.4273420000000  0.4357980000000 1.0
C      1  0.5702930000000  0.6007560000000  0.4679740000000 1.0
C      1  0.5045470000000  0.5500030000000  0.5638330000000 1.0
C      1  0.5600060000000  0.5809260000000  0.4536730000000 1.0
C      1  0.4738500000000  0.4873770000000  0.4728550000000 1.0
C      1  0.5095700000000  0.5115560000000  0.5343720000000 1.0
C      1  0.4505470000000  0.5280650000000  0.5250050000000 1.0
C      1  0.4509970000000  0.5217750000000  0.5729190000000 1.0
C      1  0.5682370000000  0.5497440000000  0.5178490000000 1.0
C      1  0.5310250000000  0.5360360000000  0.4448580000000 1.0
C      1  0.4718010000000  0.4146660000000  0.4967680000000 1.0
C      1  0.4638270000000  0.4418210000000  0.4554700000000 1.0
C      1  0.4736320000000  0.4233630000000  0.5235520000000 1.0
C      1  0.5514470000000  0.6098160000000  0.5593890000000 1.0
C      1  0.5145330000000  0.5118310000000  0.4852970000000 1.0
C      1  0.4858560000000  0.5434050000000  0.4641400000000 1.0
C      1  0.4268930000000  0.4830420000000  0.5137300000000 1.0
C      1  0.4437250000000  0.5045930000000  0.5091170000000 1.0
C      1  0.5186740000000  0.5711510000000  0.5713000000000 1.0
C      1  0.5119260000000  0.4187200000000  0.4713360000000 1.0
C      1  0.5106820000000  0.4644340000000  0.4975830000000 1.0
C      1  0.4878650000000  0.4431600000000  0.5346820000000 1.0
C      1  0.5347730000000  0.5182930000000  0.4243650000000 1.0
C      1  0.4579880000000  0.4145440000000  0.3878290000000 1.0
C      1  0.5653120000000  0.6210270000000  0.5397200000000 1.0
C      1  0.5360340000000  0.4750780000000  0.5912120000000 1.0
C      1  0.5251780000000  0.4790540000000  0.5673770000000 1.0
C      1  0.5466140000000  0.5591870000000  0.4465670000000 1.0
C      1  0.4206370000000  0.4585720000000  0.5051250000000 1.0
C      1  0.4949090000000  0.4014020000000  0.4865160000000 1.0
C      1  0.5048250000000  0.4636610000000  0.5256810000000 1.0
C      1  0.5131500000000  0.4846030000000  0.5428310000000 1.0
C      1  0.4683170000000  0.4204210000000  0.4110220000000 1.0
C      1  0.4928160000000  0.5292120000000  0.5492390000000 1.0
C      1  0.4518480000000  0.4813360000000  0.4304390000000 1.0
C      1  0.5349680000000  0.5920580000000  0.5702270000000 1.0
C      1  0.4638270000000  0.5364170000000  0.4798380000000 1.0
C      1  0.5754230000000  0.6158320000000  0.4892020000000 1.0
C      1  0.4643450000000  0.5263790000000  0.5495000000000 1.0
C      1  0.5738250000000  0.6231780000000  0.5146630000000 1.0
C      1  0.4298840000000  0.4382610000000  0.4904340000000 1.0
C      1  0.4540850000000  0.4291410000000  0.4793460000000 1.0
END
