TITL C-627113-6568-1678 1.85891507706318e-06 125000 -1172.89905426773 0 0 193 (C1) n - 1
REM
REM in /home/nfs/bkarasulu/CARBON/AIRSS/Generating-Clusters/LCBOP/Only-C1/SD-CG/FIRE-CG
REM
REM
REM
REM
REM
REM ./C.cell (11c1c37f851c82e70ff6c80c92926a4b)
REM AIRSS Version 0.9.1 bugfix July 2018 build 013d7b7c2542+ Fri, 06 Jul 2018 19:26:36 +0100
REM compiler GCC version 9.2.1 20190827 (Red Hat 9.2.1-1)
REM options -cpp -mtune=generic -march=x86-64 -g -O0 -fpre-include=/usr/include/finclude/math-vector-fortran.h
REM seed 2085657664 1795722792 -83049919 795791333 1274090258 550838313 -1785977985 -1451806443 -1983696059 -216932519 -529403130 2138762783 727566626 711266970 1271192097 1303392881 -966340026 -1755347144 73241459 1045494933 -1108729347 -206248404 583561451 1351123801 -1094277284 196305277 -859796315 1058779706 -381894855 209539162 -1978759837 655663111 -1720295305
REM
CELL 1.54180   50.00000   50.00000   50.00000   90.00000   90.00000   90.00000
LATT -1
SFAC C  
C      1  0.4232760000000  0.5763100000000  0.4831750000000 1.0
C      1  0.5239820000000  0.5221710000000  0.5222240000000 1.0
C      1  0.4661050000000  0.6057670000000  0.5475990000000 1.0
C      1  0.5071510000000  0.4964530000000  0.5612720000000 1.0
C      1  0.4158320000000  0.5233400000000  0.5736030000000 1.0
C      1  0.6116560000000  0.5056700000000  0.5781180000000 1.0
C      1  0.4816990000000  0.6124790000000  0.4145420000000 1.0
C      1  0.4938610000000  0.4105710000000  0.4124300000000 1.0
C      1  0.5440070000000  0.5897790000000  0.5073620000000 1.0
C      1  0.4878630000000  0.6080290000000  0.5290790000000 1.0
C      1  0.5758700000000  0.4065640000000  0.4790200000000 1.0
C      1  0.5499740000000  0.4948550000000  0.5815550000000 1.0
C      1  0.4603070000000  0.6018570000000  0.4887630000000 1.0
C      1  0.4938640000000  0.4424610000000  0.5361210000000 1.0
C      1  0.4966400000000  0.5429560000000  0.4593300000000 1.0
C      1  0.4566310000000  0.3774040000000  0.4983340000000 1.0
C      1  0.5175490000000  0.5492510000000  0.5100130000000 1.0
C      1  0.4551110000000  0.4059860000000  0.5352500000000 1.0
C      1  0.5272710000000  0.4451840000000  0.3915990000000 1.0
C      1  0.3191140000000  0.5308410000000  0.4692210000000 1.0
C      1  0.6008690000000  0.4824520000000  0.4498200000000 1.0
C      1  0.4634940000000  0.3935630000000  0.4476780000000 1.0
C      1  0.4468910000000  0.4767070000000  0.5207780000000 1.0
C      1  0.4341380000000  0.5198820000000  0.5954540000000 1.0
C      1  0.4920990000000  0.6690720000000  0.4576160000000 1.0
C      1  0.4593470000000  0.5500370000000  0.4044500000000 1.0
C      1  0.5209690000000  0.4222690000000  0.5739160000000 1.0
C      1  0.5413480000000  0.6632290000000  0.5026370000000 1.0
C      1  0.4894430000000  0.5523760000000  0.5735530000000 1.0
C      1  0.4202780000000  0.4678110000000  0.5190900000000 1.0
C      1  0.4719820000000  0.5026900000000  0.3888480000000 1.0
C      1  0.5631320000000  0.4078200000000  0.4305250000000 1.0
C      1  0.4279220000000  0.5831680000000  0.5267900000000 1.0
C      1  0.4602880000000  0.6035650000000  0.4592050000000 1.0
C      1  0.4628370000000  0.3804480000000  0.4710700000000 1.0
C      1  0.4752010000000  0.4715080000000  0.5962760000000 1.0
C      1  0.5644250000000  0.4773490000000  0.4051820000000 1.0
C      1  0.5515100000000  0.4356290000000  0.4305060000000 1.0
C      1  0.4098040000000  0.4253430000000  0.5262890000000 1.0
C      1  0.3983700000000  0.4870930000000  0.5110330000000 1.0
C      1  0.4187510000000  0.5490610000000  0.5598420000000 1.0
C      1  0.5684660000000  0.4525620000000  0.6630140000000 1.0
C      1  0.4672170000000  0.5249240000000  0.5172720000000 1.0
C      1  0.5413480000000  0.5579600000000  0.5562160000000 1.0
C      1  0.4274790000000  0.4031810000000  0.5268800000000 1.0
C      1  0.5870550000000  0.4846520000000  0.4233060000000 1.0
C      1  0.5666780000000  0.4994210000000  0.5073840000000 1.0
C      1  0.4903530000000  0.5649640000000  0.5062570000000 1.0
C      1  0.4521240000000  0.4894370000000  0.5452780000000 1.0
C      1  0.5639110000000  0.4280070000000  0.5954000000000 1.0
C      1  0.3963280000000  0.4295240000000  0.5005400000000 1.0
C      1  0.5249900000000  0.5034810000000  0.3797550000000 1.0
C      1  0.6127620000000  0.4499370000000  0.5262180000000 1.0
C      1  0.3942730000000  0.4775120000000  0.4395650000000 1.0
C      1  0.4266960000000  0.5095550000000  0.4068610000000 1.0
C      1  0.5097830000000  0.5531790000000  0.3996320000000 1.0
C      1  0.5574870000000  0.5488780000000  0.4811410000000 1.0
C      1  0.5842770000000  0.5288380000000  0.5437180000000 1.0
C      1  0.5136210000000  0.6199270000000  0.5321690000000 1.0
C      1  0.4553680000000  0.4550260000000  0.4047450000000 1.0
C      1  0.4298920000000  0.4727210000000  0.5655270000000 1.0
C      1  0.5260890000000  0.5244050000000  0.6220080000000 1.0
C      1  0.5523460000000  0.4942390000000  0.4494840000000 1.0
C      1  0.5141540000000  0.3907790000000  0.4193020000000 1.0
C      1  0.4705510000000  0.5030620000000  0.4451810000000 1.0
C      1  0.5087580000000  0.5068010000000  0.6071110000000 1.0
C      1  0.4844560000000  0.6157060000000  0.4446320000000 1.0
C      1  0.5436310000000  0.6364530000000  0.4951280000000 1.0
C      1  0.5054920000000  0.5133730000000  0.5411690000000 1.0
C      1  0.5073480000000  0.4493400000000  0.4519640000000 1.0
C      1  0.5051980000000  0.5950170000000  0.4514900000000 1.0
C      1  0.5403180000000  0.6879960000000  0.5106840000000 1.0
C      1  0.5991020000000  0.4552160000000  0.4597150000000 1.0
C      1  0.4722150000000  0.5295030000000  0.5680510000000 1.0
C      1  0.4834760000000  0.5934840000000  0.5048420000000 1.0
C      1  0.4772340000000  0.5697160000000  0.5926110000000 1.0
C      1  0.5739390000000  0.5644090000000  0.4415480000000 1.0
C      1  0.4656180000000  0.4066930000000  0.5888960000000 1.0
C      1  0.4090420000000  0.4926680000000  0.4195990000000 1.0
C      1  0.5582170000000  0.4465480000000  0.6398200000000 1.0
C      1  0.5500900000000  0.4519650000000  0.4076370000000 1.0
C      1  0.3829180000000  0.4750460000000  0.4866770000000 1.0
C      1  0.3436670000000  0.5240940000000  0.4636730000000 1.0
C      1  0.5415290000000  0.5367560000000  0.4598910000000 1.0
C      1  0.5698990000000  0.4758290000000  0.4921840000000 1.0
C      1  0.4169710000000  0.5543390000000  0.5305590000000 1.0
C      1  0.4027900000000  0.4508610000000  0.4504020000000 1.0
C      1  0.3790750000000  0.4901080000000  0.4616030000000 1.0
C      1  0.4661850000000  0.4309670000000  0.5421250000000 1.0
C      1  0.5159610000000  0.5575380000000  0.5652060000000 1.0
C      1  0.5338500000000  0.6156030000000  0.5120680000000 1.0
C      1  0.5415430000000  0.5628630000000  0.5001550000000 1.0
C      1  0.5889340000000  0.5214610000000  0.5720260000000 1.0
C      1  0.4383280000000  0.5511400000000  0.4884580000000 1.0
C      1  0.4158360000000  0.4502730000000  0.5404970000000 1.0
C      1  0.5839210000000  0.4276010000000  0.4964850000000 1.0
C      1  0.4800450000000  0.4990900000000  0.6048240000000 1.0
C      1  0.4650250000000  0.5509070000000  0.5060190000000 1.0
C      1  0.5764120000000  0.4191200000000  0.5729270000000 1.0
C      1  0.4705300000000  0.4787130000000  0.4047430000000 1.0
C      1  0.4838520000000  0.5636820000000  0.3965360000000 1.0
C      1  0.5012000000000  0.3931330000000  0.5237870000000 1.0
C      1  0.5143720000000  0.5008130000000  0.4816000000000 1.0
C      1  0.6078820000000  0.5031190000000  0.4718730000000 1.0
C      1  0.5309350000000  0.4052350000000  0.4611920000000 1.0
C      1  0.4999940000000  0.5689020000000  0.4540090000000 1.0
C      1  0.6202530000000  0.4736280000000  0.5145680000000 1.0
C      1  0.6046090000000  0.4302410000000  0.4465730000000 1.0
C      1  0.4192870000000  0.5352880000000  0.5075030000000 1.0
C      1  0.5225290000000  0.3922880000000  0.5423740000000 1.0
C      1  0.4932980000000  0.4662650000000  0.5169690000000 1.0
C      1  0.4453750000000  0.5861100000000  0.4416430000000 1.0
C      1  0.5194620000000  0.6346510000000  0.5545220000000 1.0
C      1  0.5206940000000  0.4514770000000  0.6096000000000 1.0
C      1  0.5498230000000  0.5490130000000  0.4345350000000 1.0
C      1  0.4960100000000  0.4235440000000  0.4883950000000 1.0
C      1  0.4621240000000  0.5176120000000  0.5926970000000 1.0
C      1  0.6114930000000  0.4984340000000  0.5022880000000 1.0
C      1  0.6483950000000  0.4227190000000  0.4161540000000 1.0
C      1  0.3698810000000  0.5166120000000  0.4582960000000 1.0
C      1  0.4869670000000  0.3914340000000  0.5810660000000 1.0
C      1  0.5045260000000  0.4307770000000  0.3951990000000 1.0
C      1  0.4416270000000  0.5914060000000  0.5505630000000 1.0
C      1  0.4548180000000  0.5110350000000  0.4676900000000 1.0
C      1  0.4504650000000  0.5738130000000  0.5941590000000 1.0
C      1  0.4337000000000  0.5726240000000  0.5715490000000 1.0
C      1  0.4923940000000  0.6949050000000  0.4610980000000 1.0
C      1  0.6273150000000  0.4260180000000  0.4311140000000 1.0
C      1  0.5834310000000  0.4530810000000  0.4833740000000 1.0
C      1  0.5641100000000  0.5494370000000  0.5442850000000 1.0
C      1  0.5023450000000  0.4204370000000  0.5148720000000 1.0
C      1  0.4626870000000  0.5158930000000  0.5440110000000 1.0
C      1  0.5223740000000  0.4968810000000  0.5842620000000 1.0
C      1  0.6096980000000  0.4787390000000  0.5759450000000 1.0
C      1  0.4732170000000  0.3864510000000  0.5212050000000 1.0
C      1  0.5832240000000  0.5518970000000  0.4668640000000 1.0
C      1  0.5051910000000  0.4444930000000  0.5652400000000 1.0
C      1  0.4510240000000  0.4297440000000  0.5899810000000 1.0
C      1  0.5306180000000  0.4335050000000  0.4515770000000 1.0
C      1  0.4700500000000  0.5095820000000  0.4935170000000 1.0
C      1  0.4419710000000  0.4653420000000  0.4663170000000 1.0
C      1  0.5929030000000  0.4289730000000  0.5239210000000 1.0
C      1  0.5652760000000  0.5175100000000  0.5894520000000 1.0
C      1  0.5525390000000  0.5321060000000  0.6110980000000 1.0
C      1  0.5493810000000  0.4961370000000  0.3892610000000 1.0
C      1  0.5180750000000  0.5338310000000  0.6465190000000 1.0
C      1  0.4873180000000  0.4423600000000  0.4702020000000 1.0
C      1  0.5127260000000  0.3958100000000  0.5692690000000 1.0
C      1  0.4500570000000  0.4586020000000  0.5867340000000 1.0
C      1  0.4993420000000  0.4568380000000  0.5908750000000 1.0
C      1  0.4823080000000  0.5922260000000  0.3967240000000 1.0
C      1  0.4154370000000  0.5077440000000  0.4966390000000 1.0
C      1  0.5654480000000  0.5540080000000  0.6216400000000 1.0
C      1  0.4158630000000  0.5377830000000  0.4483540000000 1.0
C      1  0.5376640000000  0.3922190000000  0.4356040000000 1.0
C      1  0.3892940000000  0.5348430000000  0.4492760000000 1.0
C      1  0.5488630000000  0.3980190000000  0.4817440000000 1.0
C      1  0.4652120000000  0.4571020000000  0.4793480000000 1.0
C      1  0.5749170000000  0.5923380000000  0.4395750000000 1.0
C      1  0.4395930000000  0.5359170000000  0.4634580000000 1.0
C      1  0.5846750000000  0.4095000000000  0.4507960000000 1.0
C      1  0.5746440000000  0.4178260000000  0.5443600000000 1.0
C      1  0.4496020000000  0.4363380000000  0.4258420000000 1.0
C      1  0.5409210000000  0.4462980000000  0.5303600000000 1.0
C      1  0.5068720000000  0.4731970000000  0.4377350000000 1.0
C      1  0.4342690000000  0.5953960000000  0.5011430000000 1.0
C      1  0.5457940000000  0.4736930000000  0.5386190000000 1.0
C      1  0.5605120000000  0.4762310000000  0.5632180000000 1.0
C      1  0.4517710000000  0.5223000000000  0.3977180000000 1.0
C      1  0.5473010000000  0.4417310000000  0.6144490000000 1.0
C      1  0.4904880000000  0.6430720000000  0.4528180000000 1.0
C      1  0.5301380000000  0.4880170000000  0.4376020000000 1.0
C      1  0.4291550000000  0.3823580000000  0.5068050000000 1.0
C      1  0.4321010000000  0.4920160000000  0.4747920000000 1.0
C      1  0.4682870000000  0.4131980000000  0.4275360000000 1.0
C      1  0.5435550000000  0.4996140000000  0.5231570000000 1.0
C      1  0.5564380000000  0.6296180000000  0.4709870000000 1.0
C      1  0.4671570000000  0.4661710000000  0.5057630000000 1.0
C      1  0.5467010000000  0.4176350000000  0.5356330000000 1.0
C      1  0.5332610000000  0.5505100000000  0.4121650000000 1.0
C      1  0.3901900000000  0.4966490000000  0.5390780000000 1.0
C      1  0.5106470000000  0.4810170000000  0.4998270000000 1.0
C      1  0.4060550000000  0.4983230000000  0.5628060000000 1.0
C      1  0.4446090000000  0.5666720000000  0.4227150000000 1.0
C      1  0.4829860000000  0.4842000000000  0.4294900000000 1.0
C      1  0.6021430000000  0.5309420000000  0.4663260000000 1.0
C      1  0.5676290000000  0.6150170000000  0.4516910000000 1.0
C      1  0.4980960000000  0.5068470000000  0.3779140000000 1.0
C      1  0.3919590000000  0.4475900000000  0.4787850000000 1.0
C      1  0.5901660000000  0.5123220000000  0.5187490000000 1.0
C      1  0.4312750000000  0.4469170000000  0.4466820000000 1.0
C      1  0.5867000000000  0.4670540000000  0.5679790000000 1.0
C      1  0.5168030000000  0.5247330000000  0.4663260000000 1.0
END
