TITL C-627112-676-995 4.31416603562945e-07 125000 -1063.07433721206 0 0 172 (C1) n - 1
REM
REM in /home/nfs/bkarasulu/CARBON/AIRSS/Generating-Clusters/LCBOP/Only-C1/SD-CG/FIRE-CG
REM
REM
REM
REM
REM
REM ./C.cell (11c1c37f851c82e70ff6c80c92926a4b)
REM AIRSS Version 0.9.1 bugfix July 2018 build 013d7b7c2542+ Fri, 06 Jul 2018 19:26:36 +0100
REM compiler GCC version 9.2.1 20190827 (Red Hat 9.2.1-1)
REM options -cpp -mtune=generic -march=x86-64 -g -O0 -fpre-include=/usr/include/finclude/math-vector-fortran.h
REM seed -622970602 -2122534081 -311553698 -567537933 -558603367 257468765 -1803161685 815393974 -1296268317 -1466867539 -1091345439 739215553 437930018 2113273701 -81033486 1969302647 -133897367 -468510950 -558606650 177543565 1325551023 -1247154668 1462737173 890164261 -1241677825 1020648094 746829820 1952129456 -1873961756 543808681 -116441454 -11697562 -857422518
REM
CELL 1.54180   50.00000   50.00000   50.00000   90.00000   90.00000   90.00000
LATT -1
SFAC C  
C      1  0.4615620000000  0.4224800000000  0.4055120000000 1.0
C      1  0.5110560000000  0.5966730000000  0.5543740000000 1.0
C      1  0.4618240000000  0.4579760000000  0.5114550000000 1.0
C      1  0.4157460000000  0.5641740000000  0.4506160000000 1.0
C      1  0.4357750000000  0.4651840000000  0.4052920000000 1.0
C      1  0.4791080000000  0.4509790000000  0.5571650000000 1.0
C      1  0.5951390000000  0.4863390000000  0.4405050000000 1.0
C      1  0.4841820000000  0.5231430000000  0.4191480000000 1.0
C      1  0.5121110000000  0.4905210000000  0.4816470000000 1.0
C      1  0.4369890000000  0.4364970000000  0.4036430000000 1.0
C      1  0.4667750000000  0.4818680000000  0.6123590000000 1.0
C      1  0.4565830000000  0.5886930000000  0.4281740000000 1.0
C      1  0.5184970000000  0.6011490000000  0.4617990000000 1.0
C      1  0.4171890000000  0.5352540000000  0.4534730000000 1.0
C      1  0.4714530000000  0.5765780000000  0.4483930000000 1.0
C      1  0.4778310000000  0.3958370000000  0.4498970000000 1.0
C      1  0.5481680000000  0.4826430000000  0.5782330000000 1.0
C      1  0.4987130000000  0.4831480000000  0.3852280000000 1.0
C      1  0.4951120000000  0.4459280000000  0.4555750000000 1.0
C      1  0.5355730000000  0.5021360000000  0.5361420000000 1.0
C      1  0.5943530000000  0.4512040000000  0.5329200000000 1.0
C      1  0.4819730000000  0.5235290000000  0.4970640000000 1.0
C      1  0.4197160000000  0.4057050000000  0.4369540000000 1.0
C      1  0.5568980000000  0.3887990000000  0.5105530000000 1.0
C      1  0.3896720000000  0.4543730000000  0.5521410000000 1.0
C      1  0.3936530000000  0.4861950000000  0.4335530000000 1.0
C      1  0.4816950000000  0.4953230000000  0.4039160000000 1.0
C      1  0.5277830000000  0.5482430000000  0.4009600000000 1.0
C      1  0.3870080000000  0.4999100000000  0.4563740000000 1.0
C      1  0.5900350000000  0.5889200000000  0.5126510000000 1.0
C      1  0.5405730000000  0.5056370000000  0.5633050000000 1.0
C      1  0.4422300000000  0.4677870000000  0.6062600000000 1.0
C      1  0.5210770000000  0.4052760000000  0.4304140000000 1.0
C      1  0.3984790000000  0.5217040000000  0.4711000000000 1.0
C      1  0.6018250000000  0.5293860000000  0.4619550000000 1.0
C      1  0.4149840000000  0.4229620000000  0.4803010000000 1.0
C      1  0.5378860000000  0.5719260000000  0.5985640000000 1.0
C      1  0.4610960000000  0.4766730000000  0.4420500000000 1.0
C      1  0.6190360000000  0.5599570000000  0.4924760000000 1.0
C      1  0.5713720000000  0.5963130000000  0.4449770000000 1.0
C      1  0.5315960000000  0.4836590000000  0.4627210000000 1.0
C      1  0.5289680000000  0.5976450000000  0.5998120000000 1.0
C      1  0.5671100000000  0.4232300000000  0.4568830000000 1.0
C      1  0.5590620000000  0.4900660000000  0.6047060000000 1.0
C      1  0.5312930000000  0.5482610000000  0.4737840000000 1.0
C      1  0.5166560000000  0.4354630000000  0.3898550000000 1.0
C      1  0.5762470000000  0.4700380000000  0.4528000000000 1.0
C      1  0.4875910000000  0.4997740000000  0.5539130000000 1.0
C      1  0.4794800000000  0.6212770000000  0.4812030000000 1.0
C      1  0.5083440000000  0.4587870000000  0.3793120000000 1.0
C      1  0.5967880000000  0.4239410000000  0.5250250000000 1.0
C      1  0.5419760000000  0.4496750000000  0.4270250000000 1.0
C      1  0.4992570000000  0.4308480000000  0.5543950000000 1.0
C      1  0.5583140000000  0.4800420000000  0.4731170000000 1.0
C      1  0.5374690000000  0.3793560000000  0.4943220000000 1.0
C      1  0.3906870000000  0.4581170000000  0.5045060000000 1.0
C      1  0.5791780000000  0.5101570000000  0.6008360000000 1.0
C      1  0.5235240000000  0.6047980000000  0.4337770000000 1.0
C      1  0.4298490000000  0.4722790000000  0.4770480000000 1.0
C      1  0.6046650000000  0.5806300000000  0.5362220000000 1.0
C      1  0.4442870000000  0.4772720000000  0.5010180000000 1.0
C      1  0.4087560000000  0.4955770000000  0.5839540000000 1.0
C      1  0.4162090000000  0.4207510000000  0.4147970000000 1.0
C      1  0.5487200000000  0.5922120000000  0.4267000000000 1.0
C      1  0.5280530000000  0.4725840000000  0.4368170000000 1.0
C      1  0.5483130000000  0.5656080000000  0.4154380000000 1.0
C      1  0.4085470000000  0.4471500000000  0.5727430000000 1.0
C      1  0.4188940000000  0.5226380000000  0.5184580000000 1.0
C      1  0.4340660000000  0.4994160000000  0.5141330000000 1.0
C      1  0.4021550000000  0.4058810000000  0.4990030000000 1.0
C      1  0.4262580000000  0.5174820000000  0.5881020000000 1.0
C      1  0.5373350000000  0.4797370000000  0.6215390000000 1.0
C      1  0.4800010000000  0.3833580000000  0.5424710000000 1.0
C      1  0.4701940000000  0.4046770000000  0.4237860000000 1.0
C      1  0.6125190000000  0.5045130000000  0.4524080000000 1.0
C      1  0.5064900000000  0.3923030000000  0.4518150000000 1.0
C      1  0.6006340000000  0.5811940000000  0.4869340000000 1.0
C      1  0.4900460000000  0.4733870000000  0.5983980000000 1.0
C      1  0.5011480000000  0.6100680000000  0.5313770000000 1.0
C      1  0.3985780000000  0.4132810000000  0.5256240000000 1.0
C      1  0.4383500000000  0.6285850000000  0.5650820000000 1.0
C      1  0.4316140000000  0.4086850000000  0.4624220000000 1.0
C      1  0.6201460000000  0.5985390000000  0.5499350000000 1.0
C      1  0.4038090000000  0.5759240000000  0.4738910000000 1.0
C      1  0.5185760000000  0.6162140000000  0.5089170000000 1.0
C      1  0.4969980000000  0.5266470000000  0.4483980000000 1.0
C      1  0.4715490000000  0.5208340000000  0.5672270000000 1.0
C      1  0.4622430000000  0.5779090000000  0.4954870000000 1.0
C      1  0.4817620000000  0.4150300000000  0.5108020000000 1.0
C      1  0.4151080000000  0.4028960000000  0.5464360000000 1.0
C      1  0.5874250000000  0.5783590000000  0.4608920000000 1.0
C      1  0.4729500000000  0.6128240000000  0.5270500000000 1.0
C      1  0.5752730000000  0.4058190000000  0.5205680000000 1.0
C      1  0.5299370000000  0.4381030000000  0.4894770000000 1.0
C      1  0.5651080000000  0.5463740000000  0.4320380000000 1.0
C      1  0.5028680000000  0.4436840000000  0.4815900000000 1.0
C      1  0.4863090000000  0.4751360000000  0.5695880000000 1.0
C      1  0.4922530000000  0.4088870000000  0.5376140000000 1.0
C      1  0.4991810000000  0.5446180000000  0.4028340000000 1.0
C      1  0.6094510000000  0.5114150000000  0.5074060000000 1.0
C      1  0.4404020000000  0.4896620000000  0.4561260000000 1.0
C      1  0.4421340000000  0.5260380000000  0.5650570000000 1.0
C      1  0.5513000000000  0.5625330000000  0.5159390000000 1.0
C      1  0.4810850000000  0.5362560000000  0.4716000000000 1.0
C      1  0.6004540000000  0.4770330000000  0.5433360000000 1.0
C      1  0.5413220000000  0.4440710000000  0.5361470000000 1.0
C      1  0.5070810000000  0.5006810000000  0.5308440000000 1.0
C      1  0.4569260000000  0.3794080000000  0.5247450000000 1.0
C      1  0.4710910000000  0.5632900000000  0.4723210000000 1.0
C      1  0.4373630000000  0.5173630000000  0.4455800000000 1.0
C      1  0.4595350000000  0.5618110000000  0.5182100000000 1.0
C      1  0.4096550000000  0.4517140000000  0.4829310000000 1.0
C      1  0.6182310000000  0.4786780000000  0.5649560000000 1.0
C      1  0.5431890000000  0.4529190000000  0.5098440000000 1.0
C      1  0.5487960000000  0.5315540000000  0.5721710000000 1.0
C      1  0.4381480000000  0.5204880000000  0.6137030000000 1.0
C      1  0.5432640000000  0.5439140000000  0.4985210000000 1.0
C      1  0.5316600000000  0.4588780000000  0.5806110000000 1.0
C      1  0.6363570000000  0.4792230000000  0.5836720000000 1.0
C      1  0.5904380000000  0.5044350000000  0.5309710000000 1.0
C      1  0.4741820000000  0.6053540000000  0.4131270000000 1.0
C      1  0.4702430000000  0.5373380000000  0.5183710000000 1.0
C      1  0.6318530000000  0.4922900000000  0.4698110000000 1.0
C      1  0.5458150000000  0.6108540000000  0.5125980000000 1.0
C      1  0.5277760000000  0.4282060000000  0.4147380000000 1.0
C      1  0.6222750000000  0.4142760000000  0.5212190000000 1.0
C      1  0.4191870000000  0.4686640000000  0.5891840000000 1.0
C      1  0.5865360000000  0.5507990000000  0.4500200000000 1.0
C      1  0.5256840000000  0.4412100000000  0.5591650000000 1.0
C      1  0.4653120000000  0.6058100000000  0.5002260000000 1.0
C      1  0.3975920000000  0.5616790000000  0.4964320000000 1.0
C      1  0.4648670000000  0.5108300000000  0.6146790000000 1.0
C      1  0.5921240000000  0.5281580000000  0.5525000000000 1.0
C      1  0.4263900000000  0.5346450000000  0.5430060000000 1.0
C      1  0.5465410000000  0.5238490000000  0.4344320000000 1.0
C      1  0.4581810000000  0.4526030000000  0.5389250000000 1.0
C      1  0.5771910000000  0.5271680000000  0.5773630000000 1.0
C      1  0.4804600000000  0.5247670000000  0.5947220000000 1.0
C      1  0.3899540000000  0.4396750000000  0.5277210000000 1.0
C      1  0.5473900000000  0.4214040000000  0.4750840000000 1.0
C      1  0.5199680000000  0.3804280000000  0.4737700000000 1.0
C      1  0.4177730000000  0.4201670000000  0.5692850000000 1.0
C      1  0.4013020000000  0.5331950000000  0.4979750000000 1.0
C      1  0.5383500000000  0.5208100000000  0.4067660000000 1.0
C      1  0.5621260000000  0.5884990000000  0.5153380000000 1.0
C      1  0.5009430000000  0.6099230000000  0.4169910000000 1.0
C      1  0.4819740000000  0.4409850000000  0.5001760000000 1.0
C      1  0.3804330000000  0.4825130000000  0.5169200000000 1.0
C      1  0.5349310000000  0.5557200000000  0.5751960000000 1.0
C      1  0.4549890000000  0.5274910000000  0.4258800000000 1.0
C      1  0.4550050000000  0.6216170000000  0.5462900000000 1.0
C      1  0.4293320000000  0.5802620000000  0.4308420000000 1.0
C      1  0.6276780000000  0.4919230000000  0.4968520000000 1.0
C      1  0.6089950000000  0.5339960000000  0.4896450000000 1.0
C      1  0.5190930000000  0.5690250000000  0.5552190000000 1.0
C      1  0.5578840000000  0.4762560000000  0.5013730000000 1.0
C      1  0.4636190000000  0.3947450000000  0.4996980000000 1.0
C      1  0.5670270000000  0.4459730000000  0.4403740000000 1.0
C      1  0.6023810000000  0.5535900000000  0.5448760000000 1.0
C      1  0.5602230000000  0.4969900000000  0.5209430000000 1.0
C      1  0.3865200000000  0.4990240000000  0.5668740000000 1.0
C      1  0.5254330000000  0.5296360000000  0.4529990000000 1.0
C      1  0.4574010000000  0.3975320000000  0.4710890000000 1.0
C      1  0.5165170000000  0.4656580000000  0.6055430000000 1.0
C      1  0.4108330000000  0.4768480000000  0.4145470000000 1.0
C      1  0.5230720000000  0.5746800000000  0.4698770000000 1.0
C      1  0.4322850000000  0.3821330000000  0.5382000000000 1.0
C      1  0.3810870000000  0.4814670000000  0.5460090000000 1.0
C      1  0.4605080000000  0.4780680000000  0.4139050000000 1.0
C      1  0.4995210000000  0.5027560000000  0.5033720000000 1.0
C      1  0.5162170000000  0.6099250000000  0.5790970000000 1.0
C      1  0.5077010000000  0.6179940000000  0.4819140000000 1.0
END
