TITL C-627108-131-2113 45.9294964031154 125000 -165.836208394303 0 0 30 (C1) n - 1
REM
REM in /home/nfs/bkarasulu/CARBON/AIRSS/Generating-Clusters/LCBOP/Only-C1/SD-CG/FIRE-CG
REM
REM
REM
REM
REM
REM ./C.cell (11c1c37f851c82e70ff6c80c92926a4b)
REM AIRSS Version 0.9.1 bugfix July 2018 build 013d7b7c2542+ Fri, 06 Jul 2018 19:26:36 +0100
REM compiler GCC version 9.2.1 20190827 (Red Hat 9.2.1-1)
REM options -cpp -mtune=generic -march=x86-64 -g -O0 -fpre-include=/usr/include/finclude/math-vector-fortran.h
REM seed 339044436 461073774 -688425790 144873884 -2127275523 -1836094989 463568067 491564453 -2146542737 1231909268 1587967796 -286666820 -165000542 435595941 1229795029 -1866040357 -736541984 -1464646457 91013926 6320086 -48438582 1526595475 1142459457 864295931 -184979058 1963622566 -1447694206 -1573228892 -2125478854 -88796496 1729022772 -1734414850 1843749972
REM
CELL 1.54180   50.00000   50.00000   50.00000   90.00000   90.00000   90.00000
LATT -1
SFAC C  
C      1  0.5129430000000  0.4403430000000  0.5643220000000 1.0
C      1  0.5645410000000  0.5699640000000  0.4417510000000 1.0
C      1  0.5218240000000  0.5590580000000  0.4607360000000 1.0
C      1  0.4668980000000  0.5261350000000  0.5559930000000 1.0
C      1  0.5252500000000  0.4652490000000  0.5203350000000 1.0
C      1  0.4880860000000  0.5257050000000  0.5110400000000 1.0
C      1  0.4759020000000  0.5177830000000  0.4645960000000 1.0
C      1  0.4798950000000  0.4716780000000  0.3804350000000 1.0
C      1  0.4874420000000  0.5340700000000  0.4841280000000 1.0
C      1  0.5015980000000  0.4436480000000  0.5897690000000 1.0
C      1  0.4875640000000  0.5824900000000  0.4849760000000 1.0
C      1  0.4914070000000  0.4689480000000  0.5963250000000 1.0
C      1  0.4645020000000  0.4870290000000  0.4230790000000 1.0
C      1  0.4865320000000  0.4941060000000  0.5890590000000 1.0
C      1  0.5098930000000  0.5107050000000  0.5224040000000 1.0
C      1  0.5209670000000  0.4480640000000  0.5401780000000 1.0
C      1  0.5004930000000  0.4225230000000  0.6079050000000 1.0
C      1  0.4609310000000  0.4713270000000  0.4001840000000 1.0
C      1  0.4385150000000  0.4557870000000  0.3977850000000 1.0
C      1  0.4989250000000  0.5590100000000  0.4767490000000 1.0
C      1  0.5396410000000  0.5326540000000  0.4245870000000 1.0
C      1  0.5384900000000  0.4962580000000  0.4857340000000 1.0
C      1  0.4994620000000  0.4027590000000  0.6248610000000 1.0
C      1  0.5247370000000  0.4908150000000  0.5086730000000 1.0
C      1  0.5422760000000  0.5541020000000  0.4423470000000 1.0
C      1  0.5110910000000  0.5113270000000  0.5508610000000 1.0
C      1  0.4672060000000  0.5319050000000  0.5294100000000 1.0
C      1  0.4690270000000  0.5021980000000  0.4443160000000 1.0
C      1  0.4885150000000  0.5123850000000  0.5681720000000 1.0
C      1  0.5354470000000  0.5119740000000  0.4092890000000 1.0
END
