TITL C-627109-622-1128 -8.78503792091404e-08 125000 -225.956142866857 0 0 38 (C1) n - 1
REM
REM in /home/nfs/bkarasulu/CARBON/AIRSS/Generating-Clusters/LCBOP/Only-C1/SD-CG/FIRE-CG
REM
REM
REM
REM
REM
REM ./C.cell (11c1c37f851c82e70ff6c80c92926a4b)
REM AIRSS Version 0.9.1 bugfix July 2018 build 013d7b7c2542+ Fri, 06 Jul 2018 19:26:36 +0100
REM compiler GCC version 9.2.1 20190827 (Red Hat 9.2.1-1)
REM options -cpp -mtune=generic -march=x86-64 -g -O0 -fpre-include=/usr/include/finclude/math-vector-fortran.h
REM seed -671934667 321045280 -1003690960 2114299264 -419710013 -573067061 -16123411 -200179906 -76450904 -1184476776 -1360693711 -447263367 868507250 -583891226 2142311832 1418876177 1010563080 -184822539 283649345 1546447437 -1342939250 1135050110 1771339647 7046352 1583852587 -975741559 1465938524 -824618331 1959478553 -1883822946 -571772104 -434498936 -1679072054
REM
CELL 1.54180   50.00000   50.00000   50.00000   90.00000   90.00000   90.00000
LATT -1
SFAC C  
C      1  0.5147290000000  0.5376250000000  0.5183080000000 1.0
C      1  0.5661600000000  0.5102400000000  0.4884570000000 1.0
C      1  0.5103220000000  0.5561750000000  0.5398070000000 1.0
C      1  0.5048250000000  0.5720960000000  0.4844430000000 1.0
C      1  0.4966490000000  0.5237770000000  0.4740890000000 1.0
C      1  0.5443350000000  0.5469120000000  0.4357360000000 1.0
C      1  0.4660130000000  0.4224510000000  0.4940140000000 1.0
C      1  0.5840920000000  0.4963760000000  0.4452790000000 1.0
C      1  0.5646170000000  0.5092490000000  0.4604710000000 1.0
C      1  0.4527410000000  0.4713840000000  0.5548880000000 1.0
C      1  0.3776540000000  0.3798210000000  0.4859340000000 1.0
C      1  0.5030090000000  0.5823000000000  0.5316630000000 1.0
C      1  0.5583870000000  0.5149130000000  0.5149900000000 1.0
C      1  0.5323390000000  0.5703830000000  0.4409160000000 1.0
C      1  0.4182190000000  0.4122120000000  0.4941880000000 1.0
C      1  0.3977920000000  0.3958650000000  0.4900170000000 1.0
C      1  0.5306700000000  0.5143040000000  0.5215710000000 1.0
C      1  0.5002570000000  0.5899390000000  0.5058450000000 1.0
C      1  0.4918410000000  0.4287370000000  0.4950930000000 1.0
C      1  0.4709020000000  0.5131370000000  0.4742880000000 1.0
C      1  0.4349520000000  0.4561000000000  0.5085050000000 1.0
C      1  0.4500810000000  0.4975220000000  0.4794410000000 1.0
C      1  0.5005400000000  0.4890060000000  0.5509830000000 1.0
C      1  0.4765780000000  0.4820080000000  0.5602270000000 1.0
C      1  0.4368390000000  0.4613750000000  0.5359820000000 1.0
C      1  0.6022450000000  0.4844880000000  0.4308460000000 1.0
C      1  0.5157260000000  0.5796030000000  0.4598000000000 1.0
C      1  0.5044550000000  0.5442850000000  0.4921990000000 1.0
C      1  0.4393500000000  0.4297310000000  0.4987550000000 1.0
C      1  0.5185170000000  0.4899330000000  0.5294940000000 1.0
C      1  0.5212930000000  0.4668440000000  0.5138350000000 1.0
C      1  0.5116290000000  0.4451140000000  0.5019680000000 1.0
C      1  0.5770220000000  0.5200650000000  0.5343340000000 1.0
C      1  0.5164130000000  0.5143040000000  0.4564990000000 1.0
C      1  0.4364670000000  0.4777070000000  0.4907380000000 1.0
C      1  0.5132350000000  0.5493390000000  0.5665890000000 1.0
C      1  0.5422930000000  0.5217350000000  0.4482090000000 1.0
C      1  0.5168140000000  0.5429450000000  0.5915990000000 1.0
END
