TITL C-627106-156-336 -249.207431936614 125000 -96.4954540464694 0 0 18 (C1) n - 1
REM
REM in /home/nfs/bkarasulu/CARBON/AIRSS/Generating-Clusters/LCBOP/Only-C1/SD-CG/FIRE-CG
REM
REM
REM
REM
REM
REM ./C.cell (11c1c37f851c82e70ff6c80c92926a4b)
REM AIRSS Version 0.9.1 bugfix July 2018 build 013d7b7c2542+ Fri, 06 Jul 2018 19:26:36 +0100
REM compiler GCC version 9.2.1 20190827 (Red Hat 9.2.1-1)
REM options -cpp -mtune=generic -march=x86-64 -g -O0 -fpre-include=/usr/include/finclude/math-vector-fortran.h
REM seed 595327713 -1385956702 331756942 -1893650534 112402611 -1076753931 470295888 311871576 -1233127521 1961743324 -260295442 -31775258 -1813285974 -932373665 -1757269871 749319049 -1233055047 -1421285279 -1321077878 819201775 -1059947248 1196167101 -1714770948 -771744818 359435701 1899620830 -68761585 -564223690 1151655527 -788153322 1260625084 788362252 1608468714
REM
CELL 1.54180   50.00000   50.00000   50.00000   90.00000   90.00000   90.00000
LATT -1
SFAC C  
C      1  0.4943130000000  0.5084450000000  0.5007550000000 1.0
C      1  0.4825110000000  0.4369340000000  0.4970510000000 1.0
C      1  0.4955010000000  0.5807390000000  0.4995140000000 1.0
C      1  0.4959950000000  0.4832130000000  0.4928740000000 1.0
C      1  0.4297470000000  0.5559180000000  0.5886950000000 1.0
C      1  0.4927300000000  0.5336930000000  0.5086050000000 1.0
C      1  0.4850290000000  0.5656980000000  0.5438530000000 1.0
C      1  0.4681970000000  0.4185630000000  0.5087490000000 1.0
C      1  0.4533070000000  0.5629940000000  0.5800860000000 1.0
C      1  0.5802210000000  0.4239220000000  0.3846770000000 1.0
C      1  0.5477600000000  0.4367540000000  0.4239960000000 1.0
C      1  0.5314050000000  0.4432390000000  0.4438120000000 1.0
C      1  0.4785140000000  0.5705180000000  0.5705970000000 1.0
C      1  0.5641210000000  0.4302790000000  0.4041720000000 1.0
C      1  0.4911360000000  0.5602750000000  0.5171280000000 1.0
C      1  0.4978580000000  0.4566270000000  0.4845160000000 1.0
C      1  0.5150670000000  0.4497300000000  0.4636240000000 1.0
C      1  0.4965890000000  0.5824570000000  0.5872960000000 1.0
END
