TITL C-627108-131-1083 28669.6513668493 125000 -991.990514018697 0 0 165 (C1) n - 1
REM
REM in /home/nfs/bkarasulu/CARBON/AIRSS/Generating-Clusters/LCBOP/Only-C1/SD-CG/FIRE-CG
REM
REM
REM
REM
REM
REM ./C.cell (11c1c37f851c82e70ff6c80c92926a4b)
REM AIRSS Version 0.9.1 bugfix July 2018 build 013d7b7c2542+ Fri, 06 Jul 2018 19:26:36 +0100
REM compiler GCC version 9.2.1 20190827 (Red Hat 9.2.1-1)
REM options -cpp -mtune=generic -march=x86-64 -g -O0 -fpre-include=/usr/include/finclude/math-vector-fortran.h
REM seed 1617189952 -2101255365 -1918060610 -175699633 -739173396 -763098029 1187408752 971095969 -37765714 -858389507 1495964086 -318443856 -1459616786 133545404 228072548 264884558 -104079585 -1686956127 -1180585780 -494136494 -697708696 1976569427 -2124410838 124645655 2096673135 952232171 1336462935 720084121 -1659072436 -1103813077 1631029221 -876301362 1635056001
REM
CELL 1.54180   50.00000   50.00000   50.00000   90.00000   90.00000   90.00000
LATT -1
SFAC C  
C      1  0.4618590000000  0.5051560000000  0.5493930000000 1.0
C      1  0.5649760000000  0.4560270000000  0.5778860000000 1.0
C      1  0.4151420000000  0.4301600000000  0.4614810000000 1.0
C      1  0.3913070000000  0.4632270000000  0.5677100000000 1.0
C      1  0.5630480000000  0.5272840000000  0.6305220000000 1.0
C      1  0.4764850000000  0.5721210000000  0.5096520000000 1.0
C      1  0.5084520000000  0.5978800000000  0.3594930000000 1.0
C      1  0.5606700000000  0.4454630000000  0.4937150000000 1.0
C      1  0.5464210000000  0.6622600000000  0.4511860000000 1.0
C      1  0.5242660000000  0.5908980000000  0.3399790000000 1.0
C      1  0.4926210000000  0.6034550000000  0.3800080000000 1.0
C      1  0.5463800000000  0.5507160000000  0.4809650000000 1.0
C      1  0.5152570000000  0.4211510000000  0.5545010000000 1.0
C      1  0.5832940000000  0.4634910000000  0.4281840000000 1.0
C      1  0.4322610000000  0.5400940000000  0.4362690000000 1.0
C      1  0.5288820000000  0.5931290000000  0.4664370000000 1.0
C      1  0.5021760000000  0.4017500000000  0.4209370000000 1.0
C      1  0.5531840000000  0.4743970000000  0.5347070000000 1.0
C      1  0.5294320000000  0.5861180000000  0.4389060000000 1.0
C      1  0.5189880000000  0.4820670000000  0.5013860000000 1.0
C      1  0.5696830000000  0.4998740000000  0.3981720000000 1.0
C      1  0.4865250000000  0.5130600000000  0.5362350000000 1.0
C      1  0.4631930000000  0.6034960000000  0.4238590000000 1.0
C      1  0.4084460000000  0.6200230000000  0.5301670000000 1.0
C      1  0.4882820000000  0.5908940000000  0.5497510000000 1.0
C      1  0.6309080000000  0.4391840000000  0.4986940000000 1.0
C      1  0.5874530000000  0.5467140000000  0.4465720000000 1.0
C      1  0.5806970000000  0.4664930000000  0.4568160000000 1.0
C      1  0.5426250000000  0.6403880000000  0.4648330000000 1.0
C      1  0.6071470000000  0.4509890000000  0.5070760000000 1.0
C      1  0.5416590000000  0.6165190000000  0.5079640000000 1.0
C      1  0.4280200000000  0.4918550000000  0.5152020000000 1.0
C      1  0.5220040000000  0.3987340000000  0.4691750000000 1.0
C      1  0.5917070000000  0.5148100000000  0.4069080000000 1.0
C      1  0.4115970000000  0.5200000000000  0.4312250000000 1.0
C      1  0.4743360000000  0.5656410000000  0.5574310000000 1.0
C      1  0.4480920000000  0.3845100000000  0.4678500000000 1.0
C      1  0.4673980000000  0.4831710000000  0.4464570000000 1.0
C      1  0.4632900000000  0.5032750000000  0.4253540000000 1.0
C      1  0.5023260000000  0.5206530000000  0.6137200000000 1.0
C      1  0.5332510000000  0.5395080000000  0.4127840000000 1.0
C      1  0.5459560000000  0.5287470000000  0.4993150000000 1.0
C      1  0.5364520000000  0.4205090000000  0.4528020000000 1.0
C      1  0.4726140000000  0.4224080000000  0.3899060000000 1.0
C      1  0.4928770000000  0.6213240000000  0.5123150000000 1.0
C      1  0.4776280000000  0.6056900000000  0.4017430000000 1.0
C      1  0.5000760000000  0.4203840000000  0.5093180000000 1.0
C      1  0.4861800000000  0.5032300000000  0.5992410000000 1.0
C      1  0.5221710000000  0.4507700000000  0.6094940000000 1.0
C      1  0.5086560000000  0.4662070000000  0.5246110000000 1.0
C      1  0.5004770000000  0.5340090000000  0.4929220000000 1.0
C      1  0.5224210000000  0.5635500000000  0.6011740000000 1.0
C      1  0.4202920000000  0.4459160000000  0.4375950000000 1.0
C      1  0.5661520000000  0.4238010000000  0.5344950000000 1.0
C      1  0.4748770000000  0.3843660000000  0.4577650000000 1.0
C      1  0.3940140000000  0.4731880000000  0.4869620000000 1.0
C      1  0.5173050000000  0.4741950000000  0.5726770000000 1.0
C      1  0.4180040000000  0.4752030000000  0.4447490000000 1.0
C      1  0.5508590000000  0.4704760000000  0.4585800000000 1.0
C      1  0.5136890000000  0.5108680000000  0.4226140000000 1.0
C      1  0.4366580000000  0.4407640000000  0.4143280000000 1.0
C      1  0.4666600000000  0.4578790000000  0.5501670000000 1.0
C      1  0.5186530000000  0.5012690000000  0.6294750000000 1.0
C      1  0.5244740000000  0.4811540000000  0.5454820000000 1.0
C      1  0.4833650000000  0.6410430000000  0.4963920000000 1.0
C      1  0.4629170000000  0.4806130000000  0.5680250000000 1.0
C      1  0.4988480000000  0.3851590000000  0.4731630000000 1.0
C      1  0.4307090000000  0.5838090000000  0.4623640000000 1.0
C      1  0.3910060000000  0.5169910000000  0.5140280000000 1.0
C      1  0.5136610000000  0.6051120000000  0.5504060000000 1.0
C      1  0.4434060000000  0.4817650000000  0.6146330000000 1.0
C      1  0.5508340000000  0.5376390000000  0.5252380000000 1.0
C      1  0.5377210000000  0.6170860000000  0.4793160000000 1.0
C      1  0.4979330000000  0.5249810000000  0.4657420000000 1.0
C      1  0.5316820000000  0.5295480000000  0.5503090000000 1.0
C      1  0.5620920000000  0.4088610000000  0.4420380000000 1.0
C      1  0.4436990000000  0.4787540000000  0.4622600000000 1.0
C      1  0.4934540000000  0.4767980000000  0.4543650000000 1.0
C      1  0.4299990000000  0.4063080000000  0.4649990000000 1.0
C      1  0.5656200000000  0.5590550000000  0.5409350000000 1.0
C      1  0.5191880000000  0.6194090000000  0.5251450000000 1.0
C      1  0.5109820000000  0.4721490000000  0.6288270000000 1.0
C      1  0.4903870000000  0.4827280000000  0.5808980000000 1.0
C      1  0.5658310000000  0.5467170000000  0.6122180000000 1.0
C      1  0.5431930000000  0.4448520000000  0.4705000000000 1.0
C      1  0.3694810000000  0.4532930000000  0.5564190000000 1.0
C      1  0.4610950000000  0.4625640000000  0.5039810000000 1.0
C      1  0.5379580000000  0.4950000000000  0.4632140000000 1.0
C      1  0.5837190000000  0.3968000000000  0.4339790000000 1.0
C      1  0.6058970000000  0.4563560000000  0.5375450000000 1.0
C      1  0.4791030000000  0.5982700000000  0.5218640000000 1.0
C      1  0.4602690000000  0.4766560000000  0.6349540000000 1.0
C      1  0.6274790000000  0.4740170000000  0.5457630000000 1.0
C      1  0.4469530000000  0.4177570000000  0.3999530000000 1.0
C      1  0.4810880000000  0.4353770000000  0.6222520000000 1.0
C      1  0.4759420000000  0.5548100000000  0.5847330000000 1.0
C      1  0.4959120000000  0.4514710000000  0.4673990000000 1.0
C      1  0.5865650000000  0.4529820000000  0.5605140000000 1.0
C      1  0.4877050000000  0.4316590000000  0.4860950000000 1.0
C      1  0.3971460000000  0.4883270000000  0.4628040000000 1.0
C      1  0.5251520000000  0.5706950000000  0.4833820000000 1.0
C      1  0.5971470000000  0.5091490000000  0.5283110000000 1.0
C      1  0.5486830000000  0.5576810000000  0.5927960000000 1.0
C      1  0.5179800000000  0.4247440000000  0.4271810000000 1.0
C      1  0.3487250000000  0.4439680000000  0.5436970000000 1.0
C      1  0.4997870000000  0.4318600000000  0.6005050000000 1.0
C      1  0.4004210000000  0.4449710000000  0.4822400000000 1.0
C      1  0.5639770000000  0.4724570000000  0.4082870000000 1.0
C      1  0.4243190000000  0.5567290000000  0.4588190000000 1.0
C      1  0.6005650000000  0.5267270000000  0.5076850000000 1.0
C      1  0.5237570000000  0.4945260000000  0.4016350000000 1.0
C      1  0.4609860000000  0.4354290000000  0.4976850000000 1.0
C      1  0.4702860000000  0.4299890000000  0.5540740000000 1.0
C      1  0.5651090000000  0.6052800000000  0.5185390000000 1.0
C      1  0.4087780000000  0.5395790000000  0.4763990000000 1.0
C      1  0.5686130000000  0.5533760000000  0.4641280000000 1.0
C      1  0.5313620000000  0.5654330000000  0.4216790000000 1.0
C      1  0.4994580000000  0.5473340000000  0.6014920000000 1.0
C      1  0.5134940000000  0.4349390000000  0.5286290000000 1.0
C      1  0.5970270000000  0.5327520000000  0.4259970000000 1.0
C      1  0.4143180000000  0.4727790000000  0.5766970000000 1.0
C      1  0.5005340000000  0.5620780000000  0.4961590000000 1.0
C      1  0.5117080000000  0.5020510000000  0.4506940000000 1.0
C      1  0.5578050000000  0.4476980000000  0.5217700000000 1.0
C      1  0.5741020000000  0.5833260000000  0.5307880000000 1.0
C      1  0.4352200000000  0.5396730000000  0.5240660000000 1.0
C      1  0.4931080000000  0.4248230000000  0.5726300000000 1.0
C      1  0.4392330000000  0.3621400000000  0.4811360000000 1.0
C      1  0.4478220000000  0.5965040000000  0.4442670000000 1.0
C      1  0.4460320000000  0.4892040000000  0.4075860000000 1.0
C      1  0.4783360000000  0.4669000000000  0.5257700000000 1.0
C      1  0.5122160000000  0.4479490000000  0.4102000000000 1.0
C      1  0.4833290000000  0.4484840000000  0.3992210000000 1.0
C      1  0.4826600000000  0.5188530000000  0.5089710000000 1.0
C      1  0.4513760000000  0.5521630000000  0.5974770000000 1.0
C      1  0.4560180000000  0.4623280000000  0.4048990000000 1.0
C      1  0.5874260000000  0.4553400000000  0.4852260000000 1.0
C      1  0.5519140000000  0.5530530000000  0.5658600000000 1.0
C      1  0.5343590000000  0.4012420000000  0.5594760000000 1.0
C      1  0.4677350000000  0.4167870000000  0.5282360000000 1.0
C      1  0.5369260000000  0.5024970000000  0.4909380000000 1.0
C      1  0.5590830000000  0.4026350000000  0.5491720000000 1.0
C      1  0.4198600000000  0.4939830000000  0.4202130000000 1.0
C      1  0.5731840000000  0.4946700000000  0.5330710000000 1.0
C      1  0.6201390000000  0.5009090000000  0.5424980000000 1.0
C      1  0.5451950000000  0.5138010000000  0.3928250000000 1.0
C      1  0.3987020000000  0.5171330000000  0.4587280000000 1.0
C      1  0.5335890000000  0.4675680000000  0.4058030000000 1.0
C      1  0.4619750000000  0.5118680000000  0.4895350000000 1.0
C      1  0.5441360000000  0.5097900000000  0.6378870000000 1.0
C      1  0.4468420000000  0.4853950000000  0.4918990000000 1.0
C      1  0.3999170000000  0.4896190000000  0.5098340000000 1.0
C      1  0.4591400000000  0.5572780000000  0.5304500000000 1.0
C      1  0.4133070000000  0.6098180000000  0.5066780000000 1.0
C      1  0.4838550000000  0.4613460000000  0.6350310000000 1.0
C      1  0.4202750000000  0.5981850000000  0.4839180000000 1.0
C      1  0.4396840000000  0.4788780000000  0.5868080000000 1.0
C      1  0.4103360000000  0.5377680000000  0.5054250000000 1.0
C      1  0.6513000000000  0.4653230000000  0.5555860000000 1.0
C      1  0.5137210000000  0.5098770000000  0.5448750000000 1.0
C      1  0.4386230000000  0.5116110000000  0.5338460000000 1.0
C      1  0.4810690000000  0.3879300000000  0.4304670000000 1.0
C      1  0.4577900000000  0.5281110000000  0.4381140000000 1.0
C      1  0.4688320000000  0.5251960000000  0.4639070000000 1.0
C      1  0.5379190000000  0.4605670000000  0.5876420000000 1.0
END
