TITL C-627112-676-1591 3.84368234064168e-07 125000 -158.932328642565 0 0 28 (C1) n - 1
REM
REM in /home/nfs/bkarasulu/CARBON/AIRSS/Generating-Clusters/LCBOP/Only-C1/SD-CG/FIRE-CG
REM
REM
REM
REM
REM
REM ./C.cell (11c1c37f851c82e70ff6c80c92926a4b)
REM AIRSS Version 0.9.1 bugfix July 2018 build 013d7b7c2542+ Fri, 06 Jul 2018 19:26:36 +0100
REM compiler GCC version 9.2.1 20190827 (Red Hat 9.2.1-1)
REM options -cpp -mtune=generic -march=x86-64 -g -O0 -fpre-include=/usr/include/finclude/math-vector-fortran.h
REM seed 1023966796 326981938 550194973 -2130560694 -1132539305 -1615701310 1304533343 -1882605860 472282394 -2065082157 -415693192 1959648699 -249955328 75045275 1395605868 374642934 -104135497 -1378117966 1159434344 1297604289 -1466477177 1994244781 1762904040 -496241049 1542623001 -826773478 -766605632 -1964913913 -772760086 -790150304 1399255771 2018752539 1645509782
REM
CELL 1.54180   50.00000   50.00000   50.00000   90.00000   90.00000   90.00000
LATT -1
SFAC C  
C      1  0.5463890000000  0.5584560000000  0.4200190000000 1.0
C      1  0.5458390000000  0.4826770000000  0.5022830000000 1.0
C      1  0.5333750000000  0.5487120000000  0.4420380000000 1.0
C      1  0.5514130000000  0.5103740000000  0.5032020000000 1.0
C      1  0.4354870000000  0.5109820000000  0.4869660000000 1.0
C      1  0.5258890000000  0.4678520000000  0.5125810000000 1.0
C      1  0.4534770000000  0.5503040000000  0.4582340000000 1.0
C      1  0.4702290000000  0.5350960000000  0.5030960000000 1.0
C      1  0.5055430000000  0.5511400000000  0.4440560000000 1.0
C      1  0.5479020000000  0.5363270000000  0.4625210000000 1.0
C      1  0.4471310000000  0.4952560000000  0.5081120000000 1.0
C      1  0.4792650000000  0.5527180000000  0.4474020000000 1.0
C      1  0.5380620000000  0.5240320000000  0.5240640000000 1.0
C      1  0.4427100000000  0.4692400000000  0.5168220000000 1.0
C      1  0.5146330000000  0.5182800000000  0.5360710000000 1.0
C      1  0.4857010000000  0.4508980000000  0.5361840000000 1.0
C      1  0.4962260000000  0.4305030000000  0.5527630000000 1.0
C      1  0.4971200000000  0.4338930000000  0.5798950000000 1.0
C      1  0.4320280000000  0.5624150000000  0.4464430000000 1.0
C      1  0.5056840000000  0.4069490000000  0.5410370000000 1.0
C      1  0.5639920000000  0.5241910000000  0.4819990000000 1.0
C      1  0.4586570000000  0.4511810000000  0.5285430000000 1.0
C      1  0.5912500000000  0.5257290000000  0.4805900000000 1.0
C      1  0.5019080000000  0.4722960000000  0.5268350000000 1.0
C      1  0.4940320000000  0.4999020000000  0.5297030000000 1.0
C      1  0.4707400000000  0.5100110000000  0.5175730000000 1.0
C      1  0.5146300000000  0.3854440000000  0.5293470000000 1.0
C      1  0.4506850000000  0.5351420000000  0.4816220000000 1.0
END
