TITL C-627106-156-1901 1.83801104382425 125000 -430.875536776526 0 0 73 (C1) n - 1
REM
REM in /home/nfs/bkarasulu/CARBON/AIRSS/Generating-Clusters/LCBOP/Only-C1/SD-CG/FIRE-CG
REM
REM
REM
REM
REM
REM ./C.cell (11c1c37f851c82e70ff6c80c92926a4b)
REM AIRSS Version 0.9.1 bugfix July 2018 build 013d7b7c2542+ Fri, 06 Jul 2018 19:26:36 +0100
REM compiler GCC version 9.2.1 20190827 (Red Hat 9.2.1-1)
REM options -cpp -mtune=generic -march=x86-64 -g -O0 -fpre-include=/usr/include/finclude/math-vector-fortran.h
REM seed 994341461 1884662605 1433029035 930979581 -1145081196 -1147301194 -732727709 588230094 -929440866 -941562051 -629586931 -2108842663 -288396292 -295094177 -453140986 731847707 -1808195919 -985662278 -902050839 1887453681 -1681015026 -409419566 932477163 951759531 1057896692 770793456 -1431066037 1015514148 -1310513205 -1262819279 -150545868 1817815996 1286004718
REM
CELL 1.54180   50.00000   50.00000   50.00000   90.00000   90.00000   90.00000
LATT -1
SFAC C  
C      1  0.4718000000000  0.5350130000000  0.4076730000000 1.0
C      1  0.5593820000000  0.4575300000000  0.4265800000000 1.0
C      1  0.4437290000000  0.4475920000000  0.4934150000000 1.0
C      1  0.5653870000000  0.5514310000000  0.4173440000000 1.0
C      1  0.4525880000000  0.5942140000000  0.5674660000000 1.0
C      1  0.4540670000000  0.5269560000000  0.5856820000000 1.0
C      1  0.5681950000000  0.5018610000000  0.4014890000000 1.0
C      1  0.5599150000000  0.5693070000000  0.4361650000000 1.0
C      1  0.4835870000000  0.5009850000000  0.5536950000000 1.0
C      1  0.4339360000000  0.5175090000000  0.4684090000000 1.0
C      1  0.5553300000000  0.4916250000000  0.5034440000000 1.0
C      1  0.4605630000000  0.5354140000000  0.4316620000000 1.0
C      1  0.5046180000000  0.5319860000000  0.3662580000000 1.0
C      1  0.4774400000000  0.4313210000000  0.5217120000000 1.0
C      1  0.4856310000000  0.4761230000000  0.5684620000000 1.0
C      1  0.4985930000000  0.4138550000000  0.5627270000000 1.0
C      1  0.4691280000000  0.4316480000000  0.4476800000000 1.0
C      1  0.4543560000000  0.4518030000000  0.4378940000000 1.0
C      1  0.5067080000000  0.4344500000000  0.5812180000000 1.0
C      1  0.5240250000000  0.4515450000000  0.4607120000000 1.0
C      1  0.5225490000000  0.5300500000000  0.3474340000000 1.0
C      1  0.5515690000000  0.4496310000000  0.4520870000000 1.0
C      1  0.5612090000000  0.4672370000000  0.5179190000000 1.0
C      1  0.4772650000000  0.5235910000000  0.5696170000000 1.0
C      1  0.4412420000000  0.4758760000000  0.4946630000000 1.0
C      1  0.4970640000000  0.4516150000000  0.5219940000000 1.0
C      1  0.4711350000000  0.5482260000000  0.4769570000000 1.0
C      1  0.5342990000000  0.4201490000000  0.5309550000000 1.0
C      1  0.4369950000000  0.4817420000000  0.5686550000000 1.0
C      1  0.5175170000000  0.4769690000000  0.4712200000000 1.0
C      1  0.4714330000000  0.4992630000000  0.5277240000000 1.0
C      1  0.5682800000000  0.5336140000000  0.5239590000000 1.0
C      1  0.5477020000000  0.4190170000000  0.5061420000000 1.0
C      1  0.5935940000000  0.5160770000000  0.4870400000000 1.0
C      1  0.5113550000000  0.4277660000000  0.4712620000000 1.0
C      1  0.4487350000000  0.5749740000000  0.5852740000000 1.0
C      1  0.5317720000000  0.4924720000000  0.4879500000000 1.0
C      1  0.4437170000000  0.5506890000000  0.6264680000000 1.0
C      1  0.5728000000000  0.5138790000000  0.5046760000000 1.0
C      1  0.5515330000000  0.5812910000000  0.4582800000000 1.0
C      1  0.5385960000000  0.5881070000000  0.4821480000000 1.0
C      1  0.4872120000000  0.6435280000000  0.4813960000000 1.0
C      1  0.4678360000000  0.6226720000000  0.5255860000000 1.0
C      1  0.5204420000000  0.4026690000000  0.5481070000000 1.0
C      1  0.4592640000000  0.6098770000000  0.5471540000000 1.0
C      1  0.4486530000000  0.5509230000000  0.5995750000000 1.0
C      1  0.5651340000000  0.4765590000000  0.4089600000000 1.0
C      1  0.4561440000000  0.4362040000000  0.5647310000000 1.0
C      1  0.4283850000000  0.4845460000000  0.5416150000000 1.0
C      1  0.5216970000000  0.4458030000000  0.5298960000000 1.0
C      1  0.5494420000000  0.6065950000000  0.4991090000000 1.0
C      1  0.5640930000000  0.4428520000000  0.5011240000000 1.0
C      1  0.5361350000000  0.4704400000000  0.5655240000000 1.0
C      1  0.4363790000000  0.5047480000000  0.5851660000000 1.0
C      1  0.4098290000000  0.5282580000000  0.4755610000000 1.0
C      1  0.4773900000000  0.6336690000000  0.5034410000000 1.0
C      1  0.4738410000000  0.4208300000000  0.5485290000000 1.0
C      1  0.4657860000000  0.4298480000000  0.4959870000000 1.0
C      1  0.4384400000000  0.4895890000000  0.4698070000000 1.0
C      1  0.4824880000000  0.4262320000000  0.4721390000000 1.0
C      1  0.4460960000000  0.4885900000000  0.5196300000000 1.0
C      1  0.4915310000000  0.5621800000000  0.4865550000000 1.0
C      1  0.4591870000000  0.4635120000000  0.5717330000000 1.0
C      1  0.5143040000000  0.5756380000000  0.4882760000000 1.0
C      1  0.5622730000000  0.5509150000000  0.5425000000000 1.0
C      1  0.4550410000000  0.5340730000000  0.4590360000000 1.0
C      1  0.4870790000000  0.5337560000000  0.3860540000000 1.0
C      1  0.5101490000000  0.4622950000000  0.5748820000000 1.0
C      1  0.5700730000000  0.4463310000000  0.4734480000000 1.0
C      1  0.4428170000000  0.4744140000000  0.4464300000000 1.0
C      1  0.5682440000000  0.5281940000000  0.4048520000000 1.0
C      1  0.5299650000000  0.4109590000000  0.4849370000000 1.0
C      1  0.5553110000000  0.4688950000000  0.5461470000000 1.0
END
