TITL C-627109-622-739 -2.09898427564079e-06 125000 -584.22551256582 0 0 96 (C1) n - 1
REM
REM in /home/nfs/bkarasulu/CARBON/AIRSS/Generating-Clusters/LCBOP/Only-C1/SD-CG/FIRE-CG
REM
REM
REM
REM
REM
REM ./C.cell (11c1c37f851c82e70ff6c80c92926a4b)
REM AIRSS Version 0.9.1 bugfix July 2018 build 013d7b7c2542+ Fri, 06 Jul 2018 19:26:36 +0100
REM compiler GCC version 9.2.1 20190827 (Red Hat 9.2.1-1)
REM options -cpp -mtune=generic -march=x86-64 -g -O0 -fpre-include=/usr/include/finclude/math-vector-fortran.h
REM seed 647216215 -223306331 -1996024620 196871209 1836227444 1674267923 1923363361 781259715 -1214336303 -1942168669 -1040168376 -509823541 682419849 1615621990 744001239 182982742 2020231757 1475933305 -753683286 393652122 -81444214 1036323313 1665212489 -2044359207 345569236 1724556697 1916502730 1045884887 1693673320 -692546831 1024441626 -1159942016 1760734360
REM
CELL 1.54180   50.00000   50.00000   50.00000   90.00000   90.00000   90.00000
LATT -1
SFAC C  
C      1  0.4297320000000  0.4206710000000  0.5154840000000 1.0
C      1  0.3925040000000  0.5487570000000  0.4899190000000 1.0
C      1  0.4433840000000  0.5049730000000  0.4900740000000 1.0
C      1  0.4482840000000  0.4358590000000  0.5593050000000 1.0
C      1  0.4315170000000  0.4243100000000  0.5419770000000 1.0
C      1  0.4894250000000  0.4301910000000  0.5140970000000 1.0
C      1  0.5426260000000  0.5134070000000  0.4001320000000 1.0
C      1  0.5462690000000  0.5521050000000  0.4786780000000 1.0
C      1  0.4143830000000  0.6066080000000  0.4501650000000 1.0
C      1  0.5185410000000  0.5021390000000  0.3970130000000 1.0
C      1  0.5718620000000  0.5255290000000  0.5285560000000 1.0
C      1  0.5826740000000  0.5080230000000  0.4326790000000 1.0
C      1  0.5439190000000  0.5279950000000  0.5210950000000 1.0
C      1  0.4939620000000  0.5907370000000  0.5704860000000 1.0
C      1  0.5299770000000  0.5175570000000  0.5441570000000 1.0
C      1  0.5358450000000  0.3648760000000  0.5221170000000 1.0
C      1  0.4460420000000  0.4254010000000  0.4947140000000 1.0
C      1  0.4287700000000  0.4776590000000  0.4359600000000 1.0
C      1  0.5056690000000  0.5001550000000  0.4703240000000 1.0
C      1  0.5366180000000  0.4504240000000  0.4340990000000 1.0
C      1  0.5042800000000  0.4864210000000  0.5211640000000 1.0
C      1  0.5407390000000  0.4759660000000  0.5682850000000 1.0
C      1  0.5435910000000  0.3702880000000  0.4965720000000 1.0
C      1  0.5717120000000  0.5708780000000  0.5536430000000 1.0
C      1  0.5742000000000  0.5108460000000  0.5529150000000 1.0
C      1  0.4724900000000  0.4346640000000  0.4921740000000 1.0
C      1  0.5909860000000  0.5431130000000  0.5183540000000 1.0
C      1  0.4298660000000  0.5138770000000  0.5449580000000 1.0
C      1  0.4377200000000  0.5218130000000  0.4698410000000 1.0
C      1  0.5910990000000  0.5679740000000  0.5326420000000 1.0
C      1  0.5232530000000  0.5292240000000  0.5938450000000 1.0
C      1  0.5714520000000  0.4729420000000  0.4639400000000 1.0
C      1  0.5702970000000  0.5827890000000  0.4434660000000 1.0
C      1  0.6033530000000  0.5330340000000  0.4950810000000 1.0
C      1  0.4580560000000  0.5765540000000  0.4835470000000 1.0
C      1  0.4001410000000  0.5283220000000  0.5080560000000 1.0
C      1  0.4739100000000  0.4226240000000  0.4265910000000 1.0
C      1  0.5005590000000  0.5655000000000  0.5782680000000 1.0
C      1  0.5483360000000  0.5030360000000  0.5625500000000 1.0
C      1  0.4298390000000  0.5828020000000  0.5196000000000 1.0
C      1  0.4792420000000  0.4401170000000  0.4452300000000 1.0
C      1  0.5049370000000  0.5053960000000  0.5418750000000 1.0
C      1  0.5513400000000  0.5660670000000  0.5706930000000 1.0
C      1  0.5451370000000  0.4049920000000  0.4601850000000 1.0
C      1  0.5071800000000  0.5244680000000  0.4868370000000 1.0
C      1  0.4818060000000  0.4830390000000  0.5055120000000 1.0
C      1  0.4934080000000  0.4954730000000  0.5681170000000 1.0
C      1  0.5609920000000  0.4413560000000  0.5052310000000 1.0
C      1  0.4102280000000  0.4777560000000  0.4553940000000 1.0
C      1  0.6086620000000  0.5880050000000  0.5266310000000 1.0
C      1  0.5179950000000  0.4578120000000  0.4141440000000 1.0
C      1  0.4965190000000  0.5188100000000  0.5869910000000 1.0
C      1  0.4344670000000  0.5928760000000  0.4929150000000 1.0
C      1  0.4341580000000  0.6032660000000  0.4317040000000 1.0
C      1  0.5461470000000  0.4718540000000  0.4503970000000 1.0
C      1  0.4401710000000  0.5557040000000  0.5222560000000 1.0
C      1  0.4699060000000  0.4533470000000  0.5612420000000 1.0
C      1  0.4848710000000  0.5381370000000  0.4979040000000 1.0
C      1  0.4548270000000  0.5467960000000  0.5862820000000 1.0
C      1  0.5466010000000  0.3968030000000  0.4868780000000 1.0
C      1  0.5661640000000  0.5146040000000  0.4127230000000 1.0
C      1  0.5416150000000  0.4239440000000  0.4417340000000 1.0
C      1  0.4216200000000  0.5341160000000  0.5269810000000 1.0
C      1  0.5287030000000  0.4741970000000  0.5152130000000 1.0
C      1  0.4564120000000  0.4924690000000  0.5119800000000 1.0
C      1  0.5576830000000  0.5682090000000  0.4610090000000 1.0
C      1  0.5752690000000  0.4528950000000  0.4836290000000 1.0
C      1  0.4497950000000  0.4946630000000  0.5400030000000 1.0
C      1  0.4130170000000  0.5904910000000  0.4734760000000 1.0
C      1  0.5511820000000  0.4598520000000  0.5238460000000 1.0
C      1  0.5296100000000  0.3848250000000  0.5396080000000 1.0
C      1  0.5295450000000  0.4121450000000  0.5313770000000 1.0
C      1  0.4985460000000  0.4461970000000  0.5592730000000 1.0
C      1  0.5028910000000  0.4801730000000  0.4053180000000 1.0
C      1  0.5868490000000  0.4967990000000  0.4584130000000 1.0
C      1  0.4879900000000  0.4783350000000  0.4781330000000 1.0
C      1  0.4313160000000  0.5475380000000  0.4600160000000 1.0
C      1  0.5329360000000  0.5343050000000  0.4956780000000 1.0
C      1  0.4638020000000  0.5557650000000  0.5036850000000 1.0
C      1  0.3941370000000  0.5020290000000  0.4988300000000 1.0
C      1  0.4666710000000  0.4822630000000  0.5599640000000 1.0
C      1  0.3975740000000  0.4853590000000  0.4778880000000 1.0
C      1  0.5066890000000  0.4291860000000  0.5366850000000 1.0
C      1  0.4505790000000  0.4812100000000  0.4207220000000 1.0
C      1  0.5469500000000  0.4167540000000  0.5076070000000 1.0
C      1  0.5124750000000  0.4699500000000  0.5715400000000 1.0
C      1  0.4533140000000  0.5840980000000  0.4345570000000 1.0
C      1  0.4750750000000  0.4821130000000  0.4097950000000 1.0
C      1  0.5552380000000  0.4581100000000  0.5517220000000 1.0
C      1  0.4076210000000  0.5618750000000  0.4700800000000 1.0
C      1  0.4816640000000  0.5438220000000  0.5830050000000 1.0
C      1  0.5279460000000  0.5559550000000  0.5827520000000 1.0
C      1  0.4807370000000  0.4517180000000  0.4704610000000 1.0
C      1  0.6002310000000  0.5128970000000  0.4774090000000 1.0
C      1  0.5280350000000  0.4926960000000  0.4553950000000 1.0
C      1  0.4536500000000  0.5663190000000  0.4565550000000 1.0
END
