TITL C-627109-622-733 14740.1955904524 125000 -1019.37438957643 0 0 169 (C1) n - 1
REM
REM in /home/nfs/bkarasulu/CARBON/AIRSS/Generating-Clusters/LCBOP/Only-C1/SD-CG/FIRE-CG
REM
REM
REM
REM
REM
REM ./C.cell (11c1c37f851c82e70ff6c80c92926a4b)
REM AIRSS Version 0.9.1 bugfix July 2018 build 013d7b7c2542+ Fri, 06 Jul 2018 19:26:36 +0100
REM compiler GCC version 9.2.1 20190827 (Red Hat 9.2.1-1)
REM options -cpp -mtune=generic -march=x86-64 -g -O0 -fpre-include=/usr/include/finclude/math-vector-fortran.h
REM seed 1258967546 1417148626 -99035389 -1090662875 1336516512 -27704432 832374964 1526772507 -1543275840 138954478 -88328953 -1269140236 355240831 -914633931 -2034351504 893380221 1359702764 -1073083412 683443056 165684237 -1951973635 88064015 -1851851887 132821292 1933348941 -555058872 -586045965 18368575 -1755547465 -1439590712 843493415 -508939223 -329569170
REM
CELL 1.54180   50.00000   50.00000   50.00000   90.00000   90.00000   90.00000
LATT -1
SFAC C  
C      1  0.3823220000000  0.5500410000000  0.6052500000000 1.0
C      1  0.5202890000000  0.5105300000000  0.3694850000000 1.0
C      1  0.5750470000000  0.5705340000000  0.4877540000000 1.0
C      1  0.4959280000000  0.4862260000000  0.5070670000000 1.0
C      1  0.4939830000000  0.7165220000000  0.6060970000000 1.0
C      1  0.4047530000000  0.4975600000000  0.4974320000000 1.0
C      1  0.4601580000000  0.3575180000000  0.4273250000000 1.0
C      1  0.3747040000000  0.4755050000000  0.4608090000000 1.0
C      1  0.6180370000000  0.4864060000000  0.5130290000000 1.0
C      1  0.4659930000000  0.4534150000000  0.4774350000000 1.0
C      1  0.4218590000000  0.3961160000000  0.4799660000000 1.0
C      1  0.5407340000000  0.4881050000000  0.4112620000000 1.0
C      1  0.6265720000000  0.5031080000000  0.4646620000000 1.0
C      1  0.6085600000000  0.4936260000000  0.4438200000000 1.0
C      1  0.5217380000000  0.4408210000000  0.5005100000000 1.0
C      1  0.5028300000000  0.5863850000000  0.4990170000000 1.0
C      1  0.5927550000000  0.4470310000000  0.5036440000000 1.0
C      1  0.5933450000000  0.4749810000000  0.5049030000000 1.0
C      1  0.4769520000000  0.5498090000000  0.5952410000000 1.0
C      1  0.5496680000000  0.5522780000000  0.6012370000000 1.0
C      1  0.5245340000000  0.5739670000000  0.4043300000000 1.0
C      1  0.5144020000000  0.5880940000000  0.4749780000000 1.0
C      1  0.4156530000000  0.4293650000000  0.5134070000000 1.0
C      1  0.4842060000000  0.6688660000000  0.5861820000000 1.0
C      1  0.4580850000000  0.4522440000000  0.4512810000000 1.0
C      1  0.6362970000000  0.5291670000000  0.4583600000000 1.0
C      1  0.4789290000000  0.5822160000000  0.4230030000000 1.0
C      1  0.5739190000000  0.5207570000000  0.5055430000000 1.0
C      1  0.5742850000000  0.4253310000000  0.5465620000000 1.0
C      1  0.5463220000000  0.5525530000000  0.5489850000000 1.0
C      1  0.4136860000000  0.4677850000000  0.5467060000000 1.0
C      1  0.5037030000000  0.5427910000000  0.5913310000000 1.0
C      1  0.5258590000000  0.5367150000000  0.3714210000000 1.0
C      1  0.4259910000000  0.3841220000000  0.4545480000000 1.0
C      1  0.6885900000000  0.4830640000000  0.4969120000000 1.0
C      1  0.4434890000000  0.4067050000000  0.5781940000000 1.0
C      1  0.4725580000000  0.5681470000000  0.5336690000000 1.0
C      1  0.4828670000000  0.4477600000000  0.5314720000000 1.0
C      1  0.5259020000000  0.5348000000000  0.5499290000000 1.0
C      1  0.4697200000000  0.5456630000000  0.4539050000000 1.0
C      1  0.3445520000000  0.4157620000000  0.3636660000000 1.0
C      1  0.4616550000000  0.6233380000000  0.4873640000000 1.0
C      1  0.4817540000000  0.6453010000000  0.5743400000000 1.0
C      1  0.5537650000000  0.5308730000000  0.4613330000000 1.0
C      1  0.6626610000000  0.4875490000000  0.4938450000000 1.0
C      1  0.5525750000000  0.4067900000000  0.5447410000000 1.0
C      1  0.4519580000000  0.3737250000000  0.4490860000000 1.0
C      1  0.4454460000000  0.5230130000000  0.4941270000000 1.0
C      1  0.5765200000000  0.5574040000000  0.4224190000000 1.0
C      1  0.3855530000000  0.4305920000000  0.4730620000000 1.0
C      1  0.6167490000000  0.4856430000000  0.5418560000000 1.0
C      1  0.5027090000000  0.5393310000000  0.5054820000000 1.0
C      1  0.4734580000000  0.4875250000000  0.5730010000000 1.0
C      1  0.5019430000000  0.5229060000000  0.4813620000000 1.0
C      1  0.3708230000000  0.5534630000000  0.6283950000000 1.0
C      1  0.5710130000000  0.5831300000000  0.4639260000000 1.0
C      1  0.4029990000000  0.5210270000000  0.5148150000000 1.0
C      1  0.4673180000000  0.6217330000000  0.5349140000000 1.0
C      1  0.5059100000000  0.3684840000000  0.4339230000000 1.0
C      1  0.5178650000000  0.4261330000000  0.5728190000000 1.0
C      1  0.5950620000000  0.4752570000000  0.5581930000000 1.0
C      1  0.4240230000000  0.4766640000000  0.5016690000000 1.0
C      1  0.5272570000000  0.4165400000000  0.4272970000000 1.0
C      1  0.5625460000000  0.5787570000000  0.4366240000000 1.0
C      1  0.5678350000000  0.5306240000000  0.6041670000000 1.0
C      1  0.4100070000000  0.5478690000000  0.5023510000000 1.0
C      1  0.5398260000000  0.3950280000000  0.5215030000000 1.0
C      1  0.6377150000000  0.5702770000000  0.4323930000000 1.0
C      1  0.5309320000000  0.5441300000000  0.4598810000000 1.0
C      1  0.5735220000000  0.4934820000000  0.4969400000000 1.0
C      1  0.4585580000000  0.5620830000000  0.5802700000000 1.0
C      1  0.4606930000000  0.4778410000000  0.4943140000000 1.0
C      1  0.4072830000000  0.5174260000000  0.5437570000000 1.0
C      1  0.5113050000000  0.4453990000000  0.5281620000000 1.0
C      1  0.5332400000000  0.4393820000000  0.4142700000000 1.0
C      1  0.4915110000000  0.5647780000000  0.5127000000000 1.0
C      1  0.5367780000000  0.4059650000000  0.5682580000000 1.0
C      1  0.4169970000000  0.5705620000000  0.5188330000000 1.0
C      1  0.4872640000000  0.4066130000000  0.5032220000000 1.0
C      1  0.5942010000000  0.4204590000000  0.4482090000000 1.0
C      1  0.4033790000000  0.3957130000000  0.6126000000000 1.0
C      1  0.4829020000000  0.6215540000000  0.5592270000000 1.0
C      1  0.3329990000000  0.4157520000000  0.3402960000000 1.0
C      1  0.5175480000000  0.6673690000000  0.5073470000000 1.0
C      1  0.4737220000000  0.3823030000000  0.4660050000000 1.0
C      1  0.4064110000000  0.3853230000000  0.4346680000000 1.0
C      1  0.3669060000000  0.4379890000000  0.4295250000000 1.0
C      1  0.4080810000000  0.5423790000000  0.5581390000000 1.0
C      1  0.5014800000000  0.4985410000000  0.5315830000000 1.0
C      1  0.4414220000000  0.3916920000000  0.5014710000000 1.0
C      1  0.5117190000000  0.3983230000000  0.5156070000000 1.0
C      1  0.5886020000000  0.4980430000000  0.4252180000000 1.0
C      1  0.5823910000000  0.4442790000000  0.4446540000000 1.0
C      1  0.5719000000000  0.5203430000000  0.6293250000000 1.0
C      1  0.4440140000000  0.5866590000000  0.4598310000000 1.0
C      1  0.5347200000000  0.5801160000000  0.4305030000000 1.0
C      1  0.4495780000000  0.4989940000000  0.5618710000000 1.0
C      1  0.5237380000000  0.4619780000000  0.4548070000000 1.0
C      1  0.4057600000000  0.4189050000000  0.4879100000000 1.0
C      1  0.3879650000000  0.3963280000000  0.4190280000000 1.0
C      1  0.5374210000000  0.5506760000000  0.3928570000000 1.0
C      1  0.6025200000000  0.5336560000000  0.5707110000000 1.0
C      1  0.4786320000000  0.4314860000000  0.4905180000000 1.0
C      1  0.4973160000000  0.6509530000000  0.5078530000000 1.0
C      1  0.3743890000000  0.4482820000000  0.4543820000000 1.0
C      1  0.4996980000000  0.3881100000000  0.4540820000000 1.0
C      1  0.5759380000000  0.5476990000000  0.5024990000000 1.0
C      1  0.5312340000000  0.4833270000000  0.4718080000000 1.0
C      1  0.5016310000000  0.4944290000000  0.5633610000000 1.0
C      1  0.5804750000000  0.5308810000000  0.4579770000000 1.0
C      1  0.7141190000000  0.4787290000000  0.4999320000000 1.0
C      1  0.4888850000000  0.5629080000000  0.4420280000000 1.0
C      1  0.4997820000000  0.6009350000000  0.5700710000000 1.0
C      1  0.4448540000000  0.5581250000000  0.4630080000000 1.0
C      1  0.4391800000000  0.4047040000000  0.5506260000000 1.0
C      1  0.4411980000000  0.6105700000000  0.5317420000000 1.0
C      1  0.4543540000000  0.5265060000000  0.5199050000000 1.0
C      1  0.4575830000000  0.5201750000000  0.5451590000000 1.0
C      1  0.5112790000000  0.5230790000000  0.5723530000000 1.0
C      1  0.5243600000000  0.4745440000000  0.5667230000000 1.0
C      1  0.5238410000000  0.5628860000000  0.5956510000000 1.0
C      1  0.4165740000000  0.4567300000000  0.5205820000000 1.0
C      1  0.5548320000000  0.3792540000000  0.5047420000000 1.0
C      1  0.5322770000000  0.4647870000000  0.4269250000000 1.0
C      1  0.6239220000000  0.5492590000000  0.4428640000000 1.0
C      1  0.4973950000000  0.5835860000000  0.4011030000000 1.0
C      1  0.5166140000000  0.5691610000000  0.4524040000000 1.0
C      1  0.4783600000000  0.5211830000000  0.4654240000000 1.0
C      1  0.5872630000000  0.4476520000000  0.5548600000000 1.0
C      1  0.4424990000000  0.6021250000000  0.4841270000000 1.0
C      1  0.4241390000000  0.5627030000000  0.5457520000000 1.0
C      1  0.4941570000000  0.4215810000000  0.5866450000000 1.0
C      1  0.5597160000000  0.5379220000000  0.4076010000000 1.0
C      1  0.6024350000000  0.4101900000000  0.4717310000000 1.0
C      1  0.5183990000000  0.5906770000000  0.5894780000000 1.0
C      1  0.4685620000000  0.4146600000000  0.5876750000000 1.0
C      1  0.5154880000000  0.4126390000000  0.4532560000000 1.0
C      1  0.5498380000000  0.4833470000000  0.5747280000000 1.0
C      1  0.5262780000000  0.4911410000000  0.3869530000000 1.0
C      1  0.5130120000000  0.5248600000000  0.5272400000000 1.0
C      1  0.5823740000000  0.5189320000000  0.5821950000000 1.0
C      1  0.3565940000000  0.4159470000000  0.3872660000000 1.0
C      1  0.3941840000000  0.5464790000000  0.5818330000000 1.0
C      1  0.4683720000000  0.3877970000000  0.4932520000000 1.0
C      1  0.5198650000000  0.4367240000000  0.4703510000000 1.0
C      1  0.5630070000000  0.5078190000000  0.4143820000000 1.0
C      1  0.4561580000000  0.5953260000000  0.4347260000000 1.0
C      1  0.5589830000000  0.4834460000000  0.4751350000000 1.0
C      1  0.4516380000000  0.5664310000000  0.5534200000000 1.0
C      1  0.5962650000000  0.5456670000000  0.4393340000000 1.0
C      1  0.4864270000000  0.3547400000000  0.4207090000000 1.0
C      1  0.5116620000000  0.4963440000000  0.4861650000000 1.0
C      1  0.4592210000000  0.5037890000000  0.4789170000000 1.0
C      1  0.6352190000000  0.4925720000000  0.4907010000000 1.0
C      1  0.6006230000000  0.4228590000000  0.4953710000000 1.0
C      1  0.4300780000000  0.5948360000000  0.5098830000000 1.0
C      1  0.4628680000000  0.4633740000000  0.5235780000000 1.0
C      1  0.4887450000000  0.6928460000000  0.5965230000000 1.0
C      1  0.3859790000000  0.4934660000000  0.4769730000000 1.0
C      1  0.4300420000000  0.5435320000000  0.4820090000000 1.0
C      1  0.5210220000000  0.4487000000000  0.5554370000000 1.0
C      1  0.3702080000000  0.4167080000000  0.4115390000000 1.0
C      1  0.4215120000000  0.4938230000000  0.5552860000000 1.0
C      1  0.5727630000000  0.4654910000000  0.4577620000000 1.0
C      1  0.4764740000000  0.6327370000000  0.5098940000000 1.0
C      1  0.5324550000000  0.6094600000000  0.6040140000000 1.0
C      1  0.5764480000000  0.4925580000000  0.5723200000000 1.0
C      1  0.4228530000000  0.4009340000000  0.5960850000000 1.0
C      1  0.4332760000000  0.4084750000000  0.5238330000000 1.0
END
