TITL C-627108-131-983 -1.30650725706502e-06 125000 -841.333029347013 0 0 136 (C1) n - 1
REM
REM in /home/nfs/bkarasulu/CARBON/AIRSS/Generating-Clusters/LCBOP/Only-C1/SD-CG/FIRE-CG
REM
REM
REM
REM
REM
REM ./C.cell (11c1c37f851c82e70ff6c80c92926a4b)
REM AIRSS Version 0.9.1 bugfix July 2018 build 013d7b7c2542+ Fri, 06 Jul 2018 19:26:36 +0100
REM compiler GCC version 9.2.1 20190827 (Red Hat 9.2.1-1)
REM options -cpp -mtune=generic -march=x86-64 -g -O0 -fpre-include=/usr/include/finclude/math-vector-fortran.h
REM seed 1804758621 927057168 -108142027 -1823320223 2014189155 748156834 269269900 20372657 188199482 681053748 -1801457288 1408006973 1680162957 456166239 1915187064 -2033275713 1823000676 -1786344558 1874368599 1564407223 -1769494534 -1996679777 -371378921 260950549 2066291530 86935483 -978621936 532605692 -623222781 807947660 19153284 -751706779 184804587
REM
CELL 1.54180   50.00000   50.00000   50.00000   90.00000   90.00000   90.00000
LATT -1
SFAC C  
C      1  0.3917890000000  0.4874960000000  0.5519910000000 1.0
C      1  0.4561780000000  0.4617720000000  0.4205490000000 1.0
C      1  0.5666900000000  0.4379990000000  0.4795220000000 1.0
C      1  0.4942260000000  0.4396780000000  0.5300550000000 1.0
C      1  0.4844860000000  0.5536400000000  0.4877860000000 1.0
C      1  0.4820380000000  0.6022220000000  0.4693870000000 1.0
C      1  0.4272010000000  0.4206320000000  0.5413190000000 1.0
C      1  0.5006450000000  0.4720000000000  0.5710610000000 1.0
C      1  0.5812740000000  0.5143350000000  0.5071910000000 1.0
C      1  0.5780620000000  0.5038430000000  0.4810810000000 1.0
C      1  0.4628040000000  0.4151680000000  0.4217150000000 1.0
C      1  0.4529100000000  0.5138550000000  0.5341120000000 1.0
C      1  0.5275760000000  0.5107000000000  0.5373790000000 1.0
C      1  0.5032230000000  0.3735010000000  0.4599620000000 1.0
C      1  0.5058820000000  0.5536150000000  0.5835540000000 1.0
C      1  0.4797980000000  0.6106840000000  0.5443040000000 1.0
C      1  0.4151870000000  0.5093580000000  0.4870830000000 1.0
C      1  0.5222480000000  0.4424210000000  0.3993370000000 1.0
C      1  0.5361260000000  0.4586350000000  0.5127130000000 1.0
C      1  0.5713680000000  0.5505980000000  0.4296330000000 1.0
C      1  0.4481670000000  0.5481950000000  0.5769070000000 1.0
C      1  0.4435370000000  0.6364470000000  0.4843760000000 1.0
C      1  0.4350720000000  0.4944410000000  0.4708360000000 1.0
C      1  0.4618290000000  0.6214400000000  0.4693010000000 1.0
C      1  0.5458500000000  0.6048040000000  0.5127010000000 1.0
C      1  0.4372050000000  0.4894140000000  0.5317830000000 1.0
C      1  0.4727330000000  0.5288940000000  0.4921030000000 1.0
C      1  0.5576200000000  0.5709330000000  0.5616160000000 1.0
C      1  0.4528290000000  0.3685410000000  0.4926890000000 1.0
C      1  0.5509150000000  0.3900630000000  0.4708780000000 1.0
C      1  0.5555550000000  0.5590200000000  0.5023610000000 1.0
C      1  0.5325710000000  0.4855110000000  0.5265730000000 1.0
C      1  0.5486110000000  0.4403210000000  0.5366820000000 1.0
C      1  0.5934880000000  0.5562770000000  0.4437820000000 1.0
C      1  0.4868750000000  0.4958810000000  0.3844890000000 1.0
C      1  0.5493780000000  0.5286310000000  0.5397530000000 1.0
C      1  0.4245070000000  0.6527380000000  0.4722360000000 1.0
C      1  0.4765910000000  0.3786640000000  0.4514750000000 1.0
C      1  0.4251070000000  0.4217750000000  0.4881240000000 1.0
C      1  0.6115320000000  0.5683320000000  0.5105990000000 1.0
C      1  0.5088930000000  0.6089270000000  0.4750640000000 1.0
C      1  0.5323220000000  0.5839950000000  0.5551980000000 1.0
C      1  0.4804270000000  0.4892800000000  0.5636160000000 1.0
C      1  0.3699290000000  0.4552360000000  0.4843730000000 1.0
C      1  0.5021960000000  0.5233390000000  0.5391800000000 1.0
C      1  0.4995580000000  0.4203360000000  0.5940790000000 1.0
C      1  0.5289670000000  0.5968660000000  0.4900770000000 1.0
C      1  0.5694260000000  0.4631340000000  0.4123760000000 1.0
C      1  0.4738750000000  0.3898060000000  0.4255360000000 1.0
C      1  0.4486740000000  0.5008880000000  0.4470490000000 1.0
C      1  0.5973210000000  0.5127540000000  0.4621090000000 1.0
C      1  0.6146650000000  0.5536230000000  0.4879250000000 1.0
C      1  0.5664710000000  0.4112660000000  0.4770610000000 1.0
C      1  0.4742900000000  0.4302290000000  0.5945640000000 1.0
C      1  0.5124160000000  0.5327320000000  0.5988990000000 1.0
C      1  0.4316980000000  0.5690900000000  0.5361070000000 1.0
C      1  0.5521430000000  0.5321800000000  0.4280760000000 1.0
C      1  0.4899690000000  0.4692150000000  0.3764740000000 1.0
C      1  0.5199710000000  0.4156730000000  0.4471100000000 1.0
C      1  0.5093760000000  0.5005000000000  0.4749270000000 1.0
C      1  0.4876050000000  0.5047960000000  0.4909790000000 1.0
C      1  0.5735500000000  0.5279670000000  0.5811780000000 1.0
C      1  0.6026950000000  0.5036300000000  0.5230420000000 1.0
C      1  0.5883870000000  0.4787730000000  0.4229180000000 1.0
C      1  0.4778490000000  0.5114960000000  0.5473320000000 1.0
C      1  0.4088730000000  0.4889150000000  0.5302260000000 1.0
C      1  0.5062290000000  0.6203180000000  0.5395970000000 1.0
C      1  0.6051050000000  0.5406570000000  0.4643310000000 1.0
C      1  0.5629640000000  0.5345810000000  0.5153620000000 1.0
C      1  0.5311260000000  0.6069630000000  0.5374930000000 1.0
C      1  0.5061030000000  0.5193840000000  0.4223340000000 1.0
C      1  0.4416040000000  0.4976550000000  0.5939030000000 1.0
C      1  0.4524210000000  0.4745680000000  0.5125360000000 1.0
C      1  0.4244340000000  0.5335150000000  0.5008270000000 1.0
C      1  0.4629740000000  0.3701800000000  0.5173640000000 1.0
C      1  0.4066890000000  0.6679800000000  0.4608600000000 1.0
C      1  0.4358980000000  0.4317080000000  0.5641970000000 1.0
C      1  0.5833870000000  0.5813280000000  0.5533090000000 1.0
C      1  0.4521130000000  0.5683000000000  0.5566320000000 1.0
C      1  0.4544370000000  0.3839330000000  0.4693130000000 1.0
C      1  0.4244830000000  0.4138400000000  0.5153940000000 1.0
C      1  0.5184600000000  0.5068990000000  0.6025120000000 1.0
C      1  0.4888230000000  0.5196880000000  0.3692860000000 1.0
C      1  0.6261420000000  0.4949020000000  0.5104110000000 1.0
C      1  0.5922320000000  0.5098590000000  0.5744890000000 1.0
C      1  0.5164020000000  0.4821200000000  0.5922030000000 1.0
C      1  0.5080420000000  0.4472720000000  0.5058340000000 1.0
C      1  0.5743200000000  0.4316400000000  0.5362160000000 1.0
C      1  0.5535110000000  0.4616460000000  0.4878390000000 1.0
C      1  0.4731960000000  0.4397830000000  0.4102840000000 1.0
C      1  0.4758820000000  0.5747480000000  0.4715960000000 1.0
C      1  0.4189860000000  0.4496140000000  0.4850180000000 1.0
C      1  0.4967130000000  0.5431090000000  0.3807530000000 1.0
C      1  0.4512150000000  0.5285980000000  0.5099330000000 1.0
C      1  0.5047270000000  0.5689690000000  0.5576190000000 1.0
C      1  0.5554570000000  0.4875290000000  0.4744340000000 1.0
C      1  0.5573340000000  0.5424050000000  0.5633840000000 1.0
C      1  0.6001680000000  0.4964030000000  0.4393170000000 1.0
C      1  0.4510970000000  0.4440420000000  0.5848690000000 1.0
C      1  0.4790080000000  0.4844530000000  0.5083910000000 1.0
C      1  0.3756060000000  0.4852900000000  0.5722960000000 1.0
C      1  0.6012930000000  0.5011910000000  0.5509130000000 1.0
C      1  0.5258110000000  0.3903530000000  0.4581460000000 1.0
C      1  0.5312370000000  0.5151610000000  0.4361170000000 1.0
C      1  0.5294860000000  0.5676750000000  0.4934630000000 1.0
C      1  0.4814170000000  0.4150500000000  0.5321580000000 1.0
C      1  0.5472050000000  0.4501820000000  0.4051040000000 1.0
C      1  0.4862920000000  0.5001640000000  0.4134750000000 1.0
C      1  0.4433180000000  0.5241610000000  0.5884600000000 1.0
C      1  0.4402120000000  0.4211400000000  0.4402050000000 1.0
C      1  0.4581380000000  0.6246300000000  0.5335480000000 1.0
C      1  0.4444400000000  0.4707000000000  0.5931210000000 1.0
C      1  0.5100430000000  0.4378990000000  0.4577880000000 1.0
C      1  0.3948900000000  0.4643190000000  0.4904360000000 1.0
C      1  0.5240890000000  0.4204470000000  0.5818080000000 1.0
C      1  0.5060960000000  0.4505830000000  0.5536620000000 1.0
C      1  0.4954530000000  0.4467480000000  0.4798440000000 1.0
C      1  0.5913370000000  0.5815040000000  0.5257510000000 1.0
C      1  0.4431420000000  0.4673200000000  0.4844420000000 1.0
C      1  0.4338930000000  0.4483950000000  0.4333230000000 1.0
C      1  0.4380150000000  0.4078500000000  0.4657840000000 1.0
C      1  0.4773210000000  0.5838710000000  0.5549240000000 1.0
C      1  0.5034750000000  0.5509610000000  0.5329300000000 1.0
C      1  0.4453630000000  0.6342110000000  0.5122720000000 1.0
C      1  0.4172580000000  0.5568630000000  0.5161470000000 1.0
C      1  0.6481480000000  0.4865130000000  0.4992510000000 1.0
C      1  0.4950590000000  0.4471240000000  0.3936630000000 1.0
C      1  0.5042660000000  0.5436940000000  0.4069600000000 1.0
C      1  0.4641290000000  0.4883490000000  0.4269960000000 1.0
C      1  0.5061180000000  0.5579480000000  0.5053880000000 1.0
C      1  0.4684320000000  0.4537880000000  0.4746620000000 1.0
C      1  0.3998000000000  0.4900090000000  0.5028920000000 1.0
C      1  0.5674640000000  0.5847480000000  0.5109040000000 1.0
C      1  0.5307270000000  0.4362590000000  0.5588590000000 1.0
C      1  0.5331380000000  0.4998930000000  0.4604220000000 1.0
C      1  0.4749700000000  0.3892920000000  0.5315750000000 1.0
END
