TITL C-627106-156-1661 -4615.79257747927 125000 -684.451939041727 0 0 112 (C1) n - 1
REM
REM in /home/nfs/bkarasulu/CARBON/AIRSS/Generating-Clusters/LCBOP/Only-C1/SD-CG/FIRE-CG
REM
REM
REM
REM
REM
REM ./C.cell (11c1c37f851c82e70ff6c80c92926a4b)
REM AIRSS Version 0.9.1 bugfix July 2018 build 013d7b7c2542+ Fri, 06 Jul 2018 19:26:36 +0100
REM compiler GCC version 9.2.1 20190827 (Red Hat 9.2.1-1)
REM options -cpp -mtune=generic -march=x86-64 -g -O0 -fpre-include=/usr/include/finclude/math-vector-fortran.h
REM seed 1774718951 799969613 -1066813509 533006425 -2092845534 671881411 197555243 -514114179 2004242993 -1042810181 662421715 -1345342735 640473883 1269921522 343113662 -217628060 -1753586277 1286983707 7066381 1835854571 586384220 1700829566 731352658 -972360338 26182122 592792769 1350109305 -1726083809 466547203 1982830959 1057119129 -1773570341 -869689537
REM
CELL 1.54180   50.00000   50.00000   50.00000   90.00000   90.00000   90.00000
LATT -1
SFAC C  
C      1  0.5650710000000  0.5050260000000  0.4794310000000 1.0
C      1  0.4665130000000  0.4248220000000  0.4573430000000 1.0
C      1  0.4878090000000  0.5508530000000  0.5126860000000 1.0
C      1  0.5532190000000  0.4770170000000  0.4142280000000 1.0
C      1  0.4474550000000  0.5439270000000  0.4738990000000 1.0
C      1  0.5806040000000  0.5577600000000  0.4809950000000 1.0
C      1  0.3866500000000  0.5320580000000  0.4620030000000 1.0
C      1  0.4932130000000  0.5113210000000  0.5614220000000 1.0
C      1  0.4219760000000  0.5120420000000  0.5124870000000 1.0
C      1  0.5060600000000  0.4703140000000  0.4574030000000 1.0
C      1  0.4672010000000  0.4489340000000  0.5503310000000 1.0
C      1  0.5553580000000  0.4523360000000  0.5186780000000 1.0
C      1  0.4929670000000  0.5946820000000  0.4940450000000 1.0
C      1  0.5433900000000  0.4702410000000  0.5367750000000 1.0
C      1  0.5981260000000  0.5669560000000  0.4365200000000 1.0
C      1  0.4411790000000  0.4320100000000  0.5128810000000 1.0
C      1  0.5269260000000  0.5020230000000  0.6074800000000 1.0
C      1  0.5461540000000  0.5212610000000  0.6048400000000 1.0
C      1  0.4732440000000  0.5660570000000  0.4275850000000 1.0
C      1  0.4241340000000  0.5087300000000  0.4485060000000 1.0
C      1  0.5019980000000  0.4894680000000  0.6000900000000 1.0
C      1  0.4992090000000  0.5358240000000  0.4912620000000 1.0
C      1  0.5012680000000  0.4944540000000  0.5430080000000 1.0
C      1  0.5276580000000  0.4073760000000  0.5496780000000 1.0
C      1  0.5618010000000  0.5703490000000  0.4985280000000 1.0
C      1  0.4684930000000  0.4796540000000  0.4982060000000 1.0
C      1  0.4825560000000  0.5131450000000  0.4547290000000 1.0
C      1  0.4971380000000  0.4620020000000  0.5906800000000 1.0
C      1  0.4044000000000  0.5500690000000  0.4502200000000 1.0
C      1  0.5060020000000  0.4230810000000  0.4836530000000 1.0
C      1  0.5256560000000  0.4833020000000  0.4167280000000 1.0
C      1  0.4352390000000  0.5893300000000  0.4812120000000 1.0
C      1  0.5229560000000  0.5087320000000  0.4319830000000 1.0
C      1  0.4336610000000  0.5630970000000  0.4921890000000 1.0
C      1  0.5567560000000  0.4870850000000  0.5549360000000 1.0
C      1  0.4894680000000  0.5697920000000  0.5612620000000 1.0
C      1  0.4835400000000  0.5079090000000  0.5875650000000 1.0
C      1  0.5631570000000  0.5398610000000  0.5941920000000 1.0
C      1  0.5267690000000  0.4068920000000  0.4962540000000 1.0
C      1  0.4729600000000  0.5265410000000  0.4778150000000 1.0
C      1  0.5363800000000  0.5349790000000  0.5500210000000 1.0
C      1  0.5168070000000  0.4108750000000  0.4424150000000 1.0
C      1  0.4371760000000  0.4871860000000  0.4361040000000 1.0
C      1  0.4440030000000  0.4318810000000  0.4841080000000 1.0
C      1  0.4871300000000  0.4488060000000  0.5301200000000 1.0
C      1  0.4966560000000  0.5778470000000  0.5160880000000 1.0
C      1  0.5502110000000  0.4453550000000  0.4624310000000 1.0
C      1  0.4606440000000  0.4896330000000  0.4183010000000 1.0
C      1  0.5256480000000  0.4220750000000  0.5718630000000 1.0
C      1  0.5046750000000  0.4640490000000  0.4276280000000 1.0
C      1  0.5694630000000  0.5061840000000  0.4512000000000 1.0
C      1  0.4762700000000  0.4637470000000  0.4214500000000 1.0
C      1  0.4517200000000  0.5413050000000  0.5777870000000 1.0
C      1  0.4310240000000  0.5374820000000  0.4508000000000 1.0
C      1  0.5814160000000  0.5524410000000  0.4526660000000 1.0
C      1  0.5737760000000  0.4589330000000  0.4536840000000 1.0
C      1  0.4010660000000  0.5075730000000  0.4676740000000 1.0
C      1  0.5596720000000  0.5692860000000  0.5276960000000 1.0
C      1  0.5342850000000  0.5613120000000  0.5398950000000 1.0
C      1  0.4501450000000  0.5186070000000  0.5183910000000 1.0
C      1  0.4930270000000  0.4139430000000  0.4592510000000 1.0
C      1  0.4965420000000  0.5885550000000  0.4662930000000 1.0
C      1  0.4664470000000  0.5527580000000  0.5564950000000 1.0
C      1  0.5835440000000  0.4456910000000  0.5212070000000 1.0
C      1  0.5423670000000  0.4185290000000  0.4543590000000 1.0
C      1  0.4868480000000  0.4601720000000  0.5040750000000 1.0
C      1  0.5514230000000  0.5134780000000  0.5555730000000 1.0
C      1  0.5065500000000  0.4995980000000  0.4542020000000 1.0
C      1  0.4361880000000  0.4605490000000  0.4467630000000 1.0
C      1  0.5235340000000  0.4953840000000  0.5025580000000 1.0
C      1  0.5757420000000  0.5550370000000  0.5751760000000 1.0
C      1  0.4709680000000  0.5425350000000  0.4142060000000 1.0
C      1  0.4224460000000  0.4687940000000  0.5460410000000 1.0
C      1  0.4499150000000  0.5962420000000  0.4594490000000 1.0
C      1  0.5782690000000  0.5660540000000  0.5500170000000 1.0
C      1  0.4486900000000  0.4683830000000  0.5910350000000 1.0
C      1  0.4193000000000  0.4931700000000  0.5620840000000 1.0
C      1  0.5267820000000  0.4013560000000  0.5237010000000 1.0
C      1  0.5023450000000  0.4521670000000  0.4818530000000 1.0
C      1  0.5456180000000  0.4510880000000  0.4912920000000 1.0
C      1  0.5409020000000  0.5810610000000  0.4823180000000 1.0
C      1  0.5903620000000  0.4613850000000  0.4772500000000 1.0
C      1  0.5702500000000  0.4812290000000  0.4367360000000 1.0
C      1  0.5165840000000  0.4420480000000  0.5871290000000 1.0
C      1  0.4088160000000  0.4959520000000  0.4924670000000 1.0
C      1  0.4658340000000  0.5407540000000  0.5299460000000 1.0
C      1  0.4376270000000  0.4938470000000  0.5844650000000 1.0
C      1  0.4674840000000  0.5159560000000  0.4095180000000 1.0
C      1  0.5257890000000  0.5590360000000  0.4403420000000 1.0
C      1  0.4712050000000  0.4567590000000  0.5780000000000 1.0
C      1  0.4054950000000  0.5173890000000  0.5534560000000 1.0
C      1  0.4157640000000  0.5563350000000  0.5144880000000 1.0
C      1  0.4739670000000  0.5853010000000  0.4488570000000 1.0
C      1  0.5646860000000  0.5318650000000  0.4413110000000 1.0
C      1  0.4270350000000  0.4520580000000  0.4722270000000 1.0
C      1  0.4641580000000  0.5063250000000  0.4975810000000 1.0
C      1  0.5222680000000  0.5778780000000  0.4609840000000 1.0
C      1  0.4119420000000  0.4681560000000  0.4896870000000 1.0
C      1  0.4408400000000  0.4479800000000  0.5376330000000 1.0
C      1  0.5999270000000  0.4667340000000  0.5311900000000 1.0
C      1  0.5906460000000  0.4362790000000  0.4942990000000 1.0
C      1  0.4080710000000  0.5318110000000  0.5285030000000 1.0
C      1  0.5205280000000  0.4834350000000  0.5269740000000 1.0
C      1  0.5097010000000  0.5759920000000  0.5415440000000 1.0
C      1  0.4559010000000  0.5155310000000  0.5888990000000 1.0
C      1  0.4597110000000  0.4452720000000  0.4378820000000 1.0
C      1  0.5858680000000  0.4879650000000  0.4911910000000 1.0
C      1  0.5312440000000  0.5172930000000  0.4894620000000 1.0
C      1  0.5371230000000  0.5342000000000  0.4335680000000 1.0
C      1  0.5506840000000  0.4038900000000  0.4791150000000 1.0
C      1  0.5776740000000  0.4112190000000  0.4870410000000 1.0
C      1  0.5992640000000  0.4896910000000  0.5162500000000 1.0
END
