TITL C-627110-360-690 -1.15488839187012e-07 125000 -408.833835117711 0 0 68 (C1) n - 1
REM
REM in /home/nfs/bkarasulu/CARBON/AIRSS/Generating-Clusters/LCBOP/Only-C1/SD-CG/FIRE-CG
REM
REM
REM
REM
REM
REM ./C.cell (11c1c37f851c82e70ff6c80c92926a4b)
REM AIRSS Version 0.9.1 bugfix July 2018 build 013d7b7c2542+ Fri, 06 Jul 2018 19:26:36 +0100
REM compiler GCC version 9.2.1 20190827 (Red Hat 9.2.1-1)
REM options -cpp -mtune=generic -march=x86-64 -g -O0 -fpre-include=/usr/include/finclude/math-vector-fortran.h
REM seed 1592030366 -1602979097 -1095575263 1014016591 -51499639 -190989184 -1383954982 1733965703 68956965 1084748707 1562909036 -1083068576 1369511955 1659836562 -1602809536 -267758708 -750467339 1329018172 577376301 -1278867525 2029348462 -820176756 -2006892006 1478617491 -2024378141 1509731105 -1783227448 1199641032 -1817651671 -194193351 835858269 -982265826 1100323267
REM
CELL 1.54180   50.00000   50.00000   50.00000   90.00000   90.00000   90.00000
LATT -1
SFAC C  
C      1  0.5181460000000  0.4456730000000  0.4787670000000 1.0
C      1  0.5450600000000  0.4472200000000  0.4710440000000 1.0
C      1  0.3954370000000  0.4737530000000  0.5296680000000 1.0
C      1  0.4909810000000  0.4765760000000  0.4451060000000 1.0
C      1  0.4594780000000  0.5103140000000  0.5168330000000 1.0
C      1  0.4512890000000  0.3985770000000  0.5633410000000 1.0
C      1  0.4164040000000  0.4923870000000  0.5337390000000 1.0
C      1  0.5385040000000  0.5051100000000  0.5418320000000 1.0
C      1  0.4994200000000  0.4568150000000  0.4608850000000 1.0
C      1  0.5429100000000  0.5112410000000  0.4924290000000 1.0
C      1  0.5856190000000  0.5472600000000  0.4754390000000 1.0
C      1  0.4648260000000  0.4425980000000  0.5122750000000 1.0
C      1  0.4899130000000  0.4302230000000  0.5157320000000 1.0
C      1  0.5868260000000  0.5779440000000  0.5098610000000 1.0
C      1  0.5055680000000  0.5211780000000  0.4299360000000 1.0
C      1  0.5921570000000  0.5745410000000  0.4829290000000 1.0
C      1  0.5871230000000  0.5044180000000  0.5101430000000 1.0
C      1  0.5425160000000  0.5604380000000  0.5556500000000 1.0
C      1  0.4485090000000  0.4636480000000  0.5116140000000 1.0
C      1  0.4994630000000  0.4862830000000  0.5252800000000 1.0
C      1  0.4082310000000  0.4238880000000  0.5777270000000 1.0
C      1  0.5507410000000  0.5495200000000  0.5304120000000 1.0
C      1  0.5863190000000  0.5317730000000  0.5016920000000 1.0
C      1  0.5383960000000  0.5524940000000  0.4558910000000 1.0
C      1  0.5219090000000  0.4853200000000  0.3677310000000 1.0
C      1  0.4129850000000  0.5150230000000  0.6069540000000 1.0
C      1  0.5590770000000  0.4698390000000  0.4688070000000 1.0
C      1  0.4163220000000  0.5049950000000  0.5590390000000 1.0
C      1  0.5648000000000  0.5136210000000  0.4491460000000 1.0
C      1  0.4009410000000  0.4709710000000  0.5890100000000 1.0
C      1  0.4761990000000  0.5622010000000  0.4871830000000 1.0
C      1  0.4952800000000  0.4859470000000  0.3686460000000 1.0
C      1  0.4443870000000  0.5149080000000  0.4161480000000 1.0
C      1  0.5127140000000  0.4449520000000  0.5067140000000 1.0
C      1  0.5346170000000  0.5259240000000  0.5193190000000 1.0
C      1  0.3868590000000  0.4544880000000  0.5465220000000 1.0
C      1  0.5650090000000  0.5410490000000  0.4568390000000 1.0
C      1  0.5209730000000  0.4676760000000  0.5219520000000 1.0
C      1  0.5019170000000  0.5538950000000  0.4944270000000 1.0
C      1  0.4389080000000  0.5499160000000  0.4533090000000 1.0
C      1  0.4101550000000  0.4974720000000  0.5855810000000 1.0
C      1  0.4730820000000  0.3982950000000  0.5481800000000 1.0
C      1  0.4920900000000  0.4050900000000  0.5287160000000 1.0
C      1  0.4156290000000  0.5314790000000  0.6269890000000 1.0
C      1  0.4283810000000  0.4069770000000  0.5738560000000 1.0
C      1  0.5242060000000  0.5618640000000  0.4785570000000 1.0
C      1  0.4540670000000  0.5603230000000  0.4725440000000 1.0
C      1  0.5769680000000  0.5529940000000  0.5205800000000 1.0
C      1  0.5371530000000  0.5405050000000  0.5750290000000 1.0
C      1  0.5550620000000  0.4974080000000  0.4703370000000 1.0
C      1  0.5689500000000  0.5045550000000  0.4231780000000 1.0
C      1  0.4874410000000  0.5111150000000  0.5189190000000 1.0
C      1  0.3960540000000  0.4484760000000  0.5726280000000 1.0
C      1  0.5456320000000  0.4890920000000  0.3791950000000 1.0
C      1  0.5055780000000  0.5325410000000  0.5131660000000 1.0
C      1  0.4403810000000  0.4896650000000  0.5189700000000 1.0
C      1  0.5121270000000  0.3876480000000  0.5222060000000 1.0
C      1  0.5374230000000  0.6133930000000  0.5635620000000 1.0
C      1  0.4881900000000  0.4991830000000  0.4287850000000 1.0
C      1  0.5361890000000  0.5142790000000  0.5683230000000 1.0
C      1  0.5396900000000  0.5876420000000  0.5602720000000 1.0
C      1  0.4738220000000  0.4913880000000  0.3835890000000 1.0
C      1  0.5620000000000  0.4959690000000  0.3989990000000 1.0
C      1  0.5215340000000  0.5416940000000  0.4358150000000 1.0
C      1  0.4348380000000  0.5333920000000  0.4328280000000 1.0
C      1  0.5463260000000  0.4796670000000  0.5301970000000 1.0
C      1  0.4673160000000  0.5004760000000  0.4092550000000 1.0
C      1  0.5729840000000  0.4828220000000  0.5197740000000 1.0
END
