TITL C-627111-6168-14 -1850.84452153126 125000 -994.091346869038 0 0 167 (C1) n - 1
REM
REM in /home/nfs/bkarasulu/CARBON/AIRSS/Generating-Clusters/LCBOP/Only-C1/SD-CG/FIRE-CG
REM
REM
REM
REM
REM
REM ./C.cell (11c1c37f851c82e70ff6c80c92926a4b)
REM AIRSS Version 0.9.1 bugfix July 2018 build 013d7b7c2542+ Fri, 06 Jul 2018 19:26:36 +0100
REM compiler GCC version 9.2.1 20190827 (Red Hat 9.2.1-1)
REM options -cpp -mtune=generic -march=x86-64 -g -O0 -fpre-include=/usr/include/finclude/math-vector-fortran.h
REM seed 1031809283 1426246943 -91438630 -1891027622 753927170 -371183457 -762981112 -1335055777 1828951193 1122485311 -2060903848 -2091612811 -2083789664 -91391362 -92413790 -1372000758 1183728347 255338381 1156204926 -228983983 -1083782412 419186867 560102077 -1955586586 937060680 -1507869196 -1232214660 260834214 94595499 736958447 -1224034959 -69315172 -616750584
REM
CELL 1.54180   50.00000   50.00000   50.00000   90.00000   90.00000   90.00000
LATT -1
SFAC C  
C      1  0.4693430000000  0.4301520000000  0.6044130000000 1.0
C      1  0.5204580000000  0.5746360000000  0.5568410000000 1.0
C      1  0.4568450000000  0.5301210000000  0.4352510000000 1.0
C      1  0.4559530000000  0.6169510000000  0.5389210000000 1.0
C      1  0.4140740000000  0.5219010000000  0.4862850000000 1.0
C      1  0.4308200000000  0.5423750000000  0.4429660000000 1.0
C      1  0.6009280000000  0.4545470000000  0.4638700000000 1.0
C      1  0.4030690000000  0.4214770000000  0.4487980000000 1.0
C      1  0.4458400000000  0.5134920000000  0.5878130000000 1.0
C      1  0.5886640000000  0.5497110000000  0.4625500000000 1.0
C      1  0.4531590000000  0.4477070000000  0.5213040000000 1.0
C      1  0.4385090000000  0.4234960000000  0.5234650000000 1.0
C      1  0.4836110000000  0.4202090000000  0.4314230000000 1.0
C      1  0.5825260000000  0.4497270000000  0.5355030000000 1.0
C      1  0.5360470000000  0.5539330000000  0.4356340000000 1.0
C      1  0.5062190000000  0.6313560000000  0.5433850000000 1.0
C      1  0.4628410000000  0.5026730000000  0.3946640000000 1.0
C      1  0.5169170000000  0.4515560000000  0.4069850000000 1.0
C      1  0.5657520000000  0.5055640000000  0.5101480000000 1.0
C      1  0.4086630000000  0.5000480000000  0.4379930000000 1.0
C      1  0.4353410000000  0.5788640000000  0.5604060000000 1.0
C      1  0.4196160000000  0.4847050000000  0.4160620000000 1.0
C      1  0.5522230000000  0.4929760000000  0.6088240000000 1.0
C      1  0.5351800000000  0.5296990000000  0.5496600000000 1.0
C      1  0.3874920000000  0.4469750000000  0.5120510000000 1.0
C      1  0.6145400000000  0.4788760000000  0.4637430000000 1.0
C      1  0.4759430000000  0.3654620000000  0.5429660000000 1.0
C      1  0.5247110000000  0.4910770000000  0.5288340000000 1.0
C      1  0.6140610000000  0.5056060000000  0.4633450000000 1.0
C      1  0.5258250000000  0.5476580000000  0.4998660000000 1.0
C      1  0.4433470000000  0.5299390000000  0.4963610000000 1.0
C      1  0.4684430000000  0.4289680000000  0.4548340000000 1.0
C      1  0.5948310000000  0.5617940000000  0.5243920000000 1.0
C      1  0.5011760000000  0.5159670000000  0.4521020000000 1.0
C      1  0.5533120000000  0.5862900000000  0.4753610000000 1.0
C      1  0.4400430000000  0.4339360000000  0.4184400000000 1.0
C      1  0.4525970000000  0.5573080000000  0.4871020000000 1.0
C      1  0.4863780000000  0.5278800000000  0.5546980000000 1.0
C      1  0.4864400000000  0.4869050000000  0.4967160000000 1.0
C      1  0.4357500000000  0.4881870000000  0.5464360000000 1.0
C      1  0.5362050000000  0.5569100000000  0.5431580000000 1.0
C      1  0.3967820000000  0.5082110000000  0.5067890000000 1.0
C      1  0.5166510000000  0.4194880000000  0.5827660000000 1.0
C      1  0.4229700000000  0.4567570000000  0.4152020000000 1.0
C      1  0.4915520000000  0.4730040000000  0.5755560000000 1.0
C      1  0.5991040000000  0.5261400000000  0.4751020000000 1.0
C      1  0.4375600000000  0.4712210000000  0.5221210000000 1.0
C      1  0.4374300000000  0.4667850000000  0.5933420000000 1.0
C      1  0.4317820000000  0.5911470000000  0.4632750000000 1.0
C      1  0.3956840000000  0.5929590000000  0.5135790000000 1.0
C      1  0.5515360000000  0.6023350000000  0.5012550000000 1.0
C      1  0.5231510000000  0.4646480000000  0.4610110000000 1.0
C      1  0.5369850000000  0.5162880000000  0.3820000000000 1.0
C      1  0.4378980000000  0.5952880000000  0.5374430000000 1.0
C      1  0.4792810000000  0.5448870000000  0.6062010000000 1.0
C      1  0.4843890000000  0.3853150000000  0.4823500000000 1.0
C      1  0.5570670000000  0.4937800000000  0.6364910000000 1.0
C      1  0.5572680000000  0.5241930000000  0.4012790000000 1.0
C      1  0.4591370000000  0.4092270000000  0.5623530000000 1.0
C      1  0.4796060000000  0.6289170000000  0.5424390000000 1.0
C      1  0.4914120000000  0.3591050000000  0.4851480000000 1.0
C      1  0.5345360000000  0.4421970000000  0.3881870000000 1.0
C      1  0.5196730000000  0.5101080000000  0.4735940000000 1.0
C      1  0.5112860000000  0.5222760000000  0.5626290000000 1.0
C      1  0.5246390000000  0.4544070000000  0.4342380000000 1.0
C      1  0.4805990000000  0.4185060000000  0.5813240000000 1.0
C      1  0.5018250000000  0.4304580000000  0.4891840000000 1.0
C      1  0.5610610000000  0.4953440000000  0.6621940000000 1.0
C      1  0.4028840000000  0.4540980000000  0.4893150000000 1.0
C      1  0.4131870000000  0.5227040000000  0.4557860000000 1.0
C      1  0.4979640000000  0.6164860000000  0.4621240000000 1.0
C      1  0.5600300000000  0.5480720000000  0.4193210000000 1.0
C      1  0.4913200000000  0.5860450000000  0.5124450000000 1.0
C      1  0.5037800000000  0.5002130000000  0.5126870000000 1.0
C      1  0.5735640000000  0.4570460000000  0.5065570000000 1.0
C      1  0.4719750000000  0.6246500000000  0.4620670000000 1.0
C      1  0.5453180000000  0.5588320000000  0.5166900000000 1.0
C      1  0.4354550000000  0.4972560000000  0.3961950000000 1.0
C      1  0.5456760000000  0.5119220000000  0.5295620000000 1.0
C      1  0.5634060000000  0.5015350000000  0.4179340000000 1.0
C      1  0.5519400000000  0.6054910000000  0.5314920000000 1.0
C      1  0.5429520000000  0.4435940000000  0.5844180000000 1.0
C      1  0.4757130000000  0.5790180000000  0.4224410000000 1.0
C      1  0.4857230000000  0.4625530000000  0.5519110000000 1.0
C      1  0.4294420000000  0.4155810000000  0.4405600000000 1.0
C      1  0.4748050000000  0.5267380000000  0.4601570000000 1.0
C      1  0.5336460000000  0.5779200000000  0.4548070000000 1.0
C      1  0.5664880000000  0.5680230000000  0.5742000000000 1.0
C      1  0.4795930000000  0.4469060000000  0.5296140000000 1.0
C      1  0.5879020000000  0.5192920000000  0.5002810000000 1.0
C      1  0.4701260000000  0.4363510000000  0.4101980000000 1.0
C      1  0.6303320000000  0.4371140000000  0.5327990000000 1.0
C      1  0.5398600000000  0.4892860000000  0.4669260000000 1.0
C      1  0.5858560000000  0.4415540000000  0.4858340000000 1.0
C      1  0.4307580000000  0.5717150000000  0.4410490000000 1.0
C      1  0.4633650000000  0.3893810000000  0.5396640000000 1.0
C      1  0.4095040000000  0.4432190000000  0.5550720000000 1.0
C      1  0.5076680000000  0.5904180000000  0.4563260000000 1.0
C      1  0.5478220000000  0.5019170000000  0.4401300000000 1.0
C      1  0.4812830000000  0.5665680000000  0.5265520000000 1.0
C      1  0.4394610000000  0.4882350000000  0.5756040000000 1.0
C      1  0.4253510000000  0.4715560000000  0.4951130000000 1.0
C      1  0.5945430000000  0.4406790000000  0.4386400000000 1.0
C      1  0.6479180000000  0.4198500000000  0.5243230000000 1.0
C      1  0.5367260000000  0.4699000000000  0.5979620000000 1.0
C      1  0.3910990000000  0.4898470000000  0.5275790000000 1.0
C      1  0.4713790000000  0.5253240000000  0.4107870000000 1.0
C      1  0.4980870000000  0.4587180000000  0.4782450000000 1.0
C      1  0.4406720000000  0.4864410000000  0.4766810000000 1.0
C      1  0.5748300000000  0.5672680000000  0.4801120000000 1.0
C      1  0.5591390000000  0.4822470000000  0.5584690000000 1.0
C      1  0.5674660000000  0.4401240000000  0.5653220000000 1.0
C      1  0.5769280000000  0.4165760000000  0.4742910000000 1.0
C      1  0.5090400000000  0.4759380000000  0.5954030000000 1.0
C      1  0.5142660000000  0.5226340000000  0.4976350000000 1.0
C      1  0.5602850000000  0.4815490000000  0.4953480000000 1.0
C      1  0.6167520000000  0.4801800000000  0.5519330000000 1.0
C      1  0.4572310000000  0.3953340000000  0.4863970000000 1.0
C      1  0.3961280000000  0.4411330000000  0.4656200000000 1.0
C      1  0.4976070000000  0.4290250000000  0.5169560000000 1.0
C      1  0.6031750000000  0.4998940000000  0.5641110000000 1.0
C      1  0.4324710000000  0.4236250000000  0.5528830000000 1.0
C      1  0.5902430000000  0.4565010000000  0.4161510000000 1.0
C      1  0.4714350000000  0.4749270000000  0.4423800000000 1.0
C      1  0.5376180000000  0.4710860000000  0.5435130000000 1.0
C      1  0.4482070000000  0.4109150000000  0.4627850000000 1.0
C      1  0.4892680000000  0.4577310000000  0.3989530000000 1.0
C      1  0.4234870000000  0.5892590000000  0.5132420000000 1.0
C      1  0.5054770000000  0.5492220000000  0.6101750000000 1.0
C      1  0.4465130000000  0.6155360000000  0.4600630000000 1.0
C      1  0.5028170000000  0.4057900000000  0.4733070000000 1.0
C      1  0.4547960000000  0.5400010000000  0.5926980000000 1.0
C      1  0.5054440000000  0.4070140000000  0.4443150000000 1.0
C      1  0.5101020000000  0.5072740000000  0.3880070000000 1.0
C      1  0.5564150000000  0.5447260000000  0.5915080000000 1.0
C      1  0.5839520000000  0.5516260000000  0.4345670000000 1.0
C      1  0.5819990000000  0.4160870000000  0.4470620000000 1.0
C      1  0.6106480000000  0.4554350000000  0.5399780000000 1.0
C      1  0.4476230000000  0.5801800000000  0.4196840000000 1.0
C      1  0.4615480000000  0.5078330000000  0.4819310000000 1.0
C      1  0.4506720000000  0.3991660000000  0.5144570000000 1.0
C      1  0.4915180000000  0.4917170000000  0.4377100000000 1.0
C      1  0.4869010000000  0.4859880000000  0.3883960000000 1.0
C      1  0.5647810000000  0.5888910000000  0.5544260000000 1.0
C      1  0.5759640000000  0.5017890000000  0.5702250000000 1.0
C      1  0.4713700000000  0.5423020000000  0.5360390000000 1.0
C      1  0.5205700000000  0.4231860000000  0.5311230000000 1.0
C      1  0.4478270000000  0.5312360000000  0.5253940000000 1.0
C      1  0.5797390000000  0.4803390000000  0.4102650000000 1.0
C      1  0.5726680000000  0.5616400000000  0.5083610000000 1.0
C      1  0.4416350000000  0.5615460000000  0.5798300000000 1.0
C      1  0.4352140000000  0.5794320000000  0.4891090000000 1.0
C      1  0.4497670000000  0.4480770000000  0.6077590000000 1.0
C      1  0.4740690000000  0.4550000000000  0.4613970000000 1.0
C      1  0.5319620000000  0.5504820000000  0.6058130000000 1.0
C      1  0.5632150000000  0.5153650000000  0.5920120000000 1.0
C      1  0.4748550000000  0.5557530000000  0.4687270000000 1.0
C      1  0.5189810000000  0.5289440000000  0.4327160000000 1.0
C      1  0.4310930000000  0.5154270000000  0.5403150000000 1.0
C      1  0.3697280000000  0.5952740000000  0.5134910000000 1.0
C      1  0.4921510000000  0.5846570000000  0.4013250000000 1.0
C      1  0.4859380000000  0.5735320000000  0.4490490000000 1.0
C      1  0.5350330000000  0.4444530000000  0.5371200000000 1.0
C      1  0.3932920000000  0.4608070000000  0.5367240000000 1.0
C      1  0.5317680000000  0.6239650000000  0.5404690000000 1.0
C      1  0.5007310000000  0.5272600000000  0.4081880000000 1.0
C      1  0.5265170000000  0.3944500000000  0.5840980000000 1.0
END
