TITL C-627109-622-658 -0.000908044278377525 125000 -325.559718701794 0 0 55 (C1) n - 1
REM
REM in /home/nfs/bkarasulu/CARBON/AIRSS/Generating-Clusters/LCBOP/Only-C1/SD-CG/FIRE-CG
REM
REM
REM
REM
REM
REM ./C.cell (11c1c37f851c82e70ff6c80c92926a4b)
REM AIRSS Version 0.9.1 bugfix July 2018 build 013d7b7c2542+ Fri, 06 Jul 2018 19:26:36 +0100
REM compiler GCC version 9.2.1 20190827 (Red Hat 9.2.1-1)
REM options -cpp -mtune=generic -march=x86-64 -g -O0 -fpre-include=/usr/include/finclude/math-vector-fortran.h
REM seed -1565183219 745020364 -1410719853 455519449 -1384726162 1105777119 695626572 1456832042 178522683 152250289 -305220180 2127987593 -1833414176 -1386503497 399142895 -512379095 -1404126659 -1033949898 -543972262 -1478848176 1419274405 -334350980 1745575782 -776905651 649492706 448509640 142275939 2071741087 -457331191 1504108825 340500053 96115151 1885367340
REM
CELL 1.54180   50.00000   50.00000   50.00000   90.00000   90.00000   90.00000
LATT -1
SFAC C  
C      1  0.4387640000000  0.5020220000000  0.4272780000000 1.0
C      1  0.4821140000000  0.5166850000000  0.5119780000000 1.0
C      1  0.5666480000000  0.5722580000000  0.5838860000000 1.0
C      1  0.4754240000000  0.4692210000000  0.5451330000000 1.0
C      1  0.5481750000000  0.5472330000000  0.5101060000000 1.0
C      1  0.4754720000000  0.5499870000000  0.4772000000000 1.0
C      1  0.5338460000000  0.5272690000000  0.4266370000000 1.0
C      1  0.4839760000000  0.4693920000000  0.4858700000000 1.0
C      1  0.4218490000000  0.5140290000000  0.4938290000000 1.0
C      1  0.4639530000000  0.5363430000000  0.5002340000000 1.0
C      1  0.4499750000000  0.4799690000000  0.5387280000000 1.0
C      1  0.5020640000000  0.4653540000000  0.5441250000000 1.0
C      1  0.5411780000000  0.5655990000000  0.4885780000000 1.0
C      1  0.5597420000000  0.5638530000000  0.5601950000000 1.0
C      1  0.5165610000000  0.5787350000000  0.4867430000000 1.0
C      1  0.5524250000000  0.5547490000000  0.5364130000000 1.0
C      1  0.5534970000000  0.5528100000000  0.4657560000000 1.0
C      1  0.5501190000000  0.4537450000000  0.4977880000000 1.0
C      1  0.4185920000000  0.4727880000000  0.4677130000000 1.0
C      1  0.5099540000000  0.4298660000000  0.4912640000000 1.0
C      1  0.5149580000000  0.4884130000000  0.4177100000000 1.0
C      1  0.5031980000000  0.5264710000000  0.5609800000000 1.0
C      1  0.5440630000000  0.4773800000000  0.5869190000000 1.0
C      1  0.5335200000000  0.4820140000000  0.4402960000000 1.0
C      1  0.4357140000000  0.4729050000000  0.5150090000000 1.0
C      1  0.5085890000000  0.5168840000000  0.4171080000000 1.0
C      1  0.5719130000000  0.4118590000000  0.5703650000000 1.0
C      1  0.5170220000000  0.5194640000000  0.5826010000000 1.0
C      1  0.5227720000000  0.4614930000000  0.4569720000000 1.0
C      1  0.5589000000000  0.4343950000000  0.5689670000000 1.0
C      1  0.5456130000000  0.4717190000000  0.5191410000000 1.0
C      1  0.4843960000000  0.5263510000000  0.4294700000000 1.0
C      1  0.4943800000000  0.5227360000000  0.5362290000000 1.0
C      1  0.5532490000000  0.4980890000000  0.5139990000000 1.0
C      1  0.4591440000000  0.5179270000000  0.4206000000000 1.0
C      1  0.4061860000000  0.4478130000000  0.4672040000000 1.0
C      1  0.5537660000000  0.5210590000000  0.4984930000000 1.0
C      1  0.5462080000000  0.5089210000000  0.4466210000000 1.0
C      1  0.5554040000000  0.5234460000000  0.4692430000000 1.0
C      1  0.4372610000000  0.5320780000000  0.5093450000000 1.0
C      1  0.4876440000000  0.4440940000000  0.4988620000000 1.0
C      1  0.4938230000000  0.4641460000000  0.4588970000000 1.0
C      1  0.5304550000000  0.4645310000000  0.5424410000000 1.0
C      1  0.5317400000000  0.4443330000000  0.4787280000000 1.0
C      1  0.4346580000000  0.5277690000000  0.5375340000000 1.0
C      1  0.4895140000000  0.4963130000000  0.4932530000000 1.0
C      1  0.5003390000000  0.5109800000000  0.4712320000000 1.0
C      1  0.5449090000000  0.4583200000000  0.5663630000000 1.0
C      1  0.4906660000000  0.5734040000000  0.4816980000000 1.0
C      1  0.5330820000000  0.5009160000000  0.5930290000000 1.0
C      1  0.4258030000000  0.4856440000000  0.4437880000000 1.0
C      1  0.4411080000000  0.5045550000000  0.5502370000000 1.0
C      1  0.4240730000000  0.4857020000000  0.4923740000000 1.0
C      1  0.4866170000000  0.5316940000000  0.4576190000000 1.0
C      1  0.3949880000000  0.4242800000000  0.4672190000000 1.0
END
