TITL C-627112-676-182 -34049.6507557663 125000 -1012.54225446924 0 0 165 (C1) n - 1
REM
REM in /home/nfs/bkarasulu/CARBON/AIRSS/Generating-Clusters/LCBOP/Only-C1/SD-CG/FIRE-CG
REM
REM
REM
REM
REM
REM ./C.cell (11c1c37f851c82e70ff6c80c92926a4b)
REM AIRSS Version 0.9.1 bugfix July 2018 build 013d7b7c2542+ Fri, 06 Jul 2018 19:26:36 +0100
REM compiler GCC version 9.2.1 20190827 (Red Hat 9.2.1-1)
REM options -cpp -mtune=generic -march=x86-64 -g -O0 -fpre-include=/usr/include/finclude/math-vector-fortran.h
REM seed -498706447 718209405 1193970633 1220592334 2117314778 1213567428 -172430881 770914275 -826551668 564053587 617097891 1995527162 -1493589447 1879281161 758581616 972008942 1525721744 438292131 -1782083192 451594687 2109691969 -835375213 1435490431 1085700665 1387233674 -1836968579 1224654943 -1078956180 207593815 1030833832 -1450788037 1741107559 -1848375029
REM
CELL 1.54180   50.00000   50.00000   50.00000   90.00000   90.00000   90.00000
LATT -1
SFAC C  
C      1  0.4274860000000  0.5026420000000  0.4733770000000 1.0
C      1  0.5496140000000  0.4359250000000  0.4410010000000 1.0
C      1  0.5585450000000  0.5181880000000  0.4685990000000 1.0
C      1  0.5403730000000  0.4212160000000  0.5786160000000 1.0
C      1  0.5239220000000  0.4285720000000  0.4546000000000 1.0
C      1  0.5527920000000  0.5535710000000  0.5160260000000 1.0
C      1  0.5633930000000  0.4890510000000  0.6054630000000 1.0
C      1  0.5761190000000  0.4990590000000  0.4039810000000 1.0
C      1  0.4785600000000  0.4816820000000  0.4719650000000 1.0
C      1  0.5361230000000  0.5331970000000  0.4780880000000 1.0
C      1  0.5769310000000  0.4617890000000  0.5191330000000 1.0
C      1  0.4477950000000  0.5459410000000  0.5589870000000 1.0
C      1  0.5768550000000  0.4778060000000  0.4224910000000 1.0
C      1  0.4114330000000  0.5156970000000  0.4533500000000 1.0
C      1  0.3780810000000  0.4820520000000  0.4730280000000 1.0
C      1  0.5411310000000  0.4929300000000  0.5610770000000 1.0
C      1  0.5026670000000  0.5159410000000  0.4380200000000 1.0
C      1  0.5941810000000  0.3386210000000  0.5660600000000 1.0
C      1  0.6039490000000  0.5243280000000  0.5062900000000 1.0
C      1  0.5546980000000  0.4009110000000  0.5899920000000 1.0
C      1  0.5249110000000  0.4476420000000  0.4780130000000 1.0
C      1  0.4733120000000  0.4056620000000  0.4454640000000 1.0
C      1  0.4909340000000  0.4255910000000  0.4978570000000 1.0
C      1  0.4872580000000  0.5454140000000  0.5271050000000 1.0
C      1  0.4552100000000  0.4765850000000  0.6666420000000 1.0
C      1  0.5376340000000  0.4743900000000  0.5397330000000 1.0
C      1  0.4540750000000  0.4746960000000  0.5152700000000 1.0
C      1  0.5787950000000  0.5816060000000  0.4430060000000 1.0
C      1  0.4980030000000  0.4903350000000  0.4004340000000 1.0
C      1  0.5428240000000  0.5573720000000  0.4912490000000 1.0
C      1  0.5002230000000  0.4994580000000  0.5447330000000 1.0
C      1  0.5949000000000  0.3942300000000  0.4565310000000 1.0
C      1  0.4962930000000  0.5592670000000  0.3572400000000 1.0
C      1  0.5180820000000  0.5101220000000  0.5643180000000 1.0
C      1  0.5726910000000  0.6281180000000  0.4253670000000 1.0
C      1  0.4595750000000  0.5887770000000  0.5092300000000 1.0
C      1  0.4900790000000  0.5850420000000  0.3968870000000 1.0
C      1  0.4647200000000  0.5170300000000  0.4982270000000 1.0
C      1  0.5604730000000  0.5291850000000  0.5251460000000 1.0
C      1  0.4768320000000  0.4182710000000  0.5647220000000 1.0
C      1  0.4372300000000  0.5738180000000  0.4981840000000 1.0
C      1  0.4024000000000  0.5290360000000  0.5506100000000 1.0
C      1  0.3850620000000  0.4892350000000  0.5220260000000 1.0
C      1  0.4440240000000  0.4067210000000  0.5295860000000 1.0
C      1  0.4160490000000  0.5336510000000  0.5050440000000 1.0
C      1  0.5544480000000  0.4637930000000  0.6013740000000 1.0
C      1  0.4591320000000  0.5229950000000  0.4028710000000 1.0
C      1  0.5510920000000  0.4042360000000  0.5111390000000 1.0
C      1  0.5632040000000  0.6034930000000  0.4360640000000 1.0
C      1  0.3915510000000  0.5294170000000  0.4906230000000 1.0
C      1  0.5343640000000  0.5633290000000  0.3866700000000 1.0
C      1  0.5885510000000  0.5501100000000  0.6128620000000 1.0
C      1  0.5322490000000  0.4761960000000  0.4749060000000 1.0
C      1  0.3920120000000  0.4603960000000  0.5236240000000 1.0
C      1  0.4730910000000  0.5047780000000  0.5478150000000 1.0
C      1  0.4849390000000  0.5575490000000  0.4794010000000 1.0
C      1  0.5799060000000  0.4634720000000  0.4651560000000 1.0
C      1  0.6055970000000  0.5606150000000  0.6295400000000 1.0
C      1  0.4539910000000  0.4759700000000  0.4167550000000 1.0
C      1  0.5338820000000  0.3813630000000  0.5103720000000 1.0
C      1  0.4978340000000  0.5432480000000  0.4361910000000 1.0
C      1  0.4003860000000  0.5393970000000  0.4641930000000 1.0
C      1  0.5933760000000  0.5502400000000  0.5507410000000 1.0
C      1  0.4279090000000  0.5852830000000  0.4422740000000 1.0
C      1  0.5260630000000  0.5190150000000  0.6086350000000 1.0
C      1  0.4132410000000  0.4585760000000  0.4370620000000 1.0
C      1  0.5058180000000  0.5557520000000  0.5798550000000 1.0
C      1  0.5797790000000  0.5110430000000  0.5155900000000 1.0
C      1  0.5613450000000  0.4840490000000  0.4785350000000 1.0
C      1  0.4452210000000  0.4146010000000  0.4538910000000 1.0
C      1  0.4885350000000  0.5355000000000  0.4989090000000 1.0
C      1  0.5376800000000  0.4283060000000  0.5240880000000 1.0
C      1  0.5162610000000  0.4374180000000  0.5036030000000 1.0
C      1  0.5547960000000  0.5163310000000  0.6049300000000 1.0
C      1  0.5289750000000  0.6425210000000  0.4123000000000 1.0
C      1  0.5563700000000  0.5980160000000  0.5582840000000 1.0
C      1  0.5996090000000  0.4014250000000  0.5162590000000 1.0
C      1  0.5672060000000  0.5225290000000  0.3948500000000 1.0
C      1  0.4690650000000  0.4018600000000  0.5426030000000 1.0
C      1  0.5087950000000  0.5722580000000  0.3793370000000 1.0
C      1  0.4300720000000  0.4199620000000  0.5084100000000 1.0
C      1  0.5999360000000  0.3791500000000  0.5331060000000 1.0
C      1  0.6409860000000  0.4359180000000  0.5132690000000 1.0
C      1  0.5111960000000  0.4979390000000  0.6207490000000 1.0
C      1  0.5151740000000  0.4850030000000  0.5242920000000 1.0
C      1  0.5825170000000  0.5323440000000  0.4637010000000 1.0
C      1  0.5056090000000  0.3823760000000  0.5071760000000 1.0
C      1  0.5744930000000  0.4859490000000  0.5051360000000 1.0
C      1  0.4252600000000  0.4818510000000  0.4216660000000 1.0
C      1  0.4978300000000  0.3995710000000  0.4859060000000 1.0
C      1  0.4877420000000  0.3840520000000  0.5297460000000 1.0
C      1  0.5193350000000  0.5671890000000  0.5566820000000 1.0
C      1  0.4697680000000  0.4954900000000  0.4022510000000 1.0
C      1  0.5532970000000  0.5449460000000  0.3907670000000 1.0
C      1  0.5952330000000  0.4786360000000  0.4457870000000 1.0
C      1  0.3425120000000  0.4985110000000  0.5665870000000 1.0
C      1  0.3165820000000  0.4995720000000  0.5641940000000 1.0
C      1  0.5842500000000  0.5567110000000  0.4503790000000 1.0
C      1  0.4502100000000  0.5455120000000  0.4481960000000 1.0
C      1  0.4228100000000  0.5489640000000  0.5457590000000 1.0
C      1  0.4680400000000  0.5323410000000  0.5444490000000 1.0
C      1  0.5182040000000  0.4927280000000  0.4968730000000 1.0
C      1  0.4801820000000  0.5977170000000  0.5789110000000 1.0
C      1  0.4287330000000  0.5631450000000  0.4630280000000 1.0
C      1  0.4920240000000  0.6084780000000  0.4134380000000 1.0
C      1  0.6056780000000  0.5205300000000  0.4768390000000 1.0
C      1  0.5307540000000  0.4190850000000  0.5520850000000 1.0
C      1  0.4707350000000  0.4892800000000  0.4975920000000 1.0
C      1  0.4373970000000  0.5196820000000  0.4934860000000 1.0
C      1  0.5347530000000  0.6019330000000  0.4360530000000 1.0
C      1  0.4313280000000  0.4648280000000  0.5026880000000 1.0
C      1  0.5138820000000  0.5290350000000  0.5850480000000 1.0
C      1  0.5974850000000  0.3585560000000  0.5495900000000 1.0
C      1  0.4005030000000  0.4665840000000  0.4620570000000 1.0
C      1  0.4691130000000  0.4370890000000  0.4843100000000 1.0
C      1  0.4349970000000  0.4375170000000  0.4386290000000 1.0
C      1  0.5065660000000  0.4512190000000  0.5969090000000 1.0
C      1  0.5014790000000  0.4738380000000  0.6132100000000 1.0
C      1  0.3829120000000  0.4873430000000  0.5911130000000 1.0
C      1  0.5701950000000  0.5389290000000  0.5945720000000 1.0
C      1  0.4804980000000  0.5919230000000  0.5298320000000 1.0
C      1  0.3863510000000  0.5056900000000  0.5460870000000 1.0
C      1  0.4720970000000  0.4564330000000  0.4627090000000 1.0
C      1  0.3803160000000  0.5016600000000  0.4952670000000 1.0
C      1  0.4210160000000  0.5095810000000  0.4281000000000 1.0
C      1  0.5532090000000  0.4529860000000  0.5305510000000 1.0
C      1  0.4728470000000  0.5461960000000  0.3613880000000 1.0
C      1  0.4235630000000  0.5574990000000  0.5177530000000 1.0
C      1  0.5138930000000  0.5202740000000  0.4907070000000 1.0
C      1  0.4147660000000  0.4446040000000  0.5143060000000 1.0
C      1  0.4613960000000  0.5465440000000  0.3872930000000 1.0
C      1  0.5345910000000  0.4450580000000  0.5931660000000 1.0
C      1  0.6084660000000  0.5432070000000  0.5284080000000 1.0
C      1  0.4596370000000  0.4549790000000  0.4364330000000 1.0
C      1  0.5166370000000  0.6186200000000  0.4215840000000 1.0
C      1  0.5769510000000  0.4062760000000  0.4996210000000 1.0
C      1  0.4431600000000  0.5277690000000  0.4257400000000 1.0
C      1  0.6214300000000  0.4188540000000  0.5156390000000 1.0
C      1  0.4555980000000  0.4836510000000  0.5418570000000 1.0
C      1  0.5721070000000  0.4362850000000  0.4599630000000 1.0
C      1  0.4631250000000  0.5723550000000  0.4010660000000 1.0
C      1  0.4660950000000  0.6123750000000  0.4250850000000 1.0
C      1  0.4176170000000  0.4782110000000  0.6299260000000 1.0
C      1  0.4874250000000  0.4358260000000  0.5823580000000 1.0
C      1  0.4774300000000  0.5536250000000  0.4527250000000 1.0
C      1  0.5010420000000  0.4074710000000  0.4572370000000 1.0
C      1  0.4477790000000  0.5896390000000  0.4213960000000 1.0
C      1  0.4768820000000  0.6072810000000  0.5535650000000 1.0
C      1  0.5813720000000  0.4124290000000  0.4720250000000 1.0
C      1  0.3703390000000  0.4970370000000  0.5681340000000 1.0
C      1  0.5694050000000  0.5522500000000  0.5682360000000 1.0
C      1  0.4223490000000  0.4758600000000  0.4787600000000 1.0
C      1  0.4855160000000  0.5023440000000  0.4553500000000 1.0
C      1  0.4995950000000  0.5699660000000  0.5344870000000 1.0
C      1  0.3991650000000  0.4813840000000  0.6111680000000 1.0
C      1  0.5310160000000  0.4793580000000  0.4378760000000 1.0
C      1  0.4815500000000  0.5701640000000  0.5867610000000 1.0
C      1  0.4448530000000  0.4206460000000  0.4828570000000 1.0
C      1  0.5152830000000  0.4963550000000  0.4223930000000 1.0
C      1  0.6124420000000  0.4980260000000  0.4589640000000 1.0
C      1  0.5559000000000  0.6464710000000  0.4141740000000 1.0
C      1  0.5514920000000  0.4626780000000  0.4278130000000 1.0
C      1  0.4568070000000  0.5565270000000  0.5834910000000 1.0
C      1  0.5480350000000  0.5716570000000  0.5607220000000 1.0
C      1  0.4366730000000  0.4770170000000  0.6483170000000 1.0
END
