TITL C-627109-622-705 10.1341743619167 125000 -318.736959985247 0 0 54 (C1) n - 1
REM
REM in /home/nfs/bkarasulu/CARBON/AIRSS/Generating-Clusters/LCBOP/Only-C1/SD-CG/FIRE-CG
REM
REM
REM
REM
REM
REM ./C.cell (11c1c37f851c82e70ff6c80c92926a4b)
REM AIRSS Version 0.9.1 bugfix July 2018 build 013d7b7c2542+ Fri, 06 Jul 2018 19:26:36 +0100
REM compiler GCC version 9.2.1 20190827 (Red Hat 9.2.1-1)
REM options -cpp -mtune=generic -march=x86-64 -g -O0 -fpre-include=/usr/include/finclude/math-vector-fortran.h
REM seed 459383632 -1145748379 -1085443671 879510179 -725102198 1160693404 37346246 1146447593 -1382522647 -1259930479 1704843780 1610238687 -1196855019 -89372067 -1183815153 -78424504 514952805 1009127995 428935018 211578118 1430525085 746636922 -1715205669 785006806 -578029837 -1114048777 1666295673 1800735454 -782366746 98650592 2099427645 1484813882 1562416713
REM
CELL 1.54180   50.00000   50.00000   50.00000   90.00000   90.00000   90.00000
LATT -1
SFAC C  
C      1  0.4418030000000  0.5240090000000  0.2837910000000 1.0
C      1  0.4335480000000  0.5578780000000  0.5257390000000 1.0
C      1  0.5574250000000  0.5482300000000  0.6042590000000 1.0
C      1  0.4758430000000  0.4534530000000  0.5035740000000 1.0
C      1  0.5341610000000  0.4678480000000  0.4705970000000 1.0
C      1  0.4777680000000  0.4996080000000  0.5080700000000 1.0
C      1  0.5495420000000  0.5543630000000  0.5070250000000 1.0
C      1  0.5001060000000  0.4489160000000  0.5204730000000 1.0
C      1  0.5013290000000  0.4199330000000  0.5189430000000 1.0
C      1  0.4322490000000  0.5498560000000  0.5515880000000 1.0
C      1  0.4254400000000  0.5812740000000  0.4864050000000 1.0
C      1  0.5488770000000  0.5287130000000  0.5542270000000 1.0
C      1  0.4992000000000  0.4164350000000  0.4892530000000 1.0
C      1  0.4585740000000  0.5585220000000  0.4554080000000 1.0
C      1  0.5656910000000  0.4490120000000  0.5678540000000 1.0
C      1  0.5725350000000  0.4422570000000  0.5920760000000 1.0
C      1  0.5234830000000  0.4200870000000  0.4749320000000 1.0
C      1  0.5264130000000  0.5588820000000  0.4602530000000 1.0
C      1  0.5658160000000  0.5670600000000  0.6530920000000 1.0
C      1  0.4184960000000  0.5790180000000  0.5130480000000 1.0
C      1  0.4456730000000  0.5618500000000  0.4795700000000 1.0
C      1  0.4721720000000  0.5509340000000  0.4094630000000 1.0
C      1  0.5532330000000  0.5388170000000  0.5798580000000 1.0
C      1  0.4642050000000  0.4224440000000  0.5497860000000 1.0
C      1  0.5413880000000  0.5583600000000  0.4821220000000 1.0
C      1  0.4708230000000  0.4449390000000  0.4560570000000 1.0
C      1  0.4772690000000  0.4689770000000  0.4455150000000 1.0
C      1  0.5699440000000  0.5763210000000  0.6771100000000 1.0
C      1  0.4618060000000  0.4761290000000  0.5133220000000 1.0
C      1  0.5689250000000  0.4446430000000  0.5195010000000 1.0
C      1  0.4660710000000  0.5456460000000  0.3842360000000 1.0
C      1  0.4496570000000  0.4452210000000  0.5496120000000 1.0
C      1  0.4599800000000  0.5402160000000  0.3590240000000 1.0
C      1  0.5579030000000  0.4567870000000  0.5422340000000 1.0
C      1  0.4675600000000  0.5253430000000  0.5070630000000 1.0
C      1  0.5616200000000  0.5576440000000  0.6286730000000 1.0
C      1  0.4786390000000  0.5557300000000  0.4361640000000 1.0
C      1  0.4477960000000  0.5293520000000  0.3085940000000 1.0
C      1  0.5515570000000  0.5451540000000  0.5317910000000 1.0
C      1  0.5135070000000  0.4868800000000  0.4750110000000 1.0
C      1  0.5055430000000  0.4921370000000  0.5024430000000 1.0
C      1  0.4504870000000  0.5470160000000  0.5044150000000 1.0
C      1  0.5380500000000  0.4769780000000  0.5385610000000 1.0
C      1  0.4857350000000  0.4070090000000  0.5390360000000 1.0
C      1  0.5417850000000  0.5019540000000  0.5505160000000 1.0
C      1  0.5423620000000  0.4413410000000  0.4763870000000 1.0
C      1  0.4941320000000  0.4881740000000  0.4543340000000 1.0
C      1  0.5053230000000  0.5576150000000  0.4442530000000 1.0
C      1  0.4910380000000  0.3816400000000  0.5475230000000 1.0
C      1  0.4770740000000  0.4348060000000  0.4814560000000 1.0
C      1  0.4538880000000  0.5347850000000  0.3338120000000 1.0
C      1  0.5640780000000  0.4384830000000  0.4939750000000 1.0
C      1  0.4467040000000  0.4687390000000  0.5361770000000 1.0
C      1  0.5157740000000  0.4725810000000  0.5217990000000 1.0
END
