TITL C-627110-360-1283 0.00122666754306764 125000 -495.309680023906 0 0 82 (C1) n - 1
REM
REM in /home/nfs/bkarasulu/CARBON/AIRSS/Generating-Clusters/LCBOP/Only-C1/SD-CG/FIRE-CG
REM
REM
REM
REM
REM
REM ./C.cell (11c1c37f851c82e70ff6c80c92926a4b)
REM AIRSS Version 0.9.1 bugfix July 2018 build 013d7b7c2542+ Fri, 06 Jul 2018 19:26:36 +0100
REM compiler GCC version 9.2.1 20190827 (Red Hat 9.2.1-1)
REM options -cpp -mtune=generic -march=x86-64 -g -O0 -fpre-include=/usr/include/finclude/math-vector-fortran.h
REM seed 1391347603 -1777839247 -101711323 532386636 -1483758050 1184415308 892245404 43278625 -81167595 -143571937 301411562 852449228 655412500 -1808512873 -1523383086 -1133813796 1269180581 -199411679 1945642967 -493267104 1636605716 631565972 -1028956066 -1737670521 1313369909 928667384 1111030078 1298809383 1221209224 -310449628 -1586482194 577167710 1439059682
REM
CELL 1.54180   50.00000   50.00000   50.00000   90.00000   90.00000   90.00000
LATT -1
SFAC C  
C      1  0.5697860000000  0.4886800000000  0.4694240000000 1.0
C      1  0.5378500000000  0.4909260000000  0.4330080000000 1.0
C      1  0.5736670000000  0.5372930000000  0.4872480000000 1.0
C      1  0.4845430000000  0.5914610000000  0.5134290000000 1.0
C      1  0.5310720000000  0.5226820000000  0.4669530000000 1.0
C      1  0.5820160000000  0.6387120000000  0.5985960000000 1.0
C      1  0.4930750000000  0.4197160000000  0.5113000000000 1.0
C      1  0.4599010000000  0.5290280000000  0.4657560000000 1.0
C      1  0.5241100000000  0.5082440000000  0.5295850000000 1.0
C      1  0.4644660000000  0.5446410000000  0.5172200000000 1.0
C      1  0.4302100000000  0.4364380000000  0.4807240000000 1.0
C      1  0.4852120000000  0.5640400000000  0.5105950000000 1.0
C      1  0.4846800000000  0.5423080000000  0.4571780000000 1.0
C      1  0.4981490000000  0.5064180000000  0.5695420000000 1.0
C      1  0.4673900000000  0.4927190000000  0.5071920000000 1.0
C      1  0.5802040000000  0.5958320000000  0.5682270000000 1.0
C      1  0.5495510000000  0.4476290000000  0.4399500000000 1.0
C      1  0.4189150000000  0.4539410000000  0.4984190000000 1.0
C      1  0.4766930000000  0.5176140000000  0.5170410000000 1.0
C      1  0.4710270000000  0.5097790000000  0.3947700000000 1.0
C      1  0.4689750000000  0.4360060000000  0.5099520000000 1.0
C      1  0.4187770000000  0.5647850000000  0.5138140000000 1.0
C      1  0.4629300000000  0.4845910000000  0.4002440000000 1.0
C      1  0.5594250000000  0.5171250000000  0.4739060000000 1.0
C      1  0.5356160000000  0.4978330000000  0.4064330000000 1.0
C      1  0.4086430000000  0.5834240000000  0.4966760000000 1.0
C      1  0.5791350000000  0.4720700000000  0.4919640000000 1.0
C      1  0.4783260000000  0.4381080000000  0.4582280000000 1.0
C      1  0.5811180000000  0.6174500000000  0.5835370000000 1.0
C      1  0.4455630000000  0.5036140000000  0.5547720000000 1.0
C      1  0.4506270000000  0.4355930000000  0.5314640000000 1.0
C      1  0.4476050000000  0.4397110000000  0.4581910000000 1.0
C      1  0.5032780000000  0.4239130000000  0.4508480000000 1.0
C      1  0.4367740000000  0.5280700000000  0.4845880000000 1.0
C      1  0.4767160000000  0.4839870000000  0.4461040000000 1.0
C      1  0.4861490000000  0.4662970000000  0.4696130000000 1.0
C      1  0.5753620000000  0.5250570000000  0.5486990000000 1.0
C      1  0.5181090000000  0.4192720000000  0.4968460000000 1.0
C      1  0.5777560000000  0.5518580000000  0.5092290000000 1.0
C      1  0.4876230000000  0.4486950000000  0.5772580000000 1.0
C      1  0.4764980000000  0.4643340000000  0.5006900000000 1.0
C      1  0.5221590000000  0.4981640000000  0.4555800000000 1.0
C      1  0.5132430000000  0.4416110000000  0.5789060000000 1.0
C      1  0.4305310000000  0.5247050000000  0.5650660000000 1.0
C      1  0.5251350000000  0.4357230000000  0.4363250000000 1.0
C      1  0.5098260000000  0.5415980000000  0.4727420000000 1.0
C      1  0.5586220000000  0.4745100000000  0.4452750000000 1.0
C      1  0.4386560000000  0.5463500000000  0.5058930000000 1.0
C      1  0.4717420000000  0.4947350000000  0.5663450000000 1.0
C      1  0.5516750000000  0.5191190000000  0.5647840000000 1.0
C      1  0.4683850000000  0.4655840000000  0.5663140000000 1.0
C      1  0.4825430000000  0.6173310000000  0.5158390000000 1.0
C      1  0.4578360000000  0.5035350000000  0.4540730000000 1.0
C      1  0.5391180000000  0.4867300000000  0.5193730000000 1.0
C      1  0.5792470000000  0.5742010000000  0.5529700000000 1.0
C      1  0.4327740000000  0.4879840000000  0.4592880000000 1.0
C      1  0.5560700000000  0.4568470000000  0.5550570000000 1.0
C      1  0.4801510000000  0.5323570000000  0.4061620000000 1.0
C      1  0.5365650000000  0.5030970000000  0.3809270000000 1.0
C      1  0.4338950000000  0.4825120000000  0.5367690000000 1.0
C      1  0.5774900000000  0.5512940000000  0.5373590000000 1.0
C      1  0.5917150000000  0.5054620000000  0.5347340000000 1.0
C      1  0.5663540000000  0.4453380000000  0.4924840000000 1.0
C      1  0.4610760000000  0.4711580000000  0.4247990000000 1.0
C      1  0.5243710000000  0.5118520000000  0.5580970000000 1.0
C      1  0.5137730000000  0.4072200000000  0.4714480000000 1.0
C      1  0.5052710000000  0.5229400000000  0.5157870000000 1.0
C      1  0.5382000000000  0.4410250000000  0.4976150000000 1.0
C      1  0.5140490000000  0.4777500000000  0.4739700000000 1.0
C      1  0.4471000000000  0.4581160000000  0.5479100000000 1.0
C      1  0.5840210000000  0.4825680000000  0.5194100000000 1.0
C      1  0.5069460000000  0.5474680000000  0.5003990000000 1.0
C      1  0.5384930000000  0.4448470000000  0.5710750000000 1.0
C      1  0.4103410000000  0.5629390000000  0.5405240000000 1.0
C      1  0.5254550000000  0.4685700000000  0.5007470000000 1.0
C      1  0.4383390000000  0.4625770000000  0.4420130000000 1.0
C      1  0.5013590000000  0.4650900000000  0.5166740000000 1.0
C      1  0.4247930000000  0.5002230000000  0.4859430000000 1.0
C      1  0.5601080000000  0.4740370000000  0.5337090000000 1.0
C      1  0.4862510000000  0.5453730000000  0.4289020000000 1.0
C      1  0.4227890000000  0.4809510000000  0.5086130000000 1.0
C      1  0.4160120000000  0.5466140000000  0.5608910000000 1.0
END
