TITL C-627107-135-1464 0.453563276018055 125000 -259.099800991697 0 0 44 (C1) n - 1
REM
REM in /home/nfs/bkarasulu/CARBON/AIRSS/Generating-Clusters/LCBOP/Only-C1/SD-CG/FIRE-CG
REM
REM
REM
REM
REM
REM ./C.cell (11c1c37f851c82e70ff6c80c92926a4b)
REM AIRSS Version 0.9.1 bugfix July 2018 build 013d7b7c2542+ Fri, 06 Jul 2018 19:26:36 +0100
REM compiler GCC version 9.2.1 20190827 (Red Hat 9.2.1-1)
REM options -cpp -mtune=generic -march=x86-64 -g -O0 -fpre-include=/usr/include/finclude/math-vector-fortran.h
REM seed 1912238361 -678849559 -190915570 1293370240 1755568295 141337616 -612130288 2104268081 1101571222 -561418000 -1156718649 -211580160 804708841 1597098078 87411801 -1648947659 -903680887 267229359 -871290558 1977318131 508971444 1237591515 1568426612 -2073908576 216283198 -577111356 -1529940334 933926460 1957593026 1702171026 1387387954 235133952 768523875
REM
CELL 1.54180   50.00000   50.00000   50.00000   90.00000   90.00000   90.00000
LATT -1
SFAC C  
C      1  0.5066690000000  0.5277820000000  0.4276370000000 1.0
C      1  0.5241470000000  0.5844050000000  0.3855430000000 1.0
C      1  0.5371990000000  0.4721020000000  0.5810710000000 1.0
C      1  0.4467300000000  0.4863230000000  0.5778590000000 1.0
C      1  0.5330300000000  0.5475310000000  0.5242080000000 1.0
C      1  0.4275310000000  0.5215720000000  0.5525080000000 1.0
C      1  0.4874840000000  0.4226610000000  0.4789950000000 1.0
C      1  0.5483950000000  0.5416250000000  0.5010730000000 1.0
C      1  0.4789560000000  0.4346280000000  0.5028260000000 1.0
C      1  0.5162520000000  0.3770430000000  0.4795810000000 1.0
C      1  0.5252280000000  0.6005680000000  0.3645710000000 1.0
C      1  0.4470260000000  0.4670770000000  0.4717710000000 1.0
C      1  0.5023300000000  0.3990730000000  0.4793240000000 1.0
C      1  0.5478120000000  0.4639760000000  0.6039360000000 1.0
C      1  0.5230650000000  0.5682490000000  0.4065060000000 1.0
C      1  0.4825770000000  0.4831220000000  0.4423200000000 1.0
C      1  0.5689220000000  0.4480550000000  0.6493800000000 1.0
C      1  0.5359790000000  0.5573240000000  0.4519620000000 1.0
C      1  0.4580110000000  0.4672860000000  0.5628110000000 1.0
C      1  0.5219150000000  0.5512210000000  0.4285760000000 1.0
C      1  0.5584540000000  0.4559490000000  0.6268460000000 1.0
C      1  0.5102250000000  0.5384030000000  0.5669130000000 1.0
C      1  0.4220580000000  0.4653490000000  0.4606540000000 1.0
C      1  0.4806400000000  0.4356370000000  0.4545370000000 1.0
C      1  0.5273740000000  0.6326360000000  0.3229620000000 1.0
C      1  0.5627960000000  0.5173290000000  0.5039410000000 1.0
C      1  0.5259230000000  0.4814980000000  0.5573370000000 1.0
C      1  0.5373710000000  0.5035780000000  0.5439470000000 1.0
C      1  0.4940630000000  0.5050390000000  0.4328150000000 1.0
C      1  0.4430160000000  0.5140980000000  0.5747800000000 1.0
C      1  0.4876270000000  0.5394830000000  0.5808640000000 1.0
C      1  0.5263100000000  0.6167350000000  0.3435940000000 1.0
C      1  0.5030690000000  0.4693420000000  0.5467280000000 1.0
C      1  0.4701220000000  0.4621120000000  0.4558590000000 1.0
C      1  0.4359580000000  0.4950120000000  0.5099450000000 1.0
C      1  0.5451850000000  0.5543950000000  0.4766590000000 1.0
C      1  0.4760840000000  0.4637190000000  0.5416520000000 1.0
C      1  0.4264360000000  0.5128150000000  0.5272590000000 1.0
C      1  0.4676490000000  0.4570540000000  0.5153670000000 1.0
C      1  0.4834740000000  0.4229970000000  0.4304360000000 1.0
C      1  0.4625140000000  0.5314890000000  0.5847840000000 1.0
C      1  0.5267780000000  0.5303500000000  0.5460020000000 1.0
C      1  0.5574470000000  0.5000600000000  0.5241640000000 1.0
C      1  0.4501710000000  0.4732990000000  0.4994970000000 1.0
END
