TITL C-627106-156-1708 915.847775569974 125000 -1100.24061910796 0 0 179 (C1) n - 1
REM
REM in /home/nfs/bkarasulu/CARBON/AIRSS/Generating-Clusters/LCBOP/Only-C1/SD-CG/FIRE-CG
REM
REM
REM
REM
REM
REM ./C.cell (11c1c37f851c82e70ff6c80c92926a4b)
REM AIRSS Version 0.9.1 bugfix July 2018 build 013d7b7c2542+ Fri, 06 Jul 2018 19:26:36 +0100
REM compiler GCC version 9.2.1 20190827 (Red Hat 9.2.1-1)
REM options -cpp -mtune=generic -march=x86-64 -g -O0 -fpre-include=/usr/include/finclude/math-vector-fortran.h
REM seed -1152351031 -792619294 74958282 -689281164 942885339 -1036568700 1472670507 1179820212 -635132431 223414624 -415361140 -1365042664 794629834 1530204192 1190763497 1901977009 1236514252 -1442594268 683216820 -508365948 2052992243 -447272491 394539941 755931301 -66650563 232100057 833497986 -526463042 1444447101 -301781261 -1185753076 411426134 9289019
REM
CELL 1.54180   50.00000   50.00000   50.00000   90.00000   90.00000   90.00000
LATT -1
SFAC C  
C      1  0.5469150000000  0.4659290000000  0.4054600000000 1.0
C      1  0.4818680000000  0.6702930000000  0.4779370000000 1.0
C      1  0.4286480000000  0.5974910000000  0.5762230000000 1.0
C      1  0.5681410000000  0.5666950000000  0.4435960000000 1.0
C      1  0.4160190000000  0.4995850000000  0.4201770000000 1.0
C      1  0.4683200000000  0.5429160000000  0.5073160000000 1.0
C      1  0.4551410000000  0.4600730000000  0.5707870000000 1.0
C      1  0.4290410000000  0.5108940000000  0.5283060000000 1.0
C      1  0.3922720000000  0.4659000000000  0.4528490000000 1.0
C      1  0.3494230000000  0.4607440000000  0.5375710000000 1.0
C      1  0.4274720000000  0.4314420000000  0.5017990000000 1.0
C      1  0.5799890000000  0.5068000000000  0.6006220000000 1.0
C      1  0.4317820000000  0.3865740000000  0.4566770000000 1.0
C      1  0.5411200000000  0.4716680000000  0.4835880000000 1.0
C      1  0.5798690000000  0.4090960000000  0.5329120000000 1.0
C      1  0.5136470000000  0.4913340000000  0.4378050000000 1.0
C      1  0.5213720000000  0.4880490000000  0.3897860000000 1.0
C      1  0.5840390000000  0.6046970000000  0.5262470000000 1.0
C      1  0.4241350000000  0.3982410000000  0.5493590000000 1.0
C      1  0.4292160000000  0.5706860000000  0.4518550000000 1.0
C      1  0.3610890000000  0.5207870000000  0.4987620000000 1.0
C      1  0.5234660000000  0.5677060000000  0.5488570000000 1.0
C      1  0.4282660000000  0.4197470000000  0.5645220000000 1.0
C      1  0.4695570000000  0.4830820000000  0.4050750000000 1.0
C      1  0.5238980000000  0.3793780000000  0.4943710000000 1.0
C      1  0.4704310000000  0.5828290000000  0.5521730000000 1.0
C      1  0.5353110000000  0.4206670000000  0.4254590000000 1.0
C      1  0.5295920000000  0.5913890000000  0.4404420000000 1.0
C      1  0.4732510000000  0.5672690000000  0.5770760000000 1.0
C      1  0.6302630000000  0.5259800000000  0.5695470000000 1.0
C      1  0.5997880000000  0.4722290000000  0.4701650000000 1.0
C      1  0.4812570000000  0.3657410000000  0.4719820000000 1.0
C      1  0.4495620000000  0.3206420000000  0.5043910000000 1.0
C      1  0.6086310000000  0.4824260000000  0.5168610000000 1.0
C      1  0.4306960000000  0.4476960000000  0.5627400000000 1.0
C      1  0.4203500000000  0.4814450000000  0.3982510000000 1.0
C      1  0.5695410000000  0.5735990000000  0.5706840000000 1.0
C      1  0.6111430000000  0.5574500000000  0.5200040000000 1.0
C      1  0.5030260000000  0.4494630000000  0.4057130000000 1.0
C      1  0.4404360000000  0.4997840000000  0.4785410000000 1.0
C      1  0.4183120000000  0.5948130000000  0.5146470000000 1.0
C      1  0.4148220000000  0.5045160000000  0.4680340000000 1.0
C      1  0.5476890000000  0.3886900000000  0.5025720000000 1.0
C      1  0.3925810000000  0.4448690000000  0.4722700000000 1.0
C      1  0.4545020000000  0.3726270000000  0.4659650000000 1.0
C      1  0.5259440000000  0.4272820000000  0.4701980000000 1.0
C      1  0.4799330000000  0.5507000000000  0.4105620000000 1.0
C      1  0.4981440000000  0.4389000000000  0.5653790000000 1.0
C      1  0.5835440000000  0.5287630000000  0.5837110000000 1.0
C      1  0.4404820000000  0.5167520000000  0.4220870000000 1.0
C      1  0.5798300000000  0.4552030000000  0.5465600000000 1.0
C      1  0.4201890000000  0.3588180000000  0.5216590000000 1.0
C      1  0.4582160000000  0.4846100000000  0.5867460000000 1.0
C      1  0.4929320000000  0.4945780000000  0.4932990000000 1.0
C      1  0.5120520000000  0.5388500000000  0.5931180000000 1.0
C      1  0.5477030000000  0.6070060000000  0.4575530000000 1.0
C      1  0.5054980000000  0.5927240000000  0.4260440000000 1.0
C      1  0.5407470000000  0.5223530000000  0.4107910000000 1.0
C      1  0.5075830000000  0.5189990000000  0.4895690000000 1.0
C      1  0.4875460000000  0.3378230000000  0.4730200000000 1.0
C      1  0.4116290000000  0.4602460000000  0.5458740000000 1.0
C      1  0.4578020000000  0.5442520000000  0.5774790000000 1.0
C      1  0.4445350000000  0.4283470000000  0.4365370000000 1.0
C      1  0.4042250000000  0.4484980000000  0.4989630000000 1.0
C      1  0.4786980000000  0.6944320000000  0.4686160000000 1.0
C      1  0.5956650000000  0.5456200000000  0.5405230000000 1.0
C      1  0.5674100000000  0.4698550000000  0.4275860000000 1.0
C      1  0.4861650000000  0.5721110000000  0.4303340000000 1.0
C      1  0.4991780000000  0.5359810000000  0.3927930000000 1.0
C      1  0.5657940000000  0.5136910000000  0.5256250000000 1.0
C      1  0.5470740000000  0.5666370000000  0.5326190000000 1.0
C      1  0.6380340000000  0.5613560000000  0.5210000000000 1.0
C      1  0.5822290000000  0.4935390000000  0.4814680000000 1.0
C      1  0.5387840000000  0.5638110000000  0.4418920000000 1.0
C      1  0.5594550000000  0.4229700000000  0.5992420000000 1.0
C      1  0.5480360000000  0.4221150000000  0.4509020000000 1.0
C      1  0.5489830000000  0.4946840000000  0.5397320000000 1.0
C      1  0.4993480000000  0.5703250000000  0.4831200000000 1.0
C      1  0.3609060000000  0.5445400000000  0.4870010000000 1.0
C      1  0.5038430000000  0.5496720000000  0.5394230000000 1.0
C      1  0.3953120000000  0.4614310000000  0.5226330000000 1.0
C      1  0.4303530000000  0.3349510000000  0.5159620000000 1.0
C      1  0.5670310000000  0.5424540000000  0.5327880000000 1.0
C      1  0.5225230000000  0.5173440000000  0.3893020000000 1.0
C      1  0.5713120000000  0.4328310000000  0.4634170000000 1.0
C      1  0.5395350000000  0.6225860000000  0.4797060000000 1.0
C      1  0.4511830000000  0.5664400000000  0.4675800000000 1.0
C      1  0.4040650000000  0.4909430000000  0.4454240000000 1.0
C      1  0.4607940000000  0.4971010000000  0.4301580000000 1.0
C      1  0.4135730000000  0.5464830000000  0.5651620000000 1.0
C      1  0.5465970000000  0.4675010000000  0.6098210000000 1.0
C      1  0.3926660000000  0.4167560000000  0.4649250000000 1.0
C      1  0.4931060000000  0.4444390000000  0.4324360000000 1.0
C      1  0.5313600000000  0.5702770000000  0.4899670000000 1.0
C      1  0.4774230000000  0.6187330000000  0.5797470000000 1.0
C      1  0.5951250000000  0.5647670000000  0.4979460000000 1.0
C      1  0.4959470000000  0.4750290000000  0.3957960000000 1.0
C      1  0.4530080000000  0.5400640000000  0.4120740000000 1.0
C      1  0.4515830000000  0.4406970000000  0.4593850000000 1.0
C      1  0.4116410000000  0.3968550000000  0.4745660000000 1.0
C      1  0.5730030000000  0.5912240000000  0.4626270000000 1.0
C      1  0.3695400000000  0.4732320000000  0.5238360000000 1.0
C      1  0.5152130000000  0.5839700000000  0.5717310000000 1.0
C      1  0.4866860000000  0.4795430000000  0.5399660000000 1.0
C      1  0.5496480000000  0.5469540000000  0.4866280000000 1.0
C      1  0.5219430000000  0.5176750000000  0.4328310000000 1.0
C      1  0.5804700000000  0.5412570000000  0.4377370000000 1.0
C      1  0.5681290000000  0.4331090000000  0.4931100000000 1.0
C      1  0.4208010000000  0.4033650000000  0.5012350000000 1.0
C      1  0.4784030000000  0.5396450000000  0.5336470000000 1.0
C      1  0.4711570000000  0.3215420000000  0.4888600000000 1.0
C      1  0.4672610000000  0.5894600000000  0.5246290000000 1.0
C      1  0.3620730000000  0.5679100000000  0.4755100000000 1.0
C      1  0.4835000000000  0.4814860000000  0.4699050000000 1.0
C      1  0.5311420000000  0.5280050000000  0.4765480000000 1.0
C      1  0.4862190000000  0.4962660000000  0.5862200000000 1.0
C      1  0.4746610000000  0.4902000000000  0.5154560000000 1.0
C      1  0.5793990000000  0.5452800000000  0.4843670000000 1.0
C      1  0.4604500000000  0.4924120000000  0.4586400000000 1.0
C      1  0.4495230000000  0.4394280000000  0.4861770000000 1.0
C      1  0.5019570000000  0.3847460000000  0.4771730000000 1.0
C      1  0.5779280000000  0.4192120000000  0.5802930000000 1.0
C      1  0.5650610000000  0.6245320000000  0.5212080000000 1.0
C      1  0.5808800000000  0.4276690000000  0.5538890000000 1.0
C      1  0.5001670000000  0.5644340000000  0.5877520000000 1.0
C      1  0.5314910000000  0.4417750000000  0.4067880000000 1.0
C      1  0.3647620000000  0.4974560000000  0.5107540000000 1.0
C      1  0.5843990000000  0.4553220000000  0.4500020000000 1.0
C      1  0.5868090000000  0.5010300000000  0.5089910000000 1.0
C      1  0.4894690000000  0.6208260000000  0.4953400000000 1.0
C      1  0.4420170000000  0.5818240000000  0.5128100000000 1.0
C      1  0.5158250000000  0.4373720000000  0.5853590000000 1.0
C      1  0.4961350000000  0.5171980000000  0.6028630000000 1.0
C      1  0.5263640000000  0.5386210000000  0.4502770000000 1.0
C      1  0.5569710000000  0.4667990000000  0.5324430000000 1.0
C      1  0.5940310000000  0.5346620000000  0.4617880000000 1.0
C      1  0.5548920000000  0.4572130000000  0.5047040000000 1.0
C      1  0.5569820000000  0.4913010000000  0.4691530000000 1.0
C      1  0.4870070000000  0.5945300000000  0.5040550000000 1.0
C      1  0.5044290000000  0.4091540000000  0.4634220000000 1.0
C      1  0.4782630000000  0.4554110000000  0.5541820000000 1.0
C      1  0.5658110000000  0.5198900000000  0.4249700000000 1.0
C      1  0.5292510000000  0.3187270000000  0.4447150000000 1.0
C      1  0.4784670000000  0.5715060000000  0.4584530000000 1.0
C      1  0.5643190000000  0.4874300000000  0.6101380000000 1.0
C      1  0.5294800000000  0.5056960000000  0.5590840000000 1.0
C      1  0.5607790000000  0.5460310000000  0.5792370000000 1.0
C      1  0.5352270000000  0.5303840000000  0.5769880000000 1.0
C      1  0.5087240000000  0.3272640000000  0.4583120000000 1.0
C      1  0.4359720000000  0.4028690000000  0.4337890000000 1.0
C      1  0.5628460000000  0.4953730000000  0.4407370000000 1.0
C      1  0.4145720000000  0.5752100000000  0.5689410000000 1.0
C      1  0.4997050000000  0.4173460000000  0.4371070000000 1.0
C      1  0.4109030000000  0.5321780000000  0.5386290000000 1.0
C      1  0.5403920000000  0.5860320000000  0.5113290000000 1.0
C      1  0.4211440000000  0.3866320000000  0.5240000000000 1.0
C      1  0.4482790000000  0.5598630000000  0.4956680000000 1.0
C      1  0.5214490000000  0.4554180000000  0.4716420000000 1.0
C      1  0.4852880000000  0.6456800000000  0.4871530000000 1.0
C      1  0.5020760000000  0.4670720000000  0.4521260000000 1.0
C      1  0.5029920000000  0.6099210000000  0.5743890000000 1.0
C      1  0.5814610000000  0.5908590000000  0.5519900000000 1.0
C      1  0.4453980000000  0.5073640000000  0.5511810000000 1.0
C      1  0.4375830000000  0.5037840000000  0.5792700000000 1.0
C      1  0.4459110000000  0.4748810000000  0.3905480000000 1.0
C      1  0.6043980000000  0.5331480000000  0.5647820000000 1.0
C      1  0.4918260000000  0.5422820000000  0.4921550000000 1.0
C      1  0.4460480000000  0.4988140000000  0.5071810000000 1.0
C      1  0.5019660000000  0.4943380000000  0.5605970000000 1.0
C      1  0.5667500000000  0.4087010000000  0.5081670000000 1.0
C      1  0.4315870000000  0.5322770000000  0.5848910000000 1.0
C      1  0.4640510000000  0.5285510000000  0.5539130000000 1.0
C      1  0.5433070000000  0.6143070000000  0.5066220000000 1.0
C      1  0.4505530000000  0.6132730000000  0.5806810000000 1.0
C      1  0.5871970000000  0.5905410000000  0.4914500000000 1.0
C      1  0.6179540000000  0.4686610000000  0.4926000000000 1.0
C      1  0.6199350000000  0.5261820000000  0.4622610000000 1.0
C      1  0.5389140000000  0.4421460000000  0.6005450000000 1.0
C      1  0.6042590000000  0.4686640000000  0.5410560000000 1.0
END
