TITL C-627113-6568-1899 2.34779468130175 125000 -795.455106561755 0 0 132 (C1) n - 1
REM
REM in /home/nfs/bkarasulu/CARBON/AIRSS/Generating-Clusters/LCBOP/Only-C1/SD-CG/FIRE-CG
REM
REM
REM
REM
REM
REM ./C.cell (11c1c37f851c82e70ff6c80c92926a4b)
REM AIRSS Version 0.9.1 bugfix July 2018 build 013d7b7c2542+ Fri, 06 Jul 2018 19:26:36 +0100
REM compiler GCC version 9.2.1 20190827 (Red Hat 9.2.1-1)
REM options -cpp -mtune=generic -march=x86-64 -g -O0 -fpre-include=/usr/include/finclude/math-vector-fortran.h
REM seed 345610172 -1176354873 -1495048830 -1381227593 273867575 1772225342 998224478 -1977790874 -155295887 1982256217 -1291247161 -177090145 1801895406 -189951076 -1915716162 -1739027134 393717095 609342441 209469251 -1971663091 -455573461 1244672244 -607037385 -1261129981 -358838034 -863524333 -1109849086 -1359213883 -1047647332 1640087308 514657212 -1665963174 678338779
REM
CELL 1.54180   50.00000   50.00000   50.00000   90.00000   90.00000   90.00000
LATT -1
SFAC C  
C      1  0.5767560000000  0.4548370000000  0.5038550000000 1.0
C      1  0.5378730000000  0.4790740000000  0.4735550000000 1.0
C      1  0.4278140000000  0.4282340000000  0.5471540000000 1.0
C      1  0.4726330000000  0.4844700000000  0.5130720000000 1.0
C      1  0.5554580000000  0.4712540000000  0.5666170000000 1.0
C      1  0.6031810000000  0.5062440000000  0.5412970000000 1.0
C      1  0.5467580000000  0.4911230000000  0.5851280000000 1.0
C      1  0.4336940000000  0.4734570000000  0.4546740000000 1.0
C      1  0.5142150000000  0.5871290000000  0.5146950000000 1.0
C      1  0.4639140000000  0.4381710000000  0.5068920000000 1.0
C      1  0.4903500000000  0.5973480000000  0.4457050000000 1.0
C      1  0.5381470000000  0.4841220000000  0.5222680000000 1.0
C      1  0.5368790000000  0.4165010000000  0.4708880000000 1.0
C      1  0.5824490000000  0.4320210000000  0.4499160000000 1.0
C      1  0.4354960000000  0.5280080000000  0.5203550000000 1.0
C      1  0.4449930000000  0.4472980000000  0.4545910000000 1.0
C      1  0.5240560000000  0.5290070000000  0.6026740000000 1.0
C      1  0.5473870000000  0.5071850000000  0.4631940000000 1.0
C      1  0.5561070000000  0.5676370000000  0.5406120000000 1.0
C      1  0.5140120000000  0.5443930000000  0.6245500000000 1.0
C      1  0.4706910000000  0.4103740000000  0.4487340000000 1.0
C      1  0.5404940000000  0.4642740000000  0.5427660000000 1.0
C      1  0.4044400000000  0.5205450000000  0.5682470000000 1.0
C      1  0.5066210000000  0.5085430000000  0.5623410000000 1.0
C      1  0.4135600000000  0.5093580000000  0.5200410000000 1.0
C      1  0.4418600000000  0.5978330000000  0.5091700000000 1.0
C      1  0.4670200000000  0.4962790000000  0.5406750000000 1.0
C      1  0.4554450000000  0.5104190000000  0.4736720000000 1.0
C      1  0.5151780000000  0.4340810000000  0.4799340000000 1.0
C      1  0.4715680000000  0.4403520000000  0.5351340000000 1.0
C      1  0.5364760000000  0.5241250000000  0.4033270000000 1.0
C      1  0.5154970000000  0.5421770000000  0.4701790000000 1.0
C      1  0.4946720000000  0.4919140000000  0.4967320000000 1.0
C      1  0.4888180000000  0.3950540000000  0.5075220000000 1.0
C      1  0.4688970000000  0.5206670000000  0.4101210000000 1.0
C      1  0.5484300000000  0.5709460000000  0.4210180000000 1.0
C      1  0.4470820000000  0.4859490000000  0.5616250000000 1.0
C      1  0.5003480000000  0.5224960000000  0.5862020000000 1.0
C      1  0.4936270000000  0.4563310000000  0.5458710000000 1.0
C      1  0.5593570000000  0.5923940000000  0.4682850000000 1.0
C      1  0.4413400000000  0.5256290000000  0.4117730000000 1.0
C      1  0.5619680000000  0.5058650000000  0.4372510000000 1.0
C      1  0.4842280000000  0.5410760000000  0.3986590000000 1.0
C      1  0.5066730000000  0.5366260000000  0.5237850000000 1.0
C      1  0.3773830000000  0.6078270000000  0.4782470000000 1.0
C      1  0.4992420000000  0.4482990000000  0.4601690000000 1.0
C      1  0.5684730000000  0.5805720000000  0.4052000000000 1.0
C      1  0.5133560000000  0.5394770000000  0.4973320000000 1.0
C      1  0.5850800000000  0.5278500000000  0.5343650000000 1.0
C      1  0.4014900000000  0.5750660000000  0.4528630000000 1.0
C      1  0.4923030000000  0.4851180000000  0.5539640000000 1.0
C      1  0.4239480000000  0.5294880000000  0.5843230000000 1.0
C      1  0.4419100000000  0.4450450000000  0.5926070000000 1.0
C      1  0.5837880000000  0.4701510000000  0.5682990000000 1.0
C      1  0.3982520000000  0.5110120000000  0.5437880000000 1.0
C      1  0.5722550000000  0.5468330000000  0.5526910000000 1.0
C      1  0.4680690000000  0.4106260000000  0.4964540000000 1.0
C      1  0.5137060000000  0.4724300000000  0.4538430000000 1.0
C      1  0.5653920000000  0.5365690000000  0.5783140000000 1.0
C      1  0.5651080000000  0.4669460000000  0.4807420000000 1.0
C      1  0.6113330000000  0.4875010000000  0.5214090000000 1.0
C      1  0.4568650000000  0.4654670000000  0.4989090000000 1.0
C      1  0.5440030000000  0.4462310000000  0.4262220000000 1.0
C      1  0.4200360000000  0.4805940000000  0.4313580000000 1.0
C      1  0.5889810000000  0.4781230000000  0.4661160000000 1.0
C      1  0.4605660000000  0.3994290000000  0.4714350000000 1.0
C      1  0.4528070000000  0.5370170000000  0.4643240000000 1.0
C      1  0.5448020000000  0.5790440000000  0.4481960000000 1.0
C      1  0.5231320000000  0.5661070000000  0.4597910000000 1.0
C      1  0.5479380000000  0.5188170000000  0.5919590000000 1.0
C      1  0.4142040000000  0.4864770000000  0.5022040000000 1.0
C      1  0.4199420000000  0.5398470000000  0.4188340000000 1.0
C      1  0.4654290000000  0.5563980000000  0.4501860000000 1.0
C      1  0.5358350000000  0.3956390000000  0.4930990000000 1.0
C      1  0.4752290000000  0.4731580000000  0.6020440000000 1.0
C      1  0.4556330000000  0.4237020000000  0.5514350000000 1.0
C      1  0.5976330000000  0.4550330000000  0.4513610000000 1.0
C      1  0.4117110000000  0.4453530000000  0.5335060000000 1.0
C      1  0.4611200000000  0.5270170000000  0.5331490000000 1.0
C      1  0.4275330000000  0.4748330000000  0.4061090000000 1.0
C      1  0.5442620000000  0.5800060000000  0.5171310000000 1.0
C      1  0.4990510000000  0.4987140000000  0.4472980000000 1.0
C      1  0.4643760000000  0.5925990000000  0.5223750000000 1.0
C      1  0.5080550000000  0.4402830000000  0.6213750000000 1.0
C      1  0.4491830000000  0.5336870000000  0.5921140000000 1.0
C      1  0.4866220000000  0.5475200000000  0.6224120000000 1.0
C      1  0.4715850000000  0.4120310000000  0.5726360000000 1.0
C      1  0.4983900000000  0.6092510000000  0.4684750000000 1.0
C      1  0.4762460000000  0.5341840000000  0.5986970000000 1.0
C      1  0.4501070000000  0.4724470000000  0.5866780000000 1.0
C      1  0.5161100000000  0.3916170000000  0.5154570000000 1.0
C      1  0.5644380000000  0.5828050000000  0.4948190000000 1.0
C      1  0.5144690000000  0.3921890000000  0.5447070000000 1.0
C      1  0.5438520000000  0.5101540000000  0.5289590000000 1.0
C      1  0.4956560000000  0.3984450000000  0.5639500000000 1.0
C      1  0.4218920000000  0.5961330000000  0.4917170000000 1.0
C      1  0.5209890000000  0.5191960000000  0.4552740000000 1.0
C      1  0.5536760000000  0.4283240000000  0.4480610000000 1.0
C      1  0.5899420000000  0.5696340000000  0.4962580000000 1.0
C      1  0.4066560000000  0.4583520000000  0.5085550000000 1.0
C      1  0.6118040000000  0.5270250000000  0.4758880000000 1.0
C      1  0.4874200000000  0.5766100000000  0.5261130000000 1.0
C      1  0.5480750000000  0.4992500000000  0.4133900000000 1.0
C      1  0.4521330000000  0.4700440000000  0.3964490000000 1.0
C      1  0.5186960000000  0.4472120000000  0.5357510000000 1.0
C      1  0.5672440000000  0.5156270000000  0.4855160000000 1.0
C      1  0.4831130000000  0.4979500000000  0.4208760000000 1.0
C      1  0.4824850000000  0.5013520000000  0.4722360000000 1.0
C      1  0.4065370000000  0.4401780000000  0.4862730000000 1.0
C      1  0.5217120000000  0.5218510000000  0.5416870000000 1.0
C      1  0.5005170000000  0.5581090000000  0.4141020000000 1.0
C      1  0.4373440000000  0.4862050000000  0.4815110000000 1.0
C      1  0.4818990000000  0.5479010000000  0.5309000000000 1.0
C      1  0.5289880000000  0.5516250000000  0.4112980000000 1.0
C      1  0.4065290000000  0.5574650000000  0.4335980000000 1.0
C      1  0.5442630000000  0.4703100000000  0.4123450000000 1.0
C      1  0.5931530000000  0.5057530000000  0.4744920000000 1.0
C      1  0.4984900000000  0.4585590000000  0.3943210000000 1.0
C      1  0.4239470000000  0.4316460000000  0.4671430000000 1.0
C      1  0.4850490000000  0.5715210000000  0.4353030000000 1.0
C      1  0.5219340000000  0.4832550000000  0.4989870000000 1.0
C      1  0.4788950000000  0.4744470000000  0.4045770000000 1.0
C      1  0.5656680000000  0.5206740000000  0.5138480000000 1.0
C      1  0.5087700000000  0.6056820000000  0.4930080000000 1.0
C      1  0.6001470000000  0.4917730000000  0.5656340000000 1.0
C      1  0.6076110000000  0.5519220000000  0.4860340000000 1.0
C      1  0.4001210000000  0.5930980000000  0.4742970000000 1.0
C      1  0.4853190000000  0.4464950000000  0.6079440000000 1.0
C      1  0.4730540000000  0.4389180000000  0.4504600000000 1.0
C      1  0.5167720000000  0.4385660000000  0.5083020000000 1.0
C      1  0.5997590000000  0.4638680000000  0.5150040000000 1.0
C      1  0.4660490000000  0.4276240000000  0.5961620000000 1.0
END
