TITL C-627108-131-259 0.0332143371086753 125000 -791.725028537352 0 0 129 (C1) n - 1
REM
REM in /home/nfs/bkarasulu/CARBON/AIRSS/Generating-Clusters/LCBOP/Only-C1/SD-CG/FIRE-CG
REM
REM
REM
REM
REM
REM ./C.cell (11c1c37f851c82e70ff6c80c92926a4b)
REM AIRSS Version 0.9.1 bugfix July 2018 build 013d7b7c2542+ Fri, 06 Jul 2018 19:26:36 +0100
REM compiler GCC version 9.2.1 20190827 (Red Hat 9.2.1-1)
REM options -cpp -mtune=generic -march=x86-64 -g -O0 -fpre-include=/usr/include/finclude/math-vector-fortran.h
REM seed -611416779 175166795 -1480887047 -381849241 -1855242705 -279076532 1710410712 1655879045 -1615508197 -1984878844 742056142 1450178719 -2070233876 1047286928 -485216383 1894627145 -1350679707 1222483408 -1041346537 2016312546 1146284790 -480419143 1172021193 2088024470 825739010 1869631191 1660106875 1253788335 -191688115 -2100856607 -1913917129 -2006157211 47218900
REM
CELL 1.54180   50.00000   50.00000   50.00000   90.00000   90.00000   90.00000
LATT -1
SFAC C  
C      1  0.4118460000000  0.4714180000000  0.5464120000000 1.0
C      1  0.4691720000000  0.5131120000000  0.4012140000000 1.0
C      1  0.4922510000000  0.5664880000000  0.4606010000000 1.0
C      1  0.3922140000000  0.5015760000000  0.5833460000000 1.0
C      1  0.5375250000000  0.4377610000000  0.5049350000000 1.0
C      1  0.5738730000000  0.4598650000000  0.5749940000000 1.0
C      1  0.4275810000000  0.5241620000000  0.4248410000000 1.0
C      1  0.4905940000000  0.4516270000000  0.5511260000000 1.0
C      1  0.5572560000000  0.5652310000000  0.4615820000000 1.0
C      1  0.5736770000000  0.4874920000000  0.5120490000000 1.0
C      1  0.5979130000000  0.5492040000000  0.4826640000000 1.0
C      1  0.3845940000000  0.5415980000000  0.6098040000000 1.0
C      1  0.4566850000000  0.5198520000000  0.5978720000000 1.0
C      1  0.5953170000000  0.4683090000000  0.5148000000000 1.0
C      1  0.4494960000000  0.5811010000000  0.4252440000000 1.0
C      1  0.5249060000000  0.6005930000000  0.4709530000000 1.0
C      1  0.5396450000000  0.4336730000000  0.5513390000000 1.0
C      1  0.5815730000000  0.4987960000000  0.4483040000000 1.0
C      1  0.5234870000000  0.6263970000000  0.4814170000000 1.0
C      1  0.5741490000000  0.5440810000000  0.4701980000000 1.0
C      1  0.4799000000000  0.5340960000000  0.5059570000000 1.0
C      1  0.5911660000000  0.5224370000000  0.5419880000000 1.0
C      1  0.4062260000000  0.4742080000000  0.4099190000000 1.0
C      1  0.5671760000000  0.4572390000000  0.4699670000000 1.0
C      1  0.5658300000000  0.5177360000000  0.4640520000000 1.0
C      1  0.4887010000000  0.4857880000000  0.5179510000000 1.0
C      1  0.4026880000000  0.4947000000000  0.4562810000000 1.0
C      1  0.4148390000000  0.4564660000000  0.4800410000000 1.0
C      1  0.5435090000000  0.5001420000000  0.5887670000000 1.0
C      1  0.4344240000000  0.4986170000000  0.4950820000000 1.0
C      1  0.4668890000000  0.5089730000000  0.5737340000000 1.0
C      1  0.6036800000000  0.4863790000000  0.4648050000000 1.0
C      1  0.4425710000000  0.4259980000000  0.5050490000000 1.0
C      1  0.4891980000000  0.4920880000000  0.4043230000000 1.0
C      1  0.5674060000000  0.4437950000000  0.5529370000000 1.0
C      1  0.5211230000000  0.4332770000000  0.4824580000000 1.0
C      1  0.4786450000000  0.4896170000000  0.6321330000000 1.0
C      1  0.5199080000000  0.6439100000000  0.5010620000000 1.0
C      1  0.4100970000000  0.5193330000000  0.4448030000000 1.0
C      1  0.5502890000000  0.5640670000000  0.4339570000000 1.0
C      1  0.5289310000000  0.4084800000000  0.4698370000000 1.0
C      1  0.4188990000000  0.4416520000000  0.5036280000000 1.0
C      1  0.4808110000000  0.4589430000000  0.5248900000000 1.0
C      1  0.5464130000000  0.4364190000000  0.4290190000000 1.0
C      1  0.5192960000000  0.4541410000000  0.5527460000000 1.0
C      1  0.3941480000000  0.4818840000000  0.5654060000000 1.0
C      1  0.4807190000000  0.4645880000000  0.6226640000000 1.0
C      1  0.4683660000000  0.4469510000000  0.4302480000000 1.0
C      1  0.5172620000000  0.6150460000000  0.5588360000000 1.0
C      1  0.6258690000000  0.5392600000000  0.5776760000000 1.0
C      1  0.5352600000000  0.4520520000000  0.4074120000000 1.0
C      1  0.5319020000000  0.3877250000000  0.5192890000000 1.0
C      1  0.5404150000000  0.4810290000000  0.4099830000000 1.0
C      1  0.5315480000000  0.3595270000000  0.5282610000000 1.0
C      1  0.5437020000000  0.5816190000000  0.4809400000000 1.0
C      1  0.4835720000000  0.5203770000000  0.5531480000000 1.0
C      1  0.5055390000000  0.5321850000000  0.4931170000000 1.0
C      1  0.4072520000000  0.4509220000000  0.5277130000000 1.0
C      1  0.4621280000000  0.5532440000000  0.4947780000000 1.0
C      1  0.5383140000000  0.5472580000000  0.4163900000000 1.0
C      1  0.5053720000000  0.5904990000000  0.4529680000000 1.0
C      1  0.4440440000000  0.5012110000000  0.5223760000000 1.0
C      1  0.4191330000000  0.5811110000000  0.4636200000000 1.0
C      1  0.5318840000000  0.5701290000000  0.5343810000000 1.0
C      1  0.5640720000000  0.4809110000000  0.5882560000000 1.0
C      1  0.5270960000000  0.5019740000000  0.5657470000000 1.0
C      1  0.4412400000000  0.5083100000000  0.4054600000000 1.0
C      1  0.4445830000000  0.5763020000000  0.4530900000000 1.0
C      1  0.5427950000000  0.5769490000000  0.5088850000000 1.0
C      1  0.3682310000000  0.5581570000000  0.6215220000000 1.0
C      1  0.5042170000000  0.4496450000000  0.4667640000000 1.0
C      1  0.5280540000000  0.5135000000000  0.5026510000000 1.0
C      1  0.4181000000000  0.4507130000000  0.4516480000000 1.0
C      1  0.5220910000000  0.5246040000000  0.4206950000000 1.0
C      1  0.4876020000000  0.4364430000000  0.4479830000000 1.0
C      1  0.5160430000000  0.6501630000000  0.5266040000000 1.0
C      1  0.4119450000000  0.4858080000000  0.4828080000000 1.0
C      1  0.5009660000000  0.6033740000000  0.4292840000000 1.0
C      1  0.5125340000000  0.5257130000000  0.5568470000000 1.0
C      1  0.4755090000000  0.4880070000000  0.4656910000000 1.0
C      1  0.4298910000000  0.5281720000000  0.5985370000000 1.0
C      1  0.5461770000000  0.5262330000000  0.5227780000000 1.0
C      1  0.5267580000000  0.4813330000000  0.5457730000000 1.0
C      1  0.5134310000000  0.5221480000000  0.4474110000000 1.0
C      1  0.5168480000000  0.4902520000000  0.5197460000000 1.0
C      1  0.4784220000000  0.4664820000000  0.4118540000000 1.0
C      1  0.4752340000000  0.5406490000000  0.4006700000000 1.0
C      1  0.5311310000000  0.3872150000000  0.4885940000000 1.0
C      1  0.4652200000000  0.5668780000000  0.4699840000000 1.0
C      1  0.4381380000000  0.6028840000000  0.4130620000000 1.0
C      1  0.5708380000000  0.5123010000000  0.5259010000000 1.0
C      1  0.5015970000000  0.4778250000000  0.4650850000000 1.0
C      1  0.5056170000000  0.5418880000000  0.4658090000000 1.0
C      1  0.4658490000000  0.5638020000000  0.4101830000000 1.0
C      1  0.4565260000000  0.4829930000000  0.5659480000000 1.0
C      1  0.4730390000000  0.5118310000000  0.5247430000000 1.0
C      1  0.4415360000000  0.4424490000000  0.4382320000000 1.0
C      1  0.5313900000000  0.3506640000000  0.5539080000000 1.0
C      1  0.5233450000000  0.5901950000000  0.5517190000000 1.0
C      1  0.4021410000000  0.5238740000000  0.5972910000000 1.0
C      1  0.4659370000000  0.4404080000000  0.5105680000000 1.0
C      1  0.4698280000000  0.5127690000000  0.6217620000000 1.0
C      1  0.6089300000000  0.5311500000000  0.5595980000000 1.0
C      1  0.4550740000000  0.5011120000000  0.4759910000000 1.0
C      1  0.5396400000000  0.5162210000000  0.6104840000000 1.0
C      1  0.5312110000000  0.3590370000000  0.4818500000000 1.0
C      1  0.5433610000000  0.5024920000000  0.4784230000000 1.0
C      1  0.4369010000000  0.4845940000000  0.5449190000000 1.0
C      1  0.5658900000000  0.4314190000000  0.5076070000000 1.0
C      1  0.5313420000000  0.3433790000000  0.5045000000000 1.0
C      1  0.5591120000000  0.4793290000000  0.4879770000000 1.0
C      1  0.5812740000000  0.4450390000000  0.5276690000000 1.0
C      1  0.4770830000000  0.4527850000000  0.5988790000000 1.0
C      1  0.5077090000000  0.6602190000000  0.5731440000000 1.0
C      1  0.5385520000000  0.4130110000000  0.4432030000000 1.0
C      1  0.5339850000000  0.4082000000000  0.5391600000000 1.0
C      1  0.5135110000000  0.6423050000000  0.5534060000000 1.0
C      1  0.5771410000000  0.4338050000000  0.4820790000000 1.0
C      1  0.6103280000000  0.4739180000000  0.4893350000000 1.0
C      1  0.5628190000000  0.4561900000000  0.4425410000000 1.0
C      1  0.3953010000000  0.5846480000000  0.4735510000000 1.0
C      1  0.5303720000000  0.5424940000000  0.5406920000000 1.0
C      1  0.4424850000000  0.3990230000000  0.5011770000000 1.0
C      1  0.4254460000000  0.4870250000000  0.3958080000000 1.0
C      1  0.4730420000000  0.4600020000000  0.5721060000000 1.0
C      1  0.5209020000000  0.4974740000000  0.4599690000000 1.0
C      1  0.4033110000000  0.4717730000000  0.4378030000000 1.0
C      1  0.5644340000000  0.4825390000000  0.4293640000000 1.0
C      1  0.5180750000000  0.4995450000000  0.4069840000000 1.0
END
