TITL C-627107-135-922 -8.76916130199573e-07 125000 -311.148685196176 0 0 51 (C1) n - 1
REM
REM in /home/nfs/bkarasulu/CARBON/AIRSS/Generating-Clusters/LCBOP/Only-C1/SD-CG/FIRE-CG
REM
REM
REM
REM
REM
REM ./C.cell (11c1c37f851c82e70ff6c80c92926a4b)
REM AIRSS Version 0.9.1 bugfix July 2018 build 013d7b7c2542+ Fri, 06 Jul 2018 19:26:36 +0100
REM compiler GCC version 9.2.1 20190827 (Red Hat 9.2.1-1)
REM options -cpp -mtune=generic -march=x86-64 -g -O0 -fpre-include=/usr/include/finclude/math-vector-fortran.h
REM seed -126015050 -1516180277 -1874805094 -1361869036 1979959292 -354565326 249924069 -978493338 1325908876 -1707786700 -265064491 1854902849 1611277267 1795042300 1140242882 -1488778729 -666369120 85582306 79809389 -14875078 769655442 -269706465 1358925173 807664883 -1043678887 70343865 2021102126 -179448713 -1232691654 -1771932057 614620694 -1674327336 -1229313371
REM
CELL 1.54180   50.00000   50.00000   50.00000   90.00000   90.00000   90.00000
LATT -1
SFAC C  
C      1  0.4618810000000  0.4863140000000  0.5428460000000 1.0
C      1  0.4237640000000  0.5399760000000  0.4763550000000 1.0
C      1  0.5125480000000  0.4720670000000  0.4705770000000 1.0
C      1  0.5229500000000  0.5541760000000  0.5526670000000 1.0
C      1  0.5502070000000  0.5167530000000  0.4505600000000 1.0
C      1  0.4864830000000  0.5766110000000  0.5053870000000 1.0
C      1  0.5424330000000  0.5532920000000  0.5337970000000 1.0
C      1  0.4684060000000  0.4353460000000  0.5334870000000 1.0
C      1  0.4399030000000  0.5194590000000  0.4844230000000 1.0
C      1  0.5139320000000  0.4923410000000  0.4258860000000 1.0
C      1  0.4841950000000  0.4350640000000  0.4850270000000 1.0
C      1  0.5696150000000  0.5441410000000  0.4880870000000 1.0
C      1  0.5109980000000  0.5637180000000  0.4652860000000 1.0
C      1  0.5322060000000  0.4230930000000  0.5206760000000 1.0
C      1  0.4863650000000  0.5264390000000  0.4810840000000 1.0
C      1  0.5421470000000  0.5010730000000  0.4278750000000 1.0
C      1  0.5090310000000  0.5357090000000  0.4675920000000 1.0
C      1  0.5157580000000  0.4188230000000  0.5414800000000 1.0
C      1  0.4976660000000  0.4824850000000  0.4481350000000 1.0
C      1  0.5099160000000  0.4460210000000  0.4810650000000 1.0
C      1  0.4676710000000  0.4305040000000  0.5056710000000 1.0
C      1  0.5579970000000  0.5503580000000  0.5118120000000 1.0
C      1  0.5294910000000  0.4849740000000  0.5735550000000 1.0
C      1  0.5603240000000  0.4937800000000  0.4086950000000 1.0
C      1  0.5018470000000  0.4939530000000  0.4011170000000 1.0
C      1  0.5293300000000  0.5165840000000  0.4693450000000 1.0
C      1  0.4894150000000  0.5279850000000  0.5089750000000 1.0
C      1  0.4726990000000  0.5497560000000  0.5466990000000 1.0
C      1  0.5032850000000  0.4891100000000  0.5695840000000 1.0
C      1  0.5257700000000  0.4928850000000  0.4847490000000 1.0
C      1  0.5305030000000  0.4337810000000  0.4960620000000 1.0
C      1  0.5488440000000  0.4849840000000  0.5550270000000 1.0
C      1  0.5706290000000  0.5323630000000  0.4633390000000 1.0
C      1  0.4971110000000  0.5529890000000  0.5617620000000 1.0
C      1  0.4643460000000  0.5129860000000  0.4705770000000 1.0
C      1  0.4889870000000  0.4942740000000  0.5460310000000 1.0
C      1  0.5000620000000  0.5814930000000  0.4825490000000 1.0
C      1  0.4493350000000  0.4696780000000  0.4564940000000 1.0
C      1  0.5736820000000  0.4849080000000  0.5139810000000 1.0
C      1  0.4445870000000  0.5073570000000  0.5337350000000 1.0
C      1  0.5499550000000  0.4884800000000  0.5271660000000 1.0
C      1  0.4333920000000  0.5030730000000  0.5072730000000 1.0
C      1  0.4240970000000  0.4774940000000  0.4987280000000 1.0
C      1  0.4898620000000  0.4231910000000  0.5472790000000 1.0
C      1  0.4698460000000  0.4892430000000  0.4547520000000 1.0
C      1  0.4564580000000  0.4588390000000  0.5432090000000 1.0
C      1  0.4812720000000  0.5530260000000  0.5197170000000 1.0
C      1  0.4497990000000  0.5324250000000  0.5474560000000 1.0
C      1  0.5261030000000  0.4952310000000  0.5129030000000 1.0
C      1  0.4308650000000  0.4647980000000  0.4757070000000 1.0
C      1  0.5020330000000  0.5065950000000  0.5237590000000 1.0
END
