TITL C-627111-6168-1349 -1.44525473443596e-06 125000 -553.000072096918 0 0 92 (C1) n - 1
REM
REM in /home/nfs/bkarasulu/CARBON/AIRSS/Generating-Clusters/LCBOP/Only-C1/SD-CG/FIRE-CG
REM
REM
REM
REM
REM
REM ./C.cell (11c1c37f851c82e70ff6c80c92926a4b)
REM AIRSS Version 0.9.1 bugfix July 2018 build 013d7b7c2542+ Fri, 06 Jul 2018 19:26:36 +0100
REM compiler GCC version 9.2.1 20190827 (Red Hat 9.2.1-1)
REM options -cpp -mtune=generic -march=x86-64 -g -O0 -fpre-include=/usr/include/finclude/math-vector-fortran.h
REM seed -784781878 -1974902390 -787033723 606840839 -488081277 -1464476943 211143694 1660334793 -1008308303 1816639954 1461362013 -1652508936 -254198758 -519532387 928047831 1139370274 1280174190 -1949756433 514055108 1036644301 1080982469 1274857268 -929835511 -1857036956 1742937669 159706227 1615234786 -2065637088 1910688974 -1108115686 2077431648 -1306481186 270639503
REM
CELL 1.54180   50.00000   50.00000   50.00000   90.00000   90.00000   90.00000
LATT -1
SFAC C  
C      1  0.5174200000000  0.5272600000000  0.5344960000000 1.0
C      1  0.4669060000000  0.4862330000000  0.4919970000000 1.0
C      1  0.5215190000000  0.5802560000000  0.5362040000000 1.0
C      1  0.4724690000000  0.5271030000000  0.5179660000000 1.0
C      1  0.4423850000000  0.5155290000000  0.4228370000000 1.0
C      1  0.4819540000000  0.4927650000000  0.4231530000000 1.0
C      1  0.5690360000000  0.4602370000000  0.4363190000000 1.0
C      1  0.4831110000000  0.4640280000000  0.4895580000000 1.0
C      1  0.4810630000000  0.5784800000000  0.4439470000000 1.0
C      1  0.4082770000000  0.5615010000000  0.5358900000000 1.0
C      1  0.5382480000000  0.5204010000000  0.5156640000000 1.0
C      1  0.5527930000000  0.4183310000000  0.4651480000000 1.0
C      1  0.5051450000000  0.4739890000000  0.5830780000000 1.0
C      1  0.4572060000000  0.4254730000000  0.4933830000000 1.0
C      1  0.4614400000000  0.5355880000000  0.4131320000000 1.0
C      1  0.4725880000000  0.5417020000000  0.4952060000000 1.0
C      1  0.5771660000000  0.4885410000000  0.5201480000000 1.0
C      1  0.5929060000000  0.5511110000000  0.5108480000000 1.0
C      1  0.4186040000000  0.5322500000000  0.4824270000000 1.0
C      1  0.4435460000000  0.4716000000000  0.5612490000000 1.0
C      1  0.5179930000000  0.5571200000000  0.4180610000000 1.0
C      1  0.4571200000000  0.5639990000000  0.4861210000000 1.0
C      1  0.5829130000000  0.5352270000000  0.5316980000000 1.0
C      1  0.5206570000000  0.3851970000000  0.4877540000000 1.0
C      1  0.5685810000000  0.4392400000000  0.5097520000000 1.0
C      1  0.5061950000000  0.5792170000000  0.4294710000000 1.0
C      1  0.4722680000000  0.4989450000000  0.5170590000000 1.0
C      1  0.5095890000000  0.4623410000000  0.4516600000000 1.0
C      1  0.4528490000000  0.4624080000000  0.5868780000000 1.0
C      1  0.4091660000000  0.5021850000000  0.5192380000000 1.0
C      1  0.5343720000000  0.5150930000000  0.4614380000000 1.0
C      1  0.4290630000000  0.5584450000000  0.4896560000000 1.0
C      1  0.5377580000000  0.5413130000000  0.6018650000000 1.0
C      1  0.5092240000000  0.4628840000000  0.4803570000000 1.0
C      1  0.5140080000000  0.4099010000000  0.5434700000000 1.0
C      1  0.4973660000000  0.5877950000000  0.5209060000000 1.0
C      1  0.4373760000000  0.5000200000000  0.5598190000000 1.0
C      1  0.4557730000000  0.5191650000000  0.5707230000000 1.0
C      1  0.5699170000000  0.4210760000000  0.4880600000000 1.0
C      1  0.4973470000000  0.3950860000000  0.5287770000000 1.0
C      1  0.5802200000000  0.5123240000000  0.4368850000000 1.0
C      1  0.4775670000000  0.5820740000000  0.4732360000000 1.0
C      1  0.5132660000000  0.5289190000000  0.4165700000000 1.0
C      1  0.4107400000000  0.4816300000000  0.4762520000000 1.0
C      1  0.5593330000000  0.4365100000000  0.4443420000000 1.0
C      1  0.5233740000000  0.5090920000000  0.4362660000000 1.0
C      1  0.5398800000000  0.4415910000000  0.5683730000000 1.0
C      1  0.5893960000000  0.5591690000000  0.4857000000000 1.0
C      1  0.5330270000000  0.4305040000000  0.5435440000000 1.0
C      1  0.4958970000000  0.3920910000000  0.5010530000000 1.0
C      1  0.5714180000000  0.5578860000000  0.4640030000000 1.0
C      1  0.5291890000000  0.5413830000000  0.5759430000000 1.0
C      1  0.4836820000000  0.5347260000000  0.4512710000000 1.0
C      1  0.5764810000000  0.5377340000000  0.4448090000000 1.0
C      1  0.4808780000000  0.4109040000000  0.4838460000000 1.0
C      1  0.4458360000000  0.4529150000000  0.5395120000000 1.0
C      1  0.4161020000000  0.5116740000000  0.5446760000000 1.0
C      1  0.5275160000000  0.4044170000000  0.4673950000000 1.0
C      1  0.5223070000000  0.5170240000000  0.5616480000000 1.0
C      1  0.4563940000000  0.4947770000000  0.4379520000000 1.0
C      1  0.5299670000000  0.5818220000000  0.4878650000000 1.0
C      1  0.4081960000000  0.5384350000000  0.5497050000000 1.0
C      1  0.4863670000000  0.5188420000000  0.4078210000000 1.0
C      1  0.4158700000000  0.5704200000000  0.5116700000000 1.0
C      1  0.5342940000000  0.5181800000000  0.4879400000000 1.0
C      1  0.5772240000000  0.4857300000000  0.4347960000000 1.0
C      1  0.5268460000000  0.4569770000000  0.5009060000000 1.0
C      1  0.4799210000000  0.4669470000000  0.5930300000000 1.0
C      1  0.5005730000000  0.4157870000000  0.4610780000000 1.0
C      1  0.4114140000000  0.5057730000000  0.4912790000000 1.0
C      1  0.4889390000000  0.4875310000000  0.5383850000000 1.0
C      1  0.5470970000000  0.5723110000000  0.4675240000000 1.0
C      1  0.5061590000000  0.4926500000000  0.5617910000000 1.0
C      1  0.5008310000000  0.4370020000000  0.4425770000000 1.0
C      1  0.4754020000000  0.5364070000000  0.5631600000000 1.0
C      1  0.4199130000000  0.4565470000000  0.4722380000000 1.0
C      1  0.4372180000000  0.4361410000000  0.4759510000000 1.0
C      1  0.5653300000000  0.5139810000000  0.5241860000000 1.0
C      1  0.5412440000000  0.5813170000000  0.5149620000000 1.0
C      1  0.5260450000000  0.5660070000000  0.5605480000000 1.0
C      1  0.5005490000000  0.5870650000000  0.4909250000000 1.0
C      1  0.4359830000000  0.4499060000000  0.6043490000000 1.0
C      1  0.5276350000000  0.4575420000000  0.5860550000000 1.0
C      1  0.5832260000000  0.4630160000000  0.5140020000000 1.0
C      1  0.5067990000000  0.4851850000000  0.4356510000000 1.0
C      1  0.4538870000000  0.4351690000000  0.5205640000000 1.0
C      1  0.4695270000000  0.5532870000000  0.4344480000000 1.0
C      1  0.4902750000000  0.5321500000000  0.4763990000000 1.0
C      1  0.4561420000000  0.4936260000000  0.4664880000000 1.0
C      1  0.4893560000000  0.5364690000000  0.5381080000000 1.0
C      1  0.5418200000000  0.4420240000000  0.5192200000000 1.0
C      1  0.5901350000000  0.5393690000000  0.5576890000000 1.0
END
