TITL C-627110-360-439 -1.61613555328688e-06 125000 -1142.86574346235 0 0 187 (C1) n - 1
REM
REM in /home/nfs/bkarasulu/CARBON/AIRSS/Generating-Clusters/LCBOP/Only-C1/SD-CG/FIRE-CG
REM
REM
REM
REM
REM
REM ./C.cell (11c1c37f851c82e70ff6c80c92926a4b)
REM AIRSS Version 0.9.1 bugfix July 2018 build 013d7b7c2542+ Fri, 06 Jul 2018 19:26:36 +0100
REM compiler GCC version 9.2.1 20190827 (Red Hat 9.2.1-1)
REM options -cpp -mtune=generic -march=x86-64 -g -O0 -fpre-include=/usr/include/finclude/math-vector-fortran.h
REM seed -1915618106 1446219428 -982732590 -345808790 -1263453066 2062508108 830086966 -1788120260 1910556330 -1178334079 -1104380783 -1575797939 -2101618237 -1965768026 612127272 -766303249 49686607 -1771796531 1044153359 1272241844 56285666 1334657765 800890365 1615674367 -779140281 -1169573428 262894326 796492511 -654488017 -1105594015 -1295165545 -386038700 -864589504
REM
CELL 1.54180   50.00000   50.00000   50.00000   90.00000   90.00000   90.00000
LATT -1
SFAC C  
C      1  0.4115790000000  0.5250950000000  0.4331450000000 1.0
C      1  0.3946540000000  0.4116210000000  0.4567900000000 1.0
C      1  0.4383580000000  0.5567180000000  0.4606310000000 1.0
C      1  0.3910020000000  0.5416530000000  0.5075060000000 1.0
C      1  0.4428260000000  0.4755400000000  0.4885230000000 1.0
C      1  0.4637470000000  0.5220240000000  0.4349250000000 1.0
C      1  0.4493220000000  0.5136360000000  0.4103860000000 1.0
C      1  0.4454030000000  0.4817240000000  0.4408250000000 1.0
C      1  0.4947330000000  0.4179290000000  0.4131330000000 1.0
C      1  0.5414870000000  0.4627090000000  0.4466570000000 1.0
C      1  0.5129850000000  0.5365090000000  0.3864360000000 1.0
C      1  0.5425100000000  0.5491820000000  0.5463930000000 1.0
C      1  0.5206920000000  0.6062410000000  0.5839370000000 1.0
C      1  0.5257610000000  0.4605200000000  0.3819550000000 1.0
C      1  0.5445230000000  0.6117510000000  0.4828530000000 1.0
C      1  0.5881400000000  0.4434590000000  0.4268990000000 1.0
C      1  0.4409290000000  0.6041940000000  0.4449620000000 1.0
C      1  0.4852220000000  0.5363350000000  0.3921680000000 1.0
C      1  0.5320830000000  0.5576780000000  0.4820450000000 1.0
C      1  0.4690610000000  0.5735640000000  0.5802870000000 1.0
C      1  0.4819690000000  0.3904160000000  0.4607840000000 1.0
C      1  0.4228210000000  0.4519390000000  0.4083340000000 1.0
C      1  0.5254740000000  0.4005890000000  0.5321220000000 1.0
C      1  0.4328550000000  0.5447280000000  0.5936220000000 1.0
C      1  0.4045000000000  0.5366790000000  0.5337610000000 1.0
C      1  0.5422470000000  0.4777150000000  0.4222960000000 1.0
C      1  0.6057180000000  0.5582110000000  0.5373330000000 1.0
C      1  0.4184190000000  0.6005820000000  0.4601180000000 1.0
C      1  0.5005750000000  0.3728950000000  0.4512390000000 1.0
C      1  0.4409290000000  0.5201790000000  0.5047150000000 1.0
C      1  0.5985560000000  0.5940420000000  0.4367480000000 1.0
C      1  0.5227780000000  0.4910680000000  0.6070120000000 1.0
C      1  0.4394210000000  0.5172870000000  0.5912410000000 1.0
C      1  0.5324360000000  0.6151010000000  0.4561070000000 1.0
C      1  0.5099760000000  0.4376300000000  0.5047970000000 1.0
C      1  0.4626320000000  0.5093690000000  0.6068910000000 1.0
C      1  0.4850750000000  0.4597320000000  0.4440500000000 1.0
C      1  0.5756980000000  0.4976930000000  0.5558750000000 1.0
C      1  0.5935360000000  0.4325320000000  0.5360150000000 1.0
C      1  0.5511450000000  0.4945980000000  0.5695240000000 1.0
C      1  0.5528580000000  0.4064530000000  0.5867020000000 1.0
C      1  0.5078520000000  0.4251310000000  0.6148340000000 1.0
C      1  0.5958930000000  0.4620620000000  0.5782110000000 1.0
C      1  0.4985320000000  0.4387640000000  0.4551860000000 1.0
C      1  0.6266880000000  0.4897340000000  0.5542890000000 1.0
C      1  0.4853830000000  0.5223690000000  0.6207680000000 1.0
C      1  0.5651990000000  0.4381650000000  0.4081500000000 1.0
C      1  0.6010250000000  0.4685810000000  0.4244530000000 1.0
C      1  0.4262030000000  0.4968990000000  0.4973020000000 1.0
C      1  0.4288020000000  0.5519280000000  0.5366910000000 1.0
C      1  0.4895850000000  0.5767170000000  0.5616560000000 1.0
C      1  0.4641050000000  0.3911930000000  0.5681840000000 1.0
C      1  0.4419820000000  0.5670460000000  0.5793970000000 1.0
C      1  0.3771920000000  0.4487970000000  0.4961020000000 1.0
C      1  0.4253580000000  0.5024130000000  0.5693650000000 1.0
C      1  0.6282510000000  0.4948100000000  0.4890690000000 1.0
C      1  0.5730180000000  0.4942830000000  0.5276900000000 1.0
C      1  0.4878980000000  0.4222060000000  0.4974170000000 1.0
C      1  0.5980720000000  0.4229080000000  0.5074410000000 1.0
C      1  0.4755360000000  0.5210590000000  0.4583850000000 1.0
C      1  0.5272700000000  0.4875000000000  0.5551170000000 1.0
C      1  0.4473950000000  0.4396430000000  0.6111510000000 1.0
C      1  0.4554280000000  0.4002110000000  0.3915670000000 1.0
C      1  0.3853080000000  0.5277350000000  0.4424200000000 1.0
C      1  0.5476390000000  0.4600740000000  0.4000380000000 1.0
C      1  0.6404560000000  0.5068530000000  0.5095620000000 1.0
C      1  0.5486780000000  0.5506670000000  0.4175650000000 1.0
C      1  0.5357550000000  0.5742180000000  0.4281490000000 1.0
C      1  0.3936990000000  0.5672900000000  0.4943010000000 1.0
C      1  0.6004300000000  0.4893240000000  0.5674480000000 1.0
C      1  0.4954150000000  0.5570190000000  0.5414920000000 1.0
C      1  0.5285450000000  0.6002990000000  0.5033130000000 1.0
C      1  0.3758010000000  0.4837580000000  0.4585660000000 1.0
C      1  0.4432290000000  0.5575220000000  0.4115670000000 1.0
C      1  0.4028360000000  0.5147670000000  0.5536490000000 1.0
C      1  0.5314530000000  0.5301070000000  0.4071250000000 1.0
C      1  0.4885330000000  0.4167120000000  0.4696820000000 1.0
C      1  0.4681360000000  0.4872300000000  0.5305410000000 1.0
C      1  0.5673300000000  0.4043620000000  0.4406250000000 1.0
C      1  0.5704530000000  0.5232780000000  0.4877570000000 1.0
C      1  0.5100400000000  0.5565550000000  0.4644990000000 1.0
C      1  0.4396100000000  0.4638180000000  0.4625330000000 1.0
C      1  0.4332390000000  0.4748130000000  0.5630890000000 1.0
C      1  0.4077370000000  0.4761490000000  0.4158710000000 1.0
C      1  0.4771450000000  0.5354170000000  0.5357740000000 1.0
C      1  0.5496290000000  0.4801090000000  0.5955660000000 1.0
C      1  0.4670900000000  0.4792210000000  0.5031670000000 1.0
C      1  0.4577640000000  0.4691340000000  0.5493870000000 1.0
C      1  0.4339950000000  0.4303110000000  0.5881020000000 1.0
C      1  0.6131020000000  0.6170370000000  0.5111580000000 1.0
C      1  0.4653710000000  0.5968200000000  0.4350450000000 1.0
C      1  0.5096620000000  0.6311040000000  0.4516090000000 1.0
C      1  0.3771440000000  0.5043090000000  0.5586670000000 1.0
C      1  0.3844910000000  0.4747070000000  0.4329100000000 1.0
C      1  0.5310550000000  0.5481730000000  0.3369620000000 1.0
C      1  0.4654910000000  0.5904280000000  0.4912580000000 1.0
C      1  0.4719070000000  0.5585760000000  0.4065330000000 1.0
C      1  0.5371590000000  0.4781140000000  0.4995550000000 1.0
C      1  0.4353900000000  0.3973970000000  0.4789330000000 1.0
C      1  0.5038000000000  0.6014260000000  0.5622610000000 1.0
C      1  0.4990080000000  0.4878370000000  0.5892680000000 1.0
C      1  0.5811510000000  0.5169400000000  0.5126210000000 1.0
C      1  0.5418970000000  0.5152620000000  0.6639340000000 1.0
C      1  0.3846420000000  0.4724520000000  0.4839690000000 1.0
C      1  0.4909720000000  0.4788960000000  0.4895380000000 1.0
C      1  0.5249020000000  0.4388740000000  0.4456100000000 1.0
C      1  0.3745800000000  0.5130890000000  0.4637710000000 1.0
C      1  0.5865980000000  0.4621670000000  0.4775330000000 1.0
C      1  0.4024850000000  0.5870260000000  0.4777110000000 1.0
C      1  0.5693250000000  0.4563330000000  0.5906020000000 1.0
C      1  0.5516990000000  0.5029630000000  0.6847150000000 1.0
C      1  0.4839380000000  0.5082570000000  0.5426630000000 1.0
C      1  0.5299820000000  0.4258710000000  0.5203480000000 1.0
C      1  0.5024510000000  0.4991050000000  0.5625160000000 1.0
C      1  0.5090580000000  0.5698970000000  0.4389980000000 1.0
C      1  0.6104420000000  0.4449790000000  0.5567950000000 1.0
C      1  0.5081210000000  0.6485400000000  0.4306910000000 1.0
C      1  0.3537970000000  0.4929980000000  0.5611160000000 1.0
C      1  0.4634960000000  0.4608350000000  0.6138720000000 1.0
C      1  0.5754160000000  0.5419110000000  0.4208900000000 1.0
C      1  0.4834760000000  0.6121960000000  0.4928260000000 1.0
C      1  0.4290550000000  0.5733160000000  0.5549290000000 1.0
C      1  0.5246950000000  0.4590190000000  0.5519620000000 1.0
C      1  0.5044270000000  0.6126470000000  0.5121710000000 1.0
C      1  0.5220690000000  0.5584690000000  0.5305810000000 1.0
C      1  0.4890260000000  0.3844010000000  0.5610370000000 1.0
C      1  0.5627880000000  0.4309570000000  0.5774550000000 1.0
C      1  0.6117850000000  0.3985090000000  0.5064150000000 1.0
C      1  0.6388430000000  0.5072670000000  0.5363610000000 1.0
C      1  0.4423760000000  0.4348480000000  0.4226570000000 1.0
C      1  0.4843300000000  0.5768960000000  0.4255480000000 1.0
C      1  0.6006750000000  0.4953960000000  0.4224750000000 1.0
C      1  0.3697890000000  0.4293210000000  0.5117680000000 1.0
C      1  0.5134010000000  0.4643810000000  0.4958010000000 1.0
C      1  0.4208340000000  0.4158830000000  0.4632350000000 1.0
C      1  0.4211330000000  0.4512900000000  0.5736730000000 1.0
C      1  0.5675560000000  0.4327090000000  0.5487590000000 1.0
C      1  0.5507970000000  0.4140350000000  0.4179970000000 1.0
C      1  0.5070230000000  0.4328930000000  0.5899190000000 1.0
C      1  0.4359520000000  0.4370050000000  0.4516680000000 1.0
C      1  0.5725950000000  0.6065690000000  0.4776690000000 1.0
C      1  0.5538370000000  0.5411080000000  0.4774600000000 1.0
C      1  0.5867240000000  0.4240440000000  0.4510760000000 1.0
C      1  0.5344880000000  0.5042260000000  0.4179140000000 1.0
C      1  0.5313980000000  0.5276660000000  0.6412490000000 1.0
C      1  0.4738360000000  0.4835290000000  0.6016080000000 1.0
C      1  0.4521870000000  0.5701560000000  0.4795850000000 1.0
C      1  0.5352850000000  0.3883700000000  0.5772130000000 1.0
C      1  0.5752080000000  0.5983410000000  0.4499520000000 1.0
C      1  0.4812420000000  0.4842230000000  0.4002560000000 1.0
C      1  0.4285890000000  0.5487680000000  0.4349110000000 1.0
C      1  0.5220750000000  0.5425950000000  0.3607810000000 1.0
C      1  0.5563710000000  0.4721500000000  0.5191840000000 1.0
C      1  0.4552120000000  0.3825070000000  0.4652850000000 1.0
C      1  0.4507060000000  0.5385600000000  0.5243030000000 1.0
C      1  0.4437130000000  0.4065360000000  0.5764440000000 1.0
C      1  0.5229740000000  0.4199510000000  0.4228920000000 1.0
C      1  0.5621090000000  0.4682610000000  0.4649280000000 1.0
C      1  0.5921280000000  0.5208470000000  0.4220180000000 1.0
C      1  0.4707110000000  0.4757300000000  0.4265930000000 1.0
C      1  0.5959460000000  0.5373270000000  0.5251620000000 1.0
C      1  0.4764620000000  0.4492800000000  0.5566630000000 1.0
C      1  0.4655970000000  0.4150050000000  0.5126820000000 1.0
C      1  0.5382270000000  0.5540780000000  0.6350250000000 1.0
C      1  0.4182820000000  0.5977620000000  0.5496670000000 1.0
C      1  0.4919720000000  0.5368170000000  0.4713990000000 1.0
C      1  0.3983270000000  0.4943100000000  0.4972190000000 1.0
C      1  0.5463460000000  0.4466790000000  0.5344300000000 1.0
C      1  0.5165210000000  0.3882790000000  0.5560240000000 1.0
C      1  0.5017540000000  0.6175440000000  0.5394880000000 1.0
C      1  0.5329620000000  0.5967930000000  0.6055560000000 1.0
C      1  0.4885940000000  0.6282470000000  0.4701890000000 1.0
C      1  0.4419590000000  0.4042070000000  0.5055310000000 1.0
C      1  0.6081680000000  0.4796940000000  0.4803290000000 1.0
C      1  0.3840940000000  0.5190710000000  0.4911700000000 1.0
C      1  0.5288100000000  0.5718950000000  0.5063010000000 1.0
C      1  0.4647990000000  0.4188840000000  0.4102220000000 1.0
C      1  0.6331600000000  0.4616030000000  0.5506790000000 1.0
C      1  0.5031470000000  0.4451170000000  0.5649850000000 1.0
C      1  0.5484470000000  0.5975790000000  0.4383940000000 1.0
C      1  0.4713260000000  0.5106130000000  0.3925970000000 1.0
C      1  0.5136320000000  0.5135780000000  0.6242810000000 1.0
C      1  0.5911710000000  0.4335840000000  0.4798890000000 1.0
C      1  0.4263820000000  0.4991670000000  0.4234810000000 1.0
C      1  0.5388500000000  0.5778400000000  0.6232190000000 1.0
C      1  0.5006140000000  0.4701970000000  0.3851700000000 1.0
C      1  0.5932550000000  0.6102680000000  0.4956840000000 1.0
END
