TITL C-627112-676-1703 -5554.15427316749 125000 -570.925982079653 0 0 95 (C1) n - 1
REM
REM in /home/nfs/bkarasulu/CARBON/AIRSS/Generating-Clusters/LCBOP/Only-C1/SD-CG/FIRE-CG
REM
REM
REM
REM
REM
REM ./C.cell (11c1c37f851c82e70ff6c80c92926a4b)
REM AIRSS Version 0.9.1 bugfix July 2018 build 013d7b7c2542+ Fri, 06 Jul 2018 19:26:36 +0100
REM compiler GCC version 9.2.1 20190827 (Red Hat 9.2.1-1)
REM options -cpp -mtune=generic -march=x86-64 -g -O0 -fpre-include=/usr/include/finclude/math-vector-fortran.h
REM seed 1486864435 669910462 1239833503 -230543662 927856320 -1319336467 2143069816 697816955 -1963227102 -478770472 -1734498352 1222354621 1756738766 -1126832564 -1220968294 22961118 -278774189 1062193827 2005285146 -1955176233 1476233660 -167774172 -1424084571 -508225236 -1737062174 -673386393 -1480772985 -1125320680 1534582845 1758587711 -496268502 1348466727 789571008
REM
CELL 1.54180   50.00000   50.00000   50.00000   90.00000   90.00000   90.00000
LATT -1
SFAC C  
C      1  0.5197700000000  0.4734450000000  0.4746280000000 1.0
C      1  0.5798810000000  0.4229110000000  0.5319070000000 1.0
C      1  0.4661060000000  0.4382470000000  0.5960230000000 1.0
C      1  0.4034730000000  0.4403760000000  0.5216630000000 1.0
C      1  0.5792880000000  0.5442080000000  0.4981730000000 1.0
C      1  0.5111230000000  0.5025910000000  0.5412840000000 1.0
C      1  0.5631650000000  0.4976970000000  0.4955590000000 1.0
C      1  0.4681840000000  0.4875280000000  0.5059910000000 1.0
C      1  0.5360050000000  0.5750750000000  0.4915430000000 1.0
C      1  0.4782730000000  0.4489450000000  0.4571400000000 1.0
C      1  0.5193360000000  0.5287950000000  0.4426450000000 1.0
C      1  0.5879320000000  0.5187300000000  0.5512610000000 1.0
C      1  0.5074760000000  0.5828630000000  0.5469570000000 1.0
C      1  0.5201550000000  0.4263640000000  0.4742200000000 1.0
C      1  0.5516910000000  0.4631590000000  0.5725510000000 1.0
C      1  0.4489320000000  0.4255550000000  0.5780050000000 1.0
C      1  0.5292660000000  0.5504970000000  0.5740020000000 1.0
C      1  0.5619180000000  0.5927560000000  0.4182070000000 1.0
C      1  0.5551910000000  0.5914620000000  0.4438130000000 1.0
C      1  0.5715280000000  0.4578510000000  0.4227720000000 1.0
C      1  0.5673830000000  0.4667740000000  0.5490510000000 1.0
C      1  0.5036270000000  0.4689160000000  0.5939990000000 1.0
C      1  0.5555760000000  0.5033690000000  0.5238590000000 1.0
C      1  0.4837100000000  0.5655060000000  0.3706870000000 1.0
C      1  0.5445690000000  0.5370920000000  0.5550620000000 1.0
C      1  0.5449820000000  0.5204460000000  0.4353830000000 1.0
C      1  0.5493920000000  0.5767630000000  0.5170860000000 1.0
C      1  0.4228800000000  0.4316090000000  0.5385670000000 1.0
C      1  0.5667870000000  0.4246270000000  0.4621610000000 1.0
C      1  0.4125300000000  0.4767410000000  0.5201460000000 1.0
C      1  0.4633530000000  0.4596080000000  0.5012940000000 1.0
C      1  0.4336380000000  0.4715680000000  0.5647500000000 1.0
C      1  0.4598890000000  0.5100450000000  0.5800190000000 1.0
C      1  0.3963490000000  0.5344950000000  0.5602890000000 1.0
C      1  0.5755550000000  0.4937120000000  0.5429150000000 1.0
C      1  0.5691350000000  0.5235630000000  0.4816230000000 1.0
C      1  0.4662520000000  0.4606030000000  0.4088180000000 1.0
C      1  0.5527280000000  0.4496240000000  0.5014720000000 1.0
C      1  0.4674390000000  0.4356170000000  0.5167180000000 1.0
C      1  0.4740250000000  0.4458120000000  0.4296490000000 1.0
C      1  0.4757170000000  0.4646220000000  0.5918960000000 1.0
C      1  0.5440980000000  0.4749970000000  0.4894710000000 1.0
C      1  0.5911540000000  0.4838240000000  0.4932510000000 1.0
C      1  0.4326910000000  0.4929760000000  0.4537410000000 1.0
C      1  0.5475860000000  0.4281420000000  0.4825600000000 1.0
C      1  0.4562020000000  0.4823120000000  0.5796920000000 1.0
C      1  0.5058390000000  0.5655070000000  0.5696430000000 1.0
C      1  0.4793000000000  0.5874180000000  0.3572850000000 1.0
C      1  0.5676450000000  0.5921080000000  0.3927830000000 1.0
C      1  0.5468620000000  0.5859530000000  0.4683490000000 1.0
C      1  0.5741390000000  0.4375070000000  0.4398410000000 1.0
C      1  0.4574260000000  0.4082900000000  0.5563400000000 1.0
C      1  0.5054130000000  0.4767800000000  0.5424620000000 1.0
C      1  0.4310880000000  0.4692270000000  0.4684230000000 1.0
C      1  0.5710910000000  0.5579800000000  0.5216960000000 1.0
C      1  0.4560610000000  0.4557810000000  0.4739840000000 1.0
C      1  0.4940410000000  0.4320320000000  0.5251880000000 1.0
C      1  0.5333770000000  0.5134660000000  0.3895180000000 1.0
C      1  0.4703580000000  0.5140240000000  0.4947570000000 1.0
C      1  0.4648540000000  0.5997580000000  0.5281910000000 1.0
C      1  0.3880250000000  0.5583080000000  0.5668620000000 1.0
C      1  0.5296490000000  0.4658480000000  0.5877820000000 1.0
C      1  0.4102220000000  0.4651580000000  0.4866590000000 1.0
C      1  0.5344510000000  0.5168270000000  0.5375340000000 1.0
C      1  0.4723420000000  0.5366310000000  0.5125340000000 1.0
C      1  0.4812480000000  0.5540450000000  0.5768910000000 1.0
C      1  0.4880100000000  0.5604190000000  0.5085980000000 1.0
C      1  0.5482370000000  0.5049730000000  0.4117660000000 1.0
C      1  0.4859520000000  0.5816580000000  0.5280740000000 1.0
C      1  0.4966900000000  0.5281450000000  0.4562350000000 1.0
C      1  0.4702650000000  0.5328350000000  0.4041460000000 1.0
C      1  0.5623300000000  0.4807850000000  0.4127850000000 1.0
C      1  0.4725310000000  0.5181330000000  0.4661900000000 1.0
C      1  0.3878160000000  0.4202110000000  0.4780630000000 1.0
C      1  0.5923910000000  0.4003730000000  0.5357330000000 1.0
C      1  0.5081140000000  0.4507910000000  0.5378090000000 1.0
C      1  0.4292510000000  0.4431850000000  0.5646720000000 1.0
C      1  0.4535830000000  0.5101150000000  0.4461460000000 1.0
C      1  0.4653620000000  0.5335400000000  0.5660140000000 1.0
C      1  0.4597690000000  0.4861690000000  0.4046580000000 1.0
C      1  0.5335690000000  0.5889050000000  0.5372360000000 1.0
C      1  0.3989440000000  0.4391110000000  0.4937270000000 1.0
C      1  0.4441360000000  0.6155410000000  0.5290500000000 1.0
C      1  0.5049820000000  0.4497250000000  0.4677050000000 1.0
C      1  0.5651210000000  0.5249320000000  0.4540950000000 1.0
C      1  0.5661700000000  0.4470460000000  0.5272800000000 1.0
C      1  0.4599140000000  0.5109690000000  0.4181280000000 1.0
C      1  0.5104230000000  0.5630770000000  0.4917940000000 1.0
C      1  0.4182900000000  0.4869170000000  0.5454490000000 1.0
C      1  0.5124030000000  0.5276230000000  0.3811220000000 1.0
C      1  0.4484140000000  0.4195280000000  0.5307060000000 1.0
C      1  0.5717300000000  0.5429040000000  0.5467720000000 1.0
C      1  0.4887190000000  0.5421990000000  0.3851400000000 1.0
C      1  0.4609060000000  0.5340850000000  0.5382280000000 1.0
C      1  0.4066060000000  0.5110410000000  0.5534530000000 1.0
END
