TITL C-627111-6168-1653 -1.52879518964931e-07 125000 -462.274502802125 0 0 76 (C1) n - 1
REM
REM in /home/nfs/bkarasulu/CARBON/AIRSS/Generating-Clusters/LCBOP/Only-C1/SD-CG/FIRE-CG
REM
REM
REM
REM
REM
REM ./C.cell (11c1c37f851c82e70ff6c80c92926a4b)
REM AIRSS Version 0.9.1 bugfix July 2018 build 013d7b7c2542+ Fri, 06 Jul 2018 19:26:36 +0100
REM compiler GCC version 9.2.1 20190827 (Red Hat 9.2.1-1)
REM options -cpp -mtune=generic -march=x86-64 -g -O0 -fpre-include=/usr/include/finclude/math-vector-fortran.h
REM seed 225530095 1143660877 -1039093258 -798332916 887840822 1922131017 -852812584 -2111014469 1977823312 -1659440606 -46645926 2085908085 195877200 -1105882146 -721143083 -135885868 2004142661 189608924 1216650772 2013394013 -238350790 -515196879 234749681 1884128526 1685479989 -153628850 -1290653275 960772461 548229222 -804026632 1194045843 1952933728 -1168904497
REM
CELL 1.54180   50.00000   50.00000   50.00000   90.00000   90.00000   90.00000
LATT -1
SFAC C  
C      1  0.4986780000000  0.4878180000000  0.4258860000000 1.0
C      1  0.5240230000000  0.4824340000000  0.5082900000000 1.0
C      1  0.5671710000000  0.5343510000000  0.5220160000000 1.0
C      1  0.5192250000000  0.5542620000000  0.5488140000000 1.0
C      1  0.5543230000000  0.4343950000000  0.4931520000000 1.0
C      1  0.5183820000000  0.5782350000000  0.4836250000000 1.0
C      1  0.4945520000000  0.5163590000000  0.4206980000000 1.0
C      1  0.4457640000000  0.4470730000000  0.4686940000000 1.0
C      1  0.5273340000000  0.4914410000000  0.5744710000000 1.0
C      1  0.4844800000000  0.4465010000000  0.5539400000000 1.0
C      1  0.5500800000000  0.4493000000000  0.5633190000000 1.0
C      1  0.5050200000000  0.4479460000000  0.4674720000000 1.0
C      1  0.5597690000000  0.5219040000000  0.5448750000000 1.0
C      1  0.4354990000000  0.4989470000000  0.5194360000000 1.0
C      1  0.5277970000000  0.4619940000000  0.5767510000000 1.0
C      1  0.4536740000000  0.4496570000000  0.4972360000000 1.0
C      1  0.4693110000000  0.5301280000000  0.6091370000000 1.0
C      1  0.5322320000000  0.4043100000000  0.5264380000000 1.0
C      1  0.5294740000000  0.5531710000000  0.4397960000000 1.0
C      1  0.5427650000000  0.5002930000000  0.5512380000000 1.0
C      1  0.4668860000000  0.5862000000000  0.4877350000000 1.0
C      1  0.4539170000000  0.4950440000000  0.4189910000000 1.0
C      1  0.4626860000000  0.5691340000000  0.5315120000000 1.0
C      1  0.5560630000000  0.4567290000000  0.5366050000000 1.0
C      1  0.4819660000000  0.5222230000000  0.5863150000000 1.0
C      1  0.4489700000000  0.5716920000000  0.5052280000000 1.0
C      1  0.4410480000000  0.4725130000000  0.5121000000000 1.0
C      1  0.4310170000000  0.5457980000000  0.4503720000000 1.0
C      1  0.4769650000000  0.4334800000000  0.5054190000000 1.0
C      1  0.4942700000000  0.5878390000000  0.4983370000000 1.0
C      1  0.5529920000000  0.5402870000000  0.4488500000000 1.0
C      1  0.4322800000000  0.5484470000000  0.5009610000000 1.0
C      1  0.4538690000000  0.5432270000000  0.5433520000000 1.0
C      1  0.5865310000000  0.4667130000000  0.5006340000000 1.0
C      1  0.5788580000000  0.5034050000000  0.4677550000000 1.0
C      1  0.5418080000000  0.4808080000000  0.5299770000000 1.0
C      1  0.4866620000000  0.4274580000000  0.5326520000000 1.0
C      1  0.5106210000000  0.5384140000000  0.5041470000000 1.0
C      1  0.4561150000000  0.4985560000000  0.4734040000000 1.0
C      1  0.4963860000000  0.4864090000000  0.5058310000000 1.0
C      1  0.4110550000000  0.4785470000000  0.4624530000000 1.0
C      1  0.5321570000000  0.5554730000000  0.4961910000000 1.0
C      1  0.4736770000000  0.4712200000000  0.5469480000000 1.0
C      1  0.5068020000000  0.5072440000000  0.5867350000000 1.0
C      1  0.5032500000000  0.4477710000000  0.5752250000000 1.0
C      1  0.5208550000000  0.5760590000000  0.4550480000000 1.0
C      1  0.4886760000000  0.5832910000000  0.5277480000000 1.0
C      1  0.4299810000000  0.4973770000000  0.4667340000000 1.0
C      1  0.5573460000000  0.5414350000000  0.4964170000000 1.0
C      1  0.5093310000000  0.5337330000000  0.5317320000000 1.0
C      1  0.5227620000000  0.4768450000000  0.4352980000000 1.0
C      1  0.4180890000000  0.4523050000000  0.4637990000000 1.0
C      1  0.5382490000000  0.4115170000000  0.4995360000000 1.0
C      1  0.5522390000000  0.4562120000000  0.4719370000000 1.0
C      1  0.4766400000000  0.5427130000000  0.4630420000000 1.0
C      1  0.4955880000000  0.4273580000000  0.4837960000000 1.0
C      1  0.5073010000000  0.4081820000000  0.5364990000000 1.0
C      1  0.5092010000000  0.5792930000000  0.5465810000000 1.0
C      1  0.5640130000000  0.5278020000000  0.4718230000000 1.0
C      1  0.4654390000000  0.5214550000000  0.4220310000000 1.0
C      1  0.4905200000000  0.5361270000000  0.4848380000000 1.0
C      1  0.4206730000000  0.5465060000000  0.4754030000000 1.0
C      1  0.4573740000000  0.5393690000000  0.4424990000000 1.0
C      1  0.5725870000000  0.4773090000000  0.4773480000000 1.0
C      1  0.5281750000000  0.4601110000000  0.4571460000000 1.0
C      1  0.4897950000000  0.5164610000000  0.5412360000000 1.0
C      1  0.4799040000000  0.4913550000000  0.4836700000000 1.0
C      1  0.4721470000000  0.4740470000000  0.4282090000000 1.0
C      1  0.5706670000000  0.4468620000000  0.5145620000000 1.0
C      1  0.4372910000000  0.5281170000000  0.5223390000000 1.0
C      1  0.5127180000000  0.5375860000000  0.4233000000000 1.0
C      1  0.4627360000000  0.4539180000000  0.4461430000000 1.0
C      1  0.4846080000000  0.4913160000000  0.5311190000000 1.0
C      1  0.5147270000000  0.4065310000000  0.4841550000000 1.0
C      1  0.6020240000000  0.5056790000000  0.4529070000000 1.0
C      1  0.4719410000000  0.5279780000000  0.5600950000000 1.0
END
