TITL C-627111-6168-749 40.8963692854876 125000 -696.640285700614 0 0 114 (C1) n - 1
REM
REM in /home/nfs/bkarasulu/CARBON/AIRSS/Generating-Clusters/LCBOP/Only-C1/SD-CG/FIRE-CG
REM
REM
REM
REM
REM
REM ./C.cell (11c1c37f851c82e70ff6c80c92926a4b)
REM AIRSS Version 0.9.1 bugfix July 2018 build 013d7b7c2542+ Fri, 06 Jul 2018 19:26:36 +0100
REM compiler GCC version 9.2.1 20190827 (Red Hat 9.2.1-1)
REM options -cpp -mtune=generic -march=x86-64 -g -O0 -fpre-include=/usr/include/finclude/math-vector-fortran.h
REM seed -316860019 -623973568 -504494953 564126430 -1538496416 1483389252 -134585422 1650109095 459968674 -1333266902 206829628 1154449381 1043633401 239257984 1378455184 1754424246 1006172894 172185037 2016341793 726772550 -944101891 -482876289 -289853161 -1742426375 -2098433091 1773368684 1530584929 718273976 -200118048 -1728129449 -998959701 831501632 2134749933
REM
CELL 1.54180   50.00000   50.00000   50.00000   90.00000   90.00000   90.00000
LATT -1
SFAC C  
C      1  0.5071820000000  0.4021500000000  0.4970760000000 1.0
C      1  0.5834190000000  0.4566260000000  0.4952270000000 1.0
C      1  0.5098520000000  0.4866060000000  0.4819480000000 1.0
C      1  0.4103340000000  0.4116020000000  0.4503540000000 1.0
C      1  0.3992330000000  0.4573270000000  0.4733130000000 1.0
C      1  0.5598520000000  0.3784750000000  0.5521940000000 1.0
C      1  0.5097670000000  0.5077820000000  0.4620000000000 1.0
C      1  0.4202830000000  0.5681990000000  0.4577050000000 1.0
C      1  0.5241990000000  0.5047380000000  0.4008200000000 1.0
C      1  0.4728440000000  0.4582160000000  0.5540450000000 1.0
C      1  0.4777520000000  0.3885600000000  0.4629040000000 1.0
C      1  0.5830110000000  0.4699980000000  0.5453420000000 1.0
C      1  0.4792610000000  0.4744400000000  0.4046520000000 1.0
C      1  0.5159200000000  0.4723190000000  0.5549390000000 1.0
C      1  0.5518780000000  0.4547000000000  0.4464770000000 1.0
C      1  0.5398530000000  0.4331920000000  0.4601410000000 1.0
C      1  0.5393840000000  0.5135370000000  0.5815840000000 1.0
C      1  0.4112040000000  0.4583360000000  0.5952310000000 1.0
C      1  0.5326860000000  0.5776080000000  0.5393610000000 1.0
C      1  0.5098570000000  0.5272910000000  0.4029660000000 1.0
C      1  0.4778550000000  0.5485020000000  0.4869950000000 1.0
C      1  0.4714760000000  0.5781600000000  0.5684260000000 1.0
C      1  0.5397000000000  0.5631890000000  0.4935080000000 1.0
C      1  0.5093670000000  0.4309380000000  0.4579700000000 1.0
C      1  0.4335080000000  0.5323110000000  0.4274800000000 1.0
C      1  0.5512470000000  0.4859520000000  0.5116120000000 1.0
C      1  0.5512560000000  0.4194690000000  0.4833610000000 1.0
C      1  0.5416940000000  0.4671890000000  0.5653350000000 1.0
C      1  0.4891550000000  0.4802860000000  0.5661350000000 1.0
C      1  0.5019620000000  0.4301670000000  0.4884450000000 1.0
C      1  0.5570020000000  0.5863710000000  0.4985270000000 1.0
C      1  0.4852380000000  0.4498280000000  0.5293030000000 1.0
C      1  0.5796280000000  0.5421660000000  0.5037220000000 1.0
C      1  0.5106020000000  0.5682530000000  0.4595130000000 1.0
C      1  0.4881500000000  0.5089590000000  0.5130380000000 1.0
C      1  0.4736510000000  0.5748780000000  0.5403210000000 1.0
C      1  0.5147830000000  0.5128420000000  0.5261740000000 1.0
C      1  0.5903140000000  0.5189940000000  0.4903700000000 1.0
C      1  0.4293430000000  0.5189280000000  0.5007220000000 1.0
C      1  0.4271770000000  0.5819500000000  0.4815880000000 1.0
C      1  0.5119220000000  0.4619520000000  0.5272620000000 1.0
C      1  0.4671220000000  0.5905200000000  0.5168610000000 1.0
C      1  0.5612720000000  0.4505570000000  0.5497100000000 1.0
C      1  0.5340850000000  0.5231000000000  0.4605120000000 1.0
C      1  0.4597730000000  0.4925990000000  0.4082740000000 1.0
C      1  0.4686240000000  0.4642750000000  0.4867160000000 1.0
C      1  0.5132010000000  0.6090040000000  0.5075390000000 1.0
C      1  0.4939360000000  0.4526500000000  0.4443310000000 1.0
C      1  0.4152870000000  0.4889310000000  0.5359400000000 1.0
C      1  0.4505040000000  0.4486890000000  0.5677730000000 1.0
C      1  0.5580930000000  0.3546330000000  0.5625890000000 1.0
C      1  0.5467720000000  0.4811000000000  0.4374530000000 1.0
C      1  0.4911840000000  0.5621720000000  0.5811550000000 1.0
C      1  0.4958570000000  0.5392980000000  0.4241490000000 1.0
C      1  0.5369560000000  0.5881570000000  0.5867550000000 1.0
C      1  0.4914740000000  0.5727810000000  0.4800170000000 1.0
C      1  0.4284140000000  0.4891620000000  0.5611880000000 1.0
C      1  0.4420390000000  0.5895580000000  0.5029660000000 1.0
C      1  0.4834490000000  0.4875300000000  0.4950930000000 1.0
C      1  0.6310890000000  0.5959860000000  0.4982820000000 1.0
C      1  0.5023960000000  0.5650690000000  0.4331060000000 1.0
C      1  0.5348990000000  0.3977990000000  0.4934490000000 1.0
C      1  0.5612430000000  0.4025630000000  0.5412510000000 1.0
C      1  0.5999300000000  0.5002940000000  0.5101620000000 1.0
C      1  0.4530020000000  0.3828440000000  0.4513690000000 1.0
C      1  0.4007550000000  0.4345350000000  0.4597640000000 1.0
C      1  0.5558540000000  0.5049990000000  0.4529530000000 1.0
C      1  0.4383470000000  0.5258220000000  0.4748000000000 1.0
C      1  0.4206310000000  0.5786630000000  0.4304800000000 1.0
C      1  0.5012870000000  0.4670330000000  0.4209430000000 1.0
C      1  0.4807700000000  0.5216860000000  0.4441570000000 1.0
C      1  0.4803930000000  0.3917580000000  0.4916680000000 1.0
C      1  0.5679830000000  0.4332390000000  0.5023840000000 1.0
C      1  0.4374000000000  0.5348570000000  0.5227440000000 1.0
C      1  0.4146500000000  0.6040010000000  0.4228260000000 1.0
C      1  0.4757120000000  0.4395140000000  0.5029110000000 1.0
C      1  0.4785940000000  0.5361370000000  0.5119830000000 1.0
C      1  0.5383220000000  0.6000900000000  0.5191520000000 1.0
C      1  0.5168760000000  0.5266440000000  0.5718150000000 1.0
C      1  0.5222770000000  0.5766500000000  0.5670060000000 1.0
C      1  0.4559120000000  0.5140640000000  0.4258040000000 1.0
C      1  0.4913560000000  0.5320090000000  0.5848470000000 1.0
C      1  0.4658960000000  0.5316610000000  0.4683260000000 1.0
C      1  0.4370470000000  0.4071730000000  0.5139050000000 1.0
C      1  0.6077220000000  0.5844970000000  0.4992960000000 1.0
C      1  0.5817530000000  0.4893160000000  0.5664670000000 1.0
C      1  0.4977850000000  0.4038630000000  0.4486220000000 1.0
C      1  0.5267600000000  0.4726560000000  0.5034940000000 1.0
C      1  0.4900930000000  0.5941890000000  0.4992600000000 1.0
C      1  0.5882380000000  0.4731590000000  0.4716140000000 1.0
C      1  0.5376660000000  0.5548210000000  0.5215790000000 1.0
C      1  0.4616820000000  0.4118930000000  0.5036130000000 1.0
C      1  0.4878090000000  0.5504830000000  0.5346180000000 1.0
C      1  0.5625120000000  0.4286380000000  0.5311870000000 1.0
C      1  0.5811820000000  0.4780630000000  0.5168210000000 1.0
C      1  0.4534980000000  0.5939920000000  0.5811590000000 1.0
C      1  0.5574210000000  0.5345100000000  0.5217180000000 1.0
C      1  0.5801370000000  0.5016550000000  0.4682530000000 1.0
C      1  0.4236490000000  0.5389950000000  0.4547500000000 1.0
C      1  0.4477260000000  0.5102750000000  0.5655820000000 1.0
C      1  0.4290330000000  0.4649310000000  0.5758150000000 1.0
C      1  0.4285420000000  0.3924910000000  0.4470690000000 1.0
C      1  0.5550480000000  0.4907670000000  0.5771540000000 1.0
C      1  0.4284850000000  0.5568870000000  0.4131100000000 1.0
C      1  0.5092730000000  0.5332060000000  0.5452150000000 1.0
C      1  0.5829270000000  0.5719280000000  0.5003930000000 1.0
C      1  0.4042520000000  0.4777550000000  0.4894970000000 1.0
C      1  0.4699240000000  0.4596730000000  0.4585230000000 1.0
C      1  0.5255920000000  0.4825430000000  0.4180850000000 1.0
C      1  0.5320770000000  0.5511610000000  0.4691170000000 1.0
C      1  0.4420750000000  0.5326720000000  0.5492040000000 1.0
C      1  0.4752350000000  0.5067000000000  0.5758150000000 1.0
C      1  0.4154910000000  0.4950440000000  0.5082500000000 1.0
C      1  0.5429470000000  0.5104440000000  0.5215220000000 1.0
END
