TITL C-627112-676-2084 7.48758209896788e-06 125000 -723.501011316299 0 0 119 (C1) n - 1
REM
REM in /home/nfs/bkarasulu/CARBON/AIRSS/Generating-Clusters/LCBOP/Only-C1/SD-CG/FIRE-CG
REM
REM
REM
REM
REM
REM ./C.cell (11c1c37f851c82e70ff6c80c92926a4b)
REM AIRSS Version 0.9.1 bugfix July 2018 build 013d7b7c2542+ Fri, 06 Jul 2018 19:26:36 +0100
REM compiler GCC version 9.2.1 20190827 (Red Hat 9.2.1-1)
REM options -cpp -mtune=generic -march=x86-64 -g -O0 -fpre-include=/usr/include/finclude/math-vector-fortran.h
REM seed -38779631 1963867963 -1898330530 1216783105 -906584599 1795941796 720788571 -1585913968 -1378491285 697739144 581390495 1584960895 -595445995 1617783265 -1910157330 -186415541 -493345597 -1348117320 -821350706 1539287398 289101949 733560459 -817864474 1116717302 -286960038 1848126075 772271794 1167824672 835162571 -1171966185 627746351 1631986435 843971365
REM
CELL 1.54180   50.00000   50.00000   50.00000   90.00000   90.00000   90.00000
LATT -1
SFAC C  
C      1  0.4572500000000  0.5416920000000  0.5938110000000 1.0
C      1  0.5428930000000  0.4477210000000  0.5808850000000 1.0
C      1  0.4526700000000  0.6033580000000  0.5107960000000 1.0
C      1  0.5256600000000  0.5522380000000  0.3932220000000 1.0
C      1  0.4639430000000  0.4440610000000  0.4957950000000 1.0
C      1  0.5077680000000  0.4463650000000  0.4735630000000 1.0
C      1  0.5210200000000  0.4668840000000  0.5295760000000 1.0
C      1  0.4370630000000  0.5204210000000  0.5885980000000 1.0
C      1  0.4808900000000  0.4443970000000  0.4112550000000 1.0
C      1  0.4443860000000  0.4845140000000  0.3633700000000 1.0
C      1  0.5679130000000  0.5644430000000  0.5293480000000 1.0
C      1  0.4811110000000  0.5475530000000  0.5091520000000 1.0
C      1  0.4536560000000  0.5563950000000  0.4527690000000 1.0
C      1  0.4828820000000  0.5384630000000  0.6060810000000 1.0
C      1  0.4448880000000  0.5371160000000  0.5364750000000 1.0
C      1  0.5830920000000  0.4279220000000  0.5222250000000 1.0
C      1  0.4528290000000  0.4705440000000  0.4391890000000 1.0
C      1  0.4590530000000  0.4439090000000  0.4310130000000 1.0
C      1  0.4646200000000  0.4766960000000  0.3785690000000 1.0
C      1  0.5258080000000  0.4895810000000  0.4215720000000 1.0
C      1  0.4624690000000  0.5055830000000  0.4945000000000 1.0
C      1  0.4303320000000  0.4842980000000  0.4304370000000 1.0
C      1  0.4095150000000  0.4988660000000  0.4229420000000 1.0
C      1  0.5311450000000  0.5393180000000  0.4426150000000 1.0
C      1  0.6054170000000  0.5409930000000  0.5463150000000 1.0
C      1  0.6089240000000  0.5477510000000  0.5737110000000 1.0
C      1  0.5312430000000  0.5358530000000  0.4944260000000 1.0
C      1  0.5692640000000  0.4761280000000  0.5326950000000 1.0
C      1  0.4000320000000  0.5189760000000  0.5256950000000 1.0
C      1  0.4229070000000  0.4930830000000  0.3504200000000 1.0
C      1  0.5768990000000  0.4359420000000  0.4734680000000 1.0
C      1  0.5138560000000  0.5941070000000  0.5086700000000 1.0
C      1  0.5475750000000  0.4279500000000  0.5605950000000 1.0
C      1  0.4317560000000  0.4467480000000  0.5647960000000 1.0
C      1  0.4638660000000  0.5851970000000  0.5593750000000 1.0
C      1  0.5175470000000  0.5325500000000  0.3769690000000 1.0
C      1  0.4542540000000  0.5664480000000  0.5789750000000 1.0
C      1  0.6189250000000  0.4937180000000  0.4303160000000 1.0
C      1  0.5309100000000  0.5547540000000  0.4193420000000 1.0
C      1  0.5198040000000  0.5722940000000  0.5254640000000 1.0
C      1  0.4756200000000  0.5085660000000  0.4516290000000 1.0
C      1  0.5577990000000  0.5206710000000  0.5656630000000 1.0
C      1  0.5858330000000  0.5485580000000  0.5903470000000 1.0
C      1  0.5047560000000  0.4264760000000  0.4530000000000 1.0
C      1  0.5426650000000  0.4839930000000  0.5360210000000 1.0
C      1  0.4635550000000  0.4035290000000  0.4589390000000 1.0
C      1  0.4599340000000  0.4300210000000  0.5217380000000 1.0
C      1  0.4915640000000  0.4031270000000  0.4640500000000 1.0
C      1  0.3929880000000  0.5003090000000  0.5075810000000 1.0
C      1  0.5483070000000  0.4724640000000  0.4275400000000 1.0
C      1  0.4455640000000  0.4855110000000  0.5042510000000 1.0
C      1  0.5869530000000  0.5432130000000  0.5248240000000 1.0
C      1  0.5722440000000  0.4239050000000  0.5468050000000 1.0
C      1  0.5131710000000  0.5124610000000  0.5604850000000 1.0
C      1  0.5600240000000  0.5374640000000  0.5881740000000 1.0
C      1  0.5074370000000  0.4871110000000  0.3997290000000 1.0
C      1  0.5399920000000  0.5296920000000  0.5204220000000 1.0
C      1  0.4662630000000  0.5214800000000  0.5485240000000 1.0
C      1  0.5253970000000  0.4397960000000  0.5201600000000 1.0
C      1  0.4395400000000  0.4361180000000  0.5410800000000 1.0
C      1  0.4573740000000  0.4956080000000  0.5544250000000 1.0
C      1  0.4178280000000  0.5312060000000  0.5439380000000 1.0
C      1  0.4487210000000  0.4277960000000  0.4538330000000 1.0
C      1  0.4147450000000  0.5296230000000  0.5724350000000 1.0
C      1  0.4444750000000  0.4932330000000  0.5799290000000 1.0
C      1  0.5440980000000  0.5754390000000  0.5403580000000 1.0
C      1  0.4660280000000  0.5332950000000  0.4474630000000 1.0
C      1  0.5152960000000  0.4928410000000  0.5816140000000 1.0
C      1  0.4887220000000  0.4470550000000  0.5608730000000 1.0
C      1  0.4845330000000  0.4696110000000  0.3970710000000 1.0
C      1  0.5386540000000  0.5907000000000  0.5636440000000 1.0
C      1  0.5169960000000  0.4293530000000  0.4956870000000 1.0
C      1  0.4006370000000  0.4796120000000  0.4917350000000 1.0
C      1  0.4974010000000  0.4680410000000  0.5455730000000 1.0
C      1  0.5034640000000  0.4274900000000  0.4084020000000 1.0
C      1  0.5096870000000  0.5416590000000  0.6082110000000 1.0
C      1  0.3896760000000  0.5140060000000  0.4154160000000 1.0
C      1  0.5488560000000  0.4438910000000  0.4284690000000 1.0
C      1  0.5846400000000  0.5225150000000  0.5042670000000 1.0
C      1  0.5376060000000  0.5488860000000  0.4694040000000 1.0
C      1  0.5677150000000  0.4853820000000  0.4447320000000 1.0
C      1  0.4877230000000  0.5988810000000  0.5667400000000 1.0
C      1  0.5758610000000  0.4974330000000  0.4918000000000 1.0
C      1  0.5827130000000  0.4454620000000  0.4994690000000 1.0
C      1  0.4332980000000  0.4672660000000  0.5826940000000 1.0
C      1  0.5277900000000  0.5002680000000  0.4684200000000 1.0
C      1  0.4436130000000  0.5772770000000  0.4661130000000 1.0
C      1  0.5362470000000  0.5424860000000  0.6030140000000 1.0
C      1  0.5300020000000  0.4293190000000  0.4133020000000 1.0
C      1  0.5801890000000  0.4732130000000  0.5068840000000 1.0
C      1  0.5142370000000  0.5996830000000  0.5714670000000 1.0
C      1  0.4560430000000  0.5569380000000  0.5202720000000 1.0
C      1  0.5248740000000  0.4225890000000  0.5439680000000 1.0
C      1  0.4724290000000  0.4808480000000  0.4577170000000 1.0
C      1  0.4968990000000  0.4211410000000  0.5518720000000 1.0
C      1  0.5939550000000  0.4899650000000  0.4367500000000 1.0
C      1  0.4898530000000  0.3923840000000  0.5131080000000 1.0
C      1  0.4734640000000  0.6222120000000  0.5085360000000 1.0
C      1  0.5117680000000  0.5152360000000  0.4872270000000 1.0
C      1  0.5035600000000  0.4028040000000  0.4908860000000 1.0
C      1  0.4552910000000  0.5835090000000  0.5313130000000 1.0
C      1  0.4793160000000  0.4107500000000  0.5316330000000 1.0
C      1  0.4013350000000  0.5017450000000  0.3386210000000 1.0
C      1  0.5570610000000  0.4942970000000  0.4701730000000 1.0
C      1  0.4409680000000  0.5945340000000  0.4864660000000 1.0
C      1  0.5009100000000  0.5513820000000  0.5303720000000 1.0
C      1  0.5389340000000  0.5122590000000  0.5444350000000 1.0
C      1  0.5295530000000  0.4703890000000  0.5878660000000 1.0
C      1  0.6337020000000  0.5533150000000  0.5837780000000 1.0
C      1  0.5243760000000  0.5108130000000  0.4411300000000 1.0
C      1  0.5107480000000  0.5068010000000  0.3796170000000 1.0
C      1  0.4994550000000  0.6163200000000  0.5050740000000 1.0
C      1  0.4937140000000  0.5302250000000  0.5498960000000 1.0
C      1  0.4481390000000  0.4815880000000  0.5319550000000 1.0
C      1  0.4267250000000  0.4691260000000  0.4885010000000 1.0
C      1  0.4396000000000  0.4443190000000  0.4782100000000 1.0
C      1  0.4833530000000  0.4610410000000  0.4785410000000 1.0
C      1  0.4849060000000  0.5225160000000  0.4950870000000 1.0
C      1  0.5646000000000  0.4331280000000  0.4496640000000 1.0
END
