TITL C-627109-622-503 0.00109220977967631 125000 -668.416568598303 0 0 111 (C1) n - 1
REM
REM in /home/nfs/bkarasulu/CARBON/AIRSS/Generating-Clusters/LCBOP/Only-C1/SD-CG/FIRE-CG
REM
REM
REM
REM
REM
REM ./C.cell (11c1c37f851c82e70ff6c80c92926a4b)
REM AIRSS Version 0.9.1 bugfix July 2018 build 013d7b7c2542+ Fri, 06 Jul 2018 19:26:36 +0100
REM compiler GCC version 9.2.1 20190827 (Red Hat 9.2.1-1)
REM options -cpp -mtune=generic -march=x86-64 -g -O0 -fpre-include=/usr/include/finclude/math-vector-fortran.h
REM seed -1230241080 664116415 1800324897 711073320 -1033476429 -1148205183 -1418992918 -158460686 -946403539 1231428669 -1666815300 -1927918560 2468966 -1243441341 423923021 1217842059 1843069823 1431611822 297106781 -890465353 -2118656774 71948982 939743758 -302977705 292509575 -11692382 1745249126 -1326522662 -1396248356 -433075222 1262601618 1767096540 1083254475
REM
CELL 1.54180   50.00000   50.00000   50.00000   90.00000   90.00000   90.00000
LATT -1
SFAC C  
C      1  0.5895720000000  0.5416340000000  0.4693290000000 1.0
C      1  0.5103040000000  0.5392710000000  0.5128220000000 1.0
C      1  0.5789520000000  0.4387480000000  0.5042040000000 1.0
C      1  0.4783960000000  0.5297190000000  0.4841000000000 1.0
C      1  0.5112040000000  0.6072180000000  0.4981490000000 1.0
C      1  0.5282390000000  0.5030280000000  0.4864450000000 1.0
C      1  0.4072790000000  0.5475430000000  0.4744950000000 1.0
C      1  0.5503840000000  0.4228260000000  0.4316460000000 1.0
C      1  0.4473530000000  0.5636830000000  0.5290130000000 1.0
C      1  0.5248670000000  0.4095030000000  0.4370060000000 1.0
C      1  0.4538930000000  0.5019250000000  0.5556300000000 1.0
C      1  0.4511830000000  0.5284790000000  0.4920780000000 1.0
C      1  0.5356390000000  0.5497430000000  0.5061480000000 1.0
C      1  0.4185880000000  0.6458520000000  0.4826390000000 1.0
C      1  0.5071970000000  0.5817350000000  0.5450870000000 1.0
C      1  0.5748030000000  0.4883430000000  0.5750010000000 1.0
C      1  0.5524090000000  0.5545680000000  0.5294100000000 1.0
C      1  0.4266470000000  0.5939760000000  0.4952810000000 1.0
C      1  0.5074920000000  0.5236940000000  0.4446790000000 1.0
C      1  0.5101110000000  0.3989700000000  0.4825400000000 1.0
C      1  0.5307990000000  0.5619780000000  0.5494830000000 1.0
C      1  0.5411390000000  0.5022320000000  0.5395330000000 1.0
C      1  0.3884290000000  0.4819740000000  0.4771010000000 1.0
C      1  0.3860380000000  0.4122850000000  0.4090440000000 1.0
C      1  0.4984910000000  0.5993740000000  0.5225730000000 1.0
C      1  0.5359540000000  0.4786620000000  0.4733300000000 1.0
C      1  0.5356220000000  0.5336420000000  0.4406540000000 1.0
C      1  0.4083150000000  0.4165150000000  0.4219060000000 1.0
C      1  0.5854460000000  0.4651060000000  0.5160980000000 1.0
C      1  0.5247270000000  0.4589240000000  0.4136210000000 1.0
C      1  0.4450870000000  0.5519430000000  0.5772060000000 1.0
C      1  0.5634600000000  0.4151180000000  0.4637980000000 1.0
C      1  0.5343680000000  0.4539770000000  0.5431560000000 1.0
C      1  0.5538870000000  0.4951610000000  0.4208190000000 1.0
C      1  0.3976400000000  0.4951940000000  0.5636030000000 1.0
C      1  0.5792660000000  0.5439890000000  0.5203260000000 1.0
C      1  0.5015290000000  0.4498880000000  0.4281890000000 1.0
C      1  0.4683930000000  0.5371140000000  0.5872270000000 1.0
C      1  0.5592130000000  0.5192780000000  0.4353240000000 1.0
C      1  0.4771240000000  0.4126110000000  0.4489340000000 1.0
C      1  0.4172310000000  0.4765060000000  0.5724300000000 1.0
C      1  0.5460210000000  0.5010790000000  0.5111530000000 1.0
C      1  0.4330420000000  0.4538070000000  0.4881060000000 1.0
C      1  0.4897220000000  0.5518170000000  0.4983870000000 1.0
C      1  0.5004050000000  0.5149710000000  0.5269120000000 1.0
C      1  0.4306900000000  0.4211920000000  0.4352970000000 1.0
C      1  0.5387270000000  0.6095440000000  0.4932140000000 1.0
C      1  0.4887130000000  0.4654290000000  0.4977700000000 1.0
C      1  0.5995740000000  0.4979600000000  0.4489650000000 1.0
C      1  0.5813980000000  0.4328210000000  0.4760650000000 1.0
C      1  0.4107110000000  0.5739550000000  0.4833210000000 1.0
C      1  0.5634290000000  0.4191440000000  0.5186680000000 1.0
C      1  0.5034380000000  0.5166340000000  0.4740880000000 1.0
C      1  0.4218960000000  0.6207650000000  0.4888730000000 1.0
C      1  0.5514720000000  0.5893090000000  0.4806600000000 1.0
C      1  0.4995520000000  0.4223740000000  0.4339580000000 1.0
C      1  0.5320450000000  0.4004960000000  0.4645400000000 1.0
C      1  0.4847590000000  0.3957940000000  0.4704370000000 1.0
C      1  0.5961910000000  0.4500590000000  0.4594610000000 1.0
C      1  0.4080180000000  0.4644130000000  0.4812170000000 1.0
C      1  0.4753700000000  0.5153630000000  0.5694010000000 1.0
C      1  0.5246170000000  0.4254880000000  0.6448240000000 1.0
C      1  0.4530440000000  0.4276200000000  0.4505510000000 1.0
C      1  0.4308360000000  0.5320540000000  0.4733260000000 1.0
C      1  0.5836940000000  0.5215250000000  0.4503080000000 1.0
C      1  0.4446690000000  0.5365060000000  0.5194750000000 1.0
C      1  0.5127660000000  0.4135120000000  0.5065770000000 1.0
C      1  0.4359580000000  0.5176380000000  0.5387210000000 1.0
C      1  0.3717380000000  0.4951430000000  0.5718500000000 1.0
C      1  0.4394030000000  0.4492070000000  0.5151730000000 1.0
C      1  0.5435090000000  0.5636060000000  0.4830420000000 1.0
C      1  0.5320870000000  0.4467260000000  0.5685930000000 1.0
C      1  0.5268810000000  0.4322820000000  0.6193040000000 1.0
C      1  0.5947480000000  0.4729440000000  0.5655570000000 1.0
C      1  0.5892190000000  0.5522210000000  0.4943060000000 1.0
C      1  0.4474370000000  0.5874010000000  0.5135560000000 1.0
C      1  0.4909480000000  0.4720750000000  0.4449700000000 1.0
C      1  0.4908080000000  0.4900330000000  0.5142410000000 1.0
C      1  0.4562450000000  0.5683320000000  0.5557410000000 1.0
C      1  0.5413430000000  0.4586280000000  0.4905020000000 1.0
C      1  0.4955670000000  0.6038610000000  0.4744850000000 1.0
C      1  0.4881130000000  0.5591070000000  0.5876950000000 1.0
C      1  0.5037700000000  0.4416790000000  0.5080990000000 1.0
C      1  0.3835790000000  0.5326540000000  0.4727890000000 1.0
C      1  0.5000630000000  0.5193700000000  0.5553750000000 1.0
C      1  0.5261970000000  0.4879690000000  0.4153980000000 1.0
C      1  0.4532940000000  0.4499210000000  0.4684110000000 1.0
C      1  0.4699800000000  0.6034520000000  0.5199690000000 1.0
C      1  0.5291300000000  0.4540670000000  0.5158290000000 1.0
C      1  0.5292330000000  0.4391660000000  0.5938250000000 1.0
C      1  0.5205350000000  0.5382660000000  0.5636320000000 1.0
C      1  0.5750210000000  0.4926190000000  0.5110430000000 1.0
C      1  0.5382320000000  0.4086510000000  0.5198330000000 1.0
C      1  0.3781370000000  0.5064230000000  0.4741060000000 1.0
C      1  0.5223920000000  0.4188070000000  0.6699250000000 1.0
C      1  0.5041020000000  0.4962920000000  0.4324550000000 1.0
C      1  0.5912670000000  0.4716750000000  0.4423530000000 1.0
C      1  0.5690750000000  0.4702980000000  0.4245330000000 1.0
C      1  0.4430000000000  0.4756170000000  0.5600380000000 1.0
C      1  0.5531310000000  0.4992150000000  0.5634820000000 1.0
C      1  0.4084400000000  0.5138940000000  0.5450910000000 1.0
C      1  0.4463590000000  0.4561010000000  0.5400480000000 1.0
C      1  0.4847330000000  0.5753560000000  0.5632460000000 1.0
C      1  0.4778720000000  0.4650590000000  0.4704040000000 1.0
C      1  0.4885480000000  0.5446110000000  0.4356220000000 1.0
C      1  0.4859920000000  0.5899220000000  0.4538450000000 1.0
C      1  0.5996290000000  0.4633860000000  0.5408630000000 1.0
C      1  0.4569220000000  0.5762430000000  0.4181400000000 1.0
C      1  0.5877260000000  0.5162590000000  0.5228390000000 1.0
C      1  0.5510760000000  0.4479460000000  0.4197840000000 1.0
C      1  0.4770870000000  0.5703250000000  0.4356780000000 1.0
END
