TITL C-627108-131-199 0.96836750120191 125000 -796.316016241638 0 0 130 (C1) n - 1
REM
REM in /home/nfs/bkarasulu/CARBON/AIRSS/Generating-Clusters/LCBOP/Only-C1/SD-CG/FIRE-CG
REM
REM
REM
REM
REM
REM ./C.cell (11c1c37f851c82e70ff6c80c92926a4b)
REM AIRSS Version 0.9.1 bugfix July 2018 build 013d7b7c2542+ Fri, 06 Jul 2018 19:26:36 +0100
REM compiler GCC version 9.2.1 20190827 (Red Hat 9.2.1-1)
REM options -cpp -mtune=generic -march=x86-64 -g -O0 -fpre-include=/usr/include/finclude/math-vector-fortran.h
REM seed -1204839949 -483958747 57579622 710754056 -1423823131 -651151698 2029863739 787021338 830802221 -1295624680 -1470617755 342864138 -252539206 600762884 -128491886 1140043456 -1451869631 975698638 -186812553 1629666905 -1522314874 389597657 -808945705 1724064924 1075289803 548005060 -518002033 1135089187 292984106 -1072885398 -7066730 -1079041394 -1851074730
REM
CELL 1.54180   50.00000   50.00000   50.00000   90.00000   90.00000   90.00000
LATT -1
SFAC C  
C      1  0.4388350000000  0.4427040000000  0.5541990000000 1.0
C      1  0.5673060000000  0.5317030000000  0.3646880000000 1.0
C      1  0.5349980000000  0.5119170000000  0.4271610000000 1.0
C      1  0.4841550000000  0.4114040000000  0.4523830000000 1.0
C      1  0.4901900000000  0.3721150000000  0.5439800000000 1.0
C      1  0.4860610000000  0.5774040000000  0.5367200000000 1.0
C      1  0.5894720000000  0.5824180000000  0.5252400000000 1.0
C      1  0.5507650000000  0.4058680000000  0.4883210000000 1.0
C      1  0.4914500000000  0.5205260000000  0.5035180000000 1.0
C      1  0.4202730000000  0.4449380000000  0.4655480000000 1.0
C      1  0.5116930000000  0.4799020000000  0.5612120000000 1.0
C      1  0.5035650000000  0.5423800000000  0.4897430000000 1.0
C      1  0.4731380000000  0.5805740000000  0.4352720000000 1.0
C      1  0.4565080000000  0.6170990000000  0.4059620000000 1.0
C      1  0.5105230000000  0.5297400000000  0.5880930000000 1.0
C      1  0.4744950000000  0.6066170000000  0.4234010000000 1.0
C      1  0.4344260000000  0.4335850000000  0.5265290000000 1.0
C      1  0.5111100000000  0.6009200000000  0.4508140000000 1.0
C      1  0.6190280000000  0.5349160000000  0.4766230000000 1.0
C      1  0.5306860000000  0.4189110000000  0.5615660000000 1.0
C      1  0.4983870000000  0.6199450000000  0.4332670000000 1.0
C      1  0.5248780000000  0.6296990000000  0.5046770000000 1.0
C      1  0.4641670000000  0.4858770000000  0.4148160000000 1.0
C      1  0.5575820000000  0.4312670000000  0.4755540000000 1.0
C      1  0.5771250000000  0.4853070000000  0.4377160000000 1.0
C      1  0.5646620000000  0.5422290000000  0.4816290000000 1.0
C      1  0.6046750000000  0.4810420000000  0.5436530000000 1.0
C      1  0.5636400000000  0.5162650000000  0.6044720000000 1.0
C      1  0.4920290000000  0.5297500000000  0.4441410000000 1.0
C      1  0.5544750000000  0.4329820000000  0.5683350000000 1.0
C      1  0.4359910000000  0.5610070000000  0.4584940000000 1.0
C      1  0.5396630000000  0.5917150000000  0.5270710000000 1.0
C      1  0.3786760000000  0.4862530000000  0.4745540000000 1.0
C      1  0.5729570000000  0.4415460000000  0.5467340000000 1.0
C      1  0.4970240000000  0.4802990000000  0.5361100000000 1.0
C      1  0.5379460000000  0.4909270000000  0.5553340000000 1.0
C      1  0.5321680000000  0.4022780000000  0.5377990000000 1.0
C      1  0.5002040000000  0.4544230000000  0.4006180000000 1.0
C      1  0.5061140000000  0.4259870000000  0.5743710000000 1.0
C      1  0.5151620000000  0.5048150000000  0.6013870000000 1.0
C      1  0.5093340000000  0.5955990000000  0.5339920000000 1.0
C      1  0.5440920000000  0.6089620000000  0.5031600000000 1.0
C      1  0.4652690000000  0.5146500000000  0.4958180000000 1.0
C      1  0.5627470000000  0.5748470000000  0.5311840000000 1.0
C      1  0.5491260000000  0.5222430000000  0.3807850000000 1.0
C      1  0.3676180000000  0.3623810000000  0.5324140000000 1.0
C      1  0.4675420000000  0.5783800000000  0.5148490000000 1.0
C      1  0.4818090000000  0.4651550000000  0.5944470000000 1.0
C      1  0.5595610000000  0.5088660000000  0.4409530000000 1.0
C      1  0.6105280000000  0.5726900000000  0.5115750000000 1.0
C      1  0.4336630000000  0.5195920000000  0.3983460000000 1.0
C      1  0.5059810000000  0.5003730000000  0.3908290000000 1.0
C      1  0.5096210000000  0.4670190000000  0.4708330000000 1.0
C      1  0.4419270000000  0.5190360000000  0.4838260000000 1.0
C      1  0.4988980000000  0.5500570000000  0.4629260000000 1.0
C      1  0.4447910000000  0.4750990000000  0.5096480000000 1.0
C      1  0.4276810000000  0.5366010000000  0.4696190000000 1.0
C      1  0.5621140000000  0.5698700000000  0.4762730000000 1.0
C      1  0.4546850000000  0.5130720000000  0.4147410000000 1.0
C      1  0.4667520000000  0.5331710000000  0.4309070000000 1.0
C      1  0.4110100000000  0.4267420000000  0.5116310000000 1.0
C      1  0.5565880000000  0.5955410000000  0.4819160000000 1.0
C      1  0.4805540000000  0.4421620000000  0.5109140000000 1.0
C      1  0.5307600000000  0.5118930000000  0.3988490000000 1.0
C      1  0.4425970000000  0.5181580000000  0.5649710000000 1.0
C      1  0.5526800000000  0.4381570000000  0.4484090000000 1.0
C      1  0.4376560000000  0.5830740000000  0.4761830000000 1.0
C      1  0.3833130000000  0.5083740000000  0.5157420000000 1.0
C      1  0.3813470000000  0.3833350000000  0.5251980000000 1.0
C      1  0.5294800000000  0.4282010000000  0.4348990000000 1.0
C      1  0.5104480000000  0.4120290000000  0.4478990000000 1.0
C      1  0.5482680000000  0.4750900000000  0.4993100000000 1.0
C      1  0.4770630000000  0.5596810000000  0.5571940000000 1.0
C      1  0.5329490000000  0.5057750000000  0.5312800000000 1.0
C      1  0.5014080000000  0.4597260000000  0.5168950000000 1.0
C      1  0.5486200000000  0.3816670000000  0.4760970000000 1.0
C      1  0.4518730000000  0.5943170000000  0.4975900000000 1.0
C      1  0.5045080000000  0.4841470000000  0.4516520000000 1.0
C      1  0.4681610000000  0.3788530000000  0.5574930000000 1.0
C      1  0.5501870000000  0.4098080000000  0.5170140000000 1.0
C      1  0.5105440000000  0.5090350000000  0.4413640000000 1.0
C      1  0.5202650000000  0.4663410000000  0.4964600000000 1.0
C      1  0.6021070000000  0.5188790000000  0.4612110000000 1.0
C      1  0.6209770000000  0.5548190000000  0.4945200000000 1.0
C      1  0.5661170000000  0.4339900000000  0.5208410000000 1.0
C      1  0.4770140000000  0.6320510000000  0.5157330000000 1.0
C      1  0.5199520000000  0.4397510000000  0.4110550000000 1.0
C      1  0.4547310000000  0.5590950000000  0.4368170000000 1.0
C      1  0.4604870000000  0.5401300000000  0.5660780000000 1.0
C      1  0.5038590000000  0.4818340000000  0.5881970000000 1.0
C      1  0.5047240000000  0.5062370000000  0.5241640000000 1.0
C      1  0.4883590000000  0.4799430000000  0.3999960000000 1.0
C      1  0.5621040000000  0.5301010000000  0.5080320000000 1.0
C      1  0.5069920000000  0.6449830000000  0.4274760000000 1.0
C      1  0.4579650000000  0.4798950000000  0.5985800000000 1.0
C      1  0.5640840000000  0.4509950000000  0.4971120000000 1.0
C      1  0.4269750000000  0.5139840000000  0.5402300000000 1.0
C      1  0.3954290000000  0.4045950000000  0.5180240000000 1.0
C      1  0.5027320000000  0.6223600000000  0.5214640000000 1.0
C      1  0.4429900000000  0.4455720000000  0.4485560000000 1.0
C      1  0.5818910000000  0.4687750000000  0.5515350000000 1.0
C      1  0.4570240000000  0.4276970000000  0.5706370000000 1.0
C      1  0.5516700000000  0.5025950000000  0.5099780000000 1.0
C      1  0.5734830000000  0.5260130000000  0.4601680000000 1.0
C      1  0.4021790000000  0.5229530000000  0.5306430000000 1.0
C      1  0.4504200000000  0.4666680000000  0.4309040000000 1.0
C      1  0.4337470000000  0.4869450000000  0.5325670000000 1.0
C      1  0.4359450000000  0.4710780000000  0.5570840000000 1.0
C      1  0.5198330000000  0.5582670000000  0.5042170000000 1.0
C      1  0.5700750000000  0.5295330000000  0.5815700000000 1.0
C      1  0.3825640000000  0.4789530000000  0.5190140000000 1.0
C      1  0.4433790000000  0.4909510000000  0.5773100000000 1.0
C      1  0.5408730000000  0.5045310000000  0.6138310000000 1.0
C      1  0.5139900000000  0.3810580000000  0.5358420000000 1.0
C      1  0.5262210000000  0.5427420000000  0.5702080000000 1.0
C      1  0.6031740000000  0.4938580000000  0.4470970000000 1.0
C      1  0.4559240000000  0.6218540000000  0.5022730000000 1.0
C      1  0.3770700000000  0.5109170000000  0.4874200000000 1.0
C      1  0.4606730000000  0.4237600000000  0.4506720000000 1.0
C      1  0.5598780000000  0.5463960000000  0.5337420000000 1.0
C      1  0.4814590000000  0.4389650000000  0.5816240000000 1.0
C      1  0.5677200000000  0.4591010000000  0.4370570000000 1.0
C      1  0.4967030000000  0.5763180000000  0.4527550000000 1.0
C      1  0.5530460000000  0.5393360000000  0.5609400000000 1.0
C      1  0.5537910000000  0.4564840000000  0.5851430000000 1.0
C      1  0.4043060000000  0.4440480000000  0.4891570000000 1.0
C      1  0.4557740000000  0.3995680000000  0.5689730000000 1.0
C      1  0.3857570000000  0.4650150000000  0.4933250000000 1.0
C      1  0.4534140000000  0.4480650000000  0.5105150000000 1.0
C      1  0.5601970000000  0.4793210000000  0.5679260000000 1.0
END
