TITL C-627110-360-1891 -5.80969910950459e-07 125000 -806.437269370324 0 0 130 (C1) n - 1
REM
REM in /home/nfs/bkarasulu/CARBON/AIRSS/Generating-Clusters/LCBOP/Only-C1/SD-CG/FIRE-CG
REM
REM
REM
REM
REM
REM ./C.cell (11c1c37f851c82e70ff6c80c92926a4b)
REM AIRSS Version 0.9.1 bugfix July 2018 build 013d7b7c2542+ Fri, 06 Jul 2018 19:26:36 +0100
REM compiler GCC version 9.2.1 20190827 (Red Hat 9.2.1-1)
REM options -cpp -mtune=generic -march=x86-64 -g -O0 -fpre-include=/usr/include/finclude/math-vector-fortran.h
REM seed -1633449354 1377171187 -1242314042 -449688591 -220882832 1238961791 1260712133 143753284 -1126962187 -442567954 877871370 1222573525 -1717669425 1244397913 629884580 -683949424 1745349119 -1721985874 1449342070 -1471537150 -1312454202 -1367144396 -1332426174 1653707241 211246895 529869772 -1526989133 2071609251 421951867 -1637202426 -1119114187 -1930139696 990511319
REM
CELL 1.54180   50.00000   50.00000   50.00000   90.00000   90.00000   90.00000
LATT -1
SFAC C  
C      1  0.4628220000000  0.5440010000000  0.3766590000000 1.0
C      1  0.4310990000000  0.5631150000000  0.4951410000000 1.0
C      1  0.4230700000000  0.4325940000000  0.5412800000000 1.0
C      1  0.4895550000000  0.5611120000000  0.5626170000000 1.0
C      1  0.4803280000000  0.4563650000000  0.5769160000000 1.0
C      1  0.5852650000000  0.5628530000000  0.5025190000000 1.0
C      1  0.4040150000000  0.5362620000000  0.5280930000000 1.0
C      1  0.5653370000000  0.5132180000000  0.5556000000000 1.0
C      1  0.5311120000000  0.4686970000000  0.3673290000000 1.0
C      1  0.4636470000000  0.5472980000000  0.6016420000000 1.0
C      1  0.5201360000000  0.4687190000000  0.5115100000000 1.0
C      1  0.5670410000000  0.4343910000000  0.5264790000000 1.0
C      1  0.4668310000000  0.3981540000000  0.5909250000000 1.0
C      1  0.5846730000000  0.4761710000000  0.5003370000000 1.0
C      1  0.5372160000000  0.3874360000000  0.5707080000000 1.0
C      1  0.4197070000000  0.4865330000000  0.6057200000000 1.0
C      1  0.4921210000000  0.5496260000000  0.5021920000000 1.0
C      1  0.5182410000000  0.6030290000000  0.4917520000000 1.0
C      1  0.5651630000000  0.4961290000000  0.4932880000000 1.0
C      1  0.4993260000000  0.4151330000000  0.4727180000000 1.0
C      1  0.4909310000000  0.4687780000000  0.5125870000000 1.0
C      1  0.5309980000000  0.4910040000000  0.4501480000000 1.0
C      1  0.5937600000000  0.5189670000000  0.4447050000000 1.0
C      1  0.4380050000000  0.5488320000000  0.5936310000000 1.0
C      1  0.5157260000000  0.5411510000000  0.4095540000000 1.0
C      1  0.4175690000000  0.5149610000000  0.4843690000000 1.0
C      1  0.4456360000000  0.5874860000000  0.4912050000000 1.0
C      1  0.5165670000000  0.5595660000000  0.5518810000000 1.0
C      1  0.4250040000000  0.5509720000000  0.5690040000000 1.0
C      1  0.5843940000000  0.5276220000000  0.5406320000000 1.0
C      1  0.5161270000000  0.5122540000000  0.4616190000000 1.0
C      1  0.5906590000000  0.5577080000000  0.4743260000000 1.0
C      1  0.5036840000000  0.5684240000000  0.3682380000000 1.0
C      1  0.4016850000000  0.4386570000000  0.5237430000000 1.0
C      1  0.4000160000000  0.4306830000000  0.4966090000000 1.0
C      1  0.3955990000000  0.4380980000000  0.4444740000000 1.0
C      1  0.5531140000000  0.4440690000000  0.4834850000000 1.0
C      1  0.5552990000000  0.4517430000000  0.5457050000000 1.0
C      1  0.5741920000000  0.4494090000000  0.5021830000000 1.0
C      1  0.4778550000000  0.5621530000000  0.3636420000000 1.0
C      1  0.5294820000000  0.4606110000000  0.4852480000000 1.0
C      1  0.4398760000000  0.5621460000000  0.5461520000000 1.0
C      1  0.5380770000000  0.5621050000000  0.5712350000000 1.0
C      1  0.4723860000000  0.5054350000000  0.4615570000000 1.0
C      1  0.5638530000000  0.4964480000000  0.6003100000000 1.0
C      1  0.5190210000000  0.5377400000000  0.5043740000000 1.0
C      1  0.5834620000000  0.5430440000000  0.4316420000000 1.0
C      1  0.5090530000000  0.4053400000000  0.5005520000000 1.0
C      1  0.4654010000000  0.5997710000000  0.4744180000000 1.0
C      1  0.5392350000000  0.4721420000000  0.5334860000000 1.0
C      1  0.4921730000000  0.6067390000000  0.4837550000000 1.0
C      1  0.5438500000000  0.4979750000000  0.5435660000000 1.0
C      1  0.4010370000000  0.5170750000000  0.5076690000000 1.0
C      1  0.5139360000000  0.5112700000000  0.4907870000000 1.0
C      1  0.4301420000000  0.5273440000000  0.4271020000000 1.0
C      1  0.5544470000000  0.4813350000000  0.4366620000000 1.0
C      1  0.4604180000000  0.5908200000000  0.4472770000000 1.0
C      1  0.4679500000000  0.5581960000000  0.5439080000000 1.0
C      1  0.4354600000000  0.5462360000000  0.4474170000000 1.0
C      1  0.6089440000000  0.4913390000000  0.5024210000000 1.0
C      1  0.4811830000000  0.4761570000000  0.4215170000000 1.0
C      1  0.4357390000000  0.4670150000000  0.4625060000000 1.0
C      1  0.4739670000000  0.4917390000000  0.5090360000000 1.0
C      1  0.4889590000000  0.5613440000000  0.4777170000000 1.0
C      1  0.4526410000000  0.4836370000000  0.4199130000000 1.0
C      1  0.5644860000000  0.4702140000000  0.5939420000000 1.0
C      1  0.5249530000000  0.4175490000000  0.4562980000000 1.0
C      1  0.4515160000000  0.4545200000000  0.5763360000000 1.0
C      1  0.4680930000000  0.5256290000000  0.3972360000000 1.0
C      1  0.4957410000000  0.4212930000000  0.5204770000000 1.0
C      1  0.5505420000000  0.4538330000000  0.4278550000000 1.0
C      1  0.4333020000000  0.4907630000000  0.4795000000000 1.0
C      1  0.3941490000000  0.4307390000000  0.4703770000000 1.0
C      1  0.6038010000000  0.5301580000000  0.4706230000000 1.0
C      1  0.5591310000000  0.5189140000000  0.5837410000000 1.0
C      1  0.4478910000000  0.5112710000000  0.4119740000000 1.0
C      1  0.4883700000000  0.5474960000000  0.5884240000000 1.0
C      1  0.5209180000000  0.5372550000000  0.5341860000000 1.0
C      1  0.4744880000000  0.5401600000000  0.5223610000000 1.0
C      1  0.5792220000000  0.4952230000000  0.4388810000000 1.0
C      1  0.4388140000000  0.4313560000000  0.5646680000000 1.0
C      1  0.4532820000000  0.5056370000000  0.5495030000000 1.0
C      1  0.5165240000000  0.3920790000000  0.5872600000000 1.0
C      1  0.5445830000000  0.5559950000000  0.4576610000000 1.0
C      1  0.5955080000000  0.5384310000000  0.5169170000000 1.0
C      1  0.4521700000000  0.4445250000000  0.4695210000000 1.0
C      1  0.6085000000000  0.5197100000000  0.4975230000000 1.0
C      1  0.5381600000000  0.4031790000000  0.5013280000000 1.0
C      1  0.4268810000000  0.5418890000000  0.4747580000000 1.0
C      1  0.5587550000000  0.5215960000000  0.4886930000000 1.0
C      1  0.3809580000000  0.4536720000000  0.5338220000000 1.0
C      1  0.4812910000000  0.4422110000000  0.5072410000000 1.0
C      1  0.4239060000000  0.5571660000000  0.5219970000000 1.0
C      1  0.4995580000000  0.4912510000000  0.4046130000000 1.0
C      1  0.4758870000000  0.4333840000000  0.4798180000000 1.0
C      1  0.4590540000000  0.5624310000000  0.4430190000000 1.0
C      1  0.5160620000000  0.4680740000000  0.4607000000000 1.0
C      1  0.4827050000000  0.5499650000000  0.4530670000000 1.0
C      1  0.5027670000000  0.4262600000000  0.5465730000000 1.0
C      1  0.5723680000000  0.5610370000000  0.4515390000000 1.0
C      1  0.4318760000000  0.4692620000000  0.4340490000000 1.0
C      1  0.5349170000000  0.4317320000000  0.4332500000000 1.0
C      1  0.4447280000000  0.4070650000000  0.5780830000000 1.0
C      1  0.5062060000000  0.5059420000000  0.5721560000000 1.0
C      1  0.5379520000000  0.5385710000000  0.5883300000000 1.0
C      1  0.5615030000000  0.4536240000000  0.5730280000000 1.0
C      1  0.5198270000000  0.5586530000000  0.3874610000000 1.0
C      1  0.4913450000000  0.5231260000000  0.4518620000000 1.0
C      1  0.5432510000000  0.5946240000000  0.4993720000000 1.0
C      1  0.5544840000000  0.4079390000000  0.5246360000000 1.0
C      1  0.4958010000000  0.5197410000000  0.4041620000000 1.0
C      1  0.4932070000000  0.4079730000000  0.5884130000000 1.0
C      1  0.5418420000000  0.5451880000000  0.4852050000000 1.0
C      1  0.4936650000000  0.4813720000000  0.5778680000000 1.0
C      1  0.5459580000000  0.4172640000000  0.4772190000000 1.0
C      1  0.4095450000000  0.4534130000000  0.4268150000000 1.0
C      1  0.4608320000000  0.4958510000000  0.4845620000000 1.0
C      1  0.5099560000000  0.5280830000000  0.5905660000000 1.0
C      1  0.5506650000000  0.3927170000000  0.5481140000000 1.0
C      1  0.4357980000000  0.4727340000000  0.5905590000000 1.0
C      1  0.5166590000000  0.4787050000000  0.3865690000000 1.0
C      1  0.5665120000000  0.5828260000000  0.5126430000000 1.0
C      1  0.5197820000000  0.5119110000000  0.5472840000000 1.0
C      1  0.5683660000000  0.5879000000000  0.5404950000000 1.0
C      1  0.5586580000000  0.5795830000000  0.5640830000000 1.0
C      1  0.4683590000000  0.5123790000000  0.5276610000000 1.0
C      1  0.5283320000000  0.5495780000000  0.4343800000000 1.0
C      1  0.4031500000000  0.5361660000000  0.5570010000000 1.0
C      1  0.4936280000000  0.4628990000000  0.4437250000000 1.0
C      1  0.4946430000000  0.4319370000000  0.5726290000000 1.0
END
