TITL C-627107-135-1022 2.16774710791673e-07 125000 -812.031406342617 0 0 132 (C1) n - 1
REM
REM in /home/nfs/bkarasulu/CARBON/AIRSS/Generating-Clusters/LCBOP/Only-C1/SD-CG/FIRE-CG
REM
REM
REM
REM
REM
REM ./C.cell (11c1c37f851c82e70ff6c80c92926a4b)
REM AIRSS Version 0.9.1 bugfix July 2018 build 013d7b7c2542+ Fri, 06 Jul 2018 19:26:36 +0100
REM compiler GCC version 9.2.1 20190827 (Red Hat 9.2.1-1)
REM options -cpp -mtune=generic -march=x86-64 -g -O0 -fpre-include=/usr/include/finclude/math-vector-fortran.h
REM seed 1572836042 700849522 -203850146 -1169785853 536623442 -2022519148 1606620327 -2089089147 -1736222159 1980701484 75672715 -1109516321 -1900666720 -1997859703 -1925230586 203869910 -113222540 61199470 540082743 201238513 -1824695651 2025439091 -579785748 1235209866 -238702354 -323786537 1599173024 -384872415 2035085293 2008960311 2058912659 978967563 1993477103
REM
CELL 1.54180   50.00000   50.00000   50.00000   90.00000   90.00000   90.00000
LATT -1
SFAC C  
C      1  0.6144910000000  0.4769320000000  0.4827610000000 1.0
C      1  0.5438380000000  0.4470640000000  0.5703790000000 1.0
C      1  0.5193950000000  0.5996630000000  0.4665950000000 1.0
C      1  0.5740460000000  0.5519480000000  0.4724620000000 1.0
C      1  0.4270950000000  0.5112740000000  0.4158280000000 1.0
C      1  0.4476280000000  0.4900180000000  0.5508130000000 1.0
C      1  0.4389720000000  0.4914610000000  0.5243320000000 1.0
C      1  0.4947770000000  0.4459500000000  0.5782790000000 1.0
C      1  0.4923110000000  0.5647280000000  0.5774310000000 1.0
C      1  0.4447840000000  0.4299820000000  0.5651820000000 1.0
C      1  0.5478120000000  0.5260550000000  0.4145490000000 1.0
C      1  0.3996280000000  0.5253590000000  0.5210550000000 1.0
C      1  0.5501790000000  0.4051790000000  0.5149330000000 1.0
C      1  0.6278370000000  0.5355680000000  0.5668230000000 1.0
C      1  0.5139970000000  0.3904700000000  0.4587150000000 1.0
C      1  0.5520910000000  0.4852010000000  0.4401930000000 1.0
C      1  0.3506290000000  0.5172600000000  0.4648960000000 1.0
C      1  0.4335120000000  0.4277040000000  0.4867100000000 1.0
C      1  0.4255770000000  0.5637640000000  0.5364400000000 1.0
C      1  0.5779870000000  0.4523980000000  0.5320340000000 1.0
C      1  0.3921250000000  0.4953390000000  0.5526530000000 1.0
C      1  0.4899240000000  0.5100560000000  0.5020420000000 1.0
C      1  0.5447520000000  0.5516280000000  0.4768850000000 1.0
C      1  0.5460350000000  0.5909060000000  0.3804630000000 1.0
C      1  0.4256640000000  0.5262160000000  0.4671330000000 1.0
C      1  0.4619500000000  0.5929010000000  0.5309020000000 1.0
C      1  0.5822100000000  0.5737260000000  0.5433480000000 1.0
C      1  0.5197310000000  0.4309420000000  0.5727210000000 1.0
C      1  0.4131610000000  0.5001860000000  0.4603030000000 1.0
C      1  0.4579030000000  0.5436720000000  0.4983380000000 1.0
C      1  0.4011890000000  0.5227480000000  0.5499430000000 1.0
C      1  0.3914970000000  0.4926000000000  0.4788240000000 1.0
C      1  0.5438220000000  0.4370430000000  0.4464440000000 1.0
C      1  0.5860320000000  0.5372410000000  0.4514360000000 1.0
C      1  0.5038990000000  0.6148150000000  0.4847100000000 1.0
C      1  0.5404160000000  0.5680800000000  0.5008960000000 1.0
C      1  0.6135010000000  0.5222320000000  0.5478110000000 1.0
C      1  0.5081670000000  0.5254000000000  0.4618150000000 1.0
C      1  0.4114880000000  0.4281020000000  0.4706000000000 1.0
C      1  0.4837470000000  0.5169300000000  0.4504640000000 1.0
C      1  0.5303540000000  0.4626680000000  0.5278060000000 1.0
C      1  0.5178690000000  0.5480080000000  0.6131310000000 1.0
C      1  0.5009070000000  0.5291960000000  0.6221640000000 1.0
C      1  0.4897150000000  0.4088620000000  0.4612970000000 1.0
C      1  0.4348970000000  0.5467770000000  0.4485730000000 1.0
C      1  0.5179210000000  0.5634030000000  0.5894070000000 1.0
C      1  0.5960140000000  0.5160140000000  0.5047800000000 1.0
C      1  0.4572090000000  0.5058970000000  0.5718370000000 1.0
C      1  0.5117640000000  0.5073110000000  0.4838930000000 1.0
C      1  0.4681730000000  0.4955240000000  0.4610470000000 1.0
C      1  0.4885230000000  0.5868960000000  0.5241160000000 1.0
C      1  0.5226360000000  0.4808040000000  0.5961710000000 1.0
C      1  0.4824930000000  0.5369030000000  0.5100820000000 1.0
C      1  0.4835550000000  0.5572600000000  0.4193400000000 1.0
C      1  0.5716960000000  0.5344320000000  0.4272830000000 1.0
C      1  0.5063280000000  0.4218200000000  0.5178120000000 1.0
C      1  0.4730270000000  0.4068740000000  0.4366170000000 1.0
C      1  0.4700450000000  0.4920400000000  0.4895180000000 1.0
C      1  0.4444780000000  0.4510020000000  0.4973410000000 1.0
C      1  0.5399420000000  0.5358760000000  0.5346670000000 1.0
C      1  0.5533010000000  0.4184760000000  0.4671630000000 1.0
C      1  0.4543780000000  0.4801470000000  0.4413900000000 1.0
C      1  0.4697720000000  0.4342370000000  0.5732360000000 1.0
C      1  0.6074300000000  0.5201460000000  0.4587110000000 1.0
C      1  0.4500760000000  0.5703070000000  0.4904200000000 1.0
C      1  0.4525110000000  0.4763810000000  0.5046930000000 1.0
C      1  0.5602190000000  0.5890360000000  0.4952490000000 1.0
C      1  0.5007190000000  0.6082420000000  0.5105340000000 1.0
C      1  0.4236620000000  0.5413790000000  0.5560290000000 1.0
C      1  0.4466660000000  0.4038670000000  0.4927580000000 1.0
C      1  0.5635020000000  0.4216750000000  0.4947330000000 1.0
C      1  0.5646550000000  0.4871620000000  0.4871400000000 1.0
C      1  0.4535240000000  0.5677240000000  0.4599470000000 1.0
C      1  0.4278500000000  0.4909220000000  0.4363860000000 1.0
C      1  0.5262440000000  0.5564560000000  0.5217550000000 1.0
C      1  0.4680110000000  0.5537340000000  0.5747320000000 1.0
C      1  0.4384960000000  0.3825240000000  0.5106300000000 1.0
C      1  0.4206480000000  0.4343440000000  0.5548230000000 1.0
C      1  0.5224330000000  0.4062300000000  0.5584940000000 1.0
C      1  0.4484840000000  0.5337850000000  0.5698580000000 1.0
C      1  0.5477990000000  0.6027380000000  0.4728170000000 1.0
C      1  0.5293080000000  0.5451260000000  0.4034060000000 1.0
C      1  0.4801000000000  0.5703460000000  0.4452320000000 1.0
C      1  0.6041390000000  0.5349480000000  0.5237960000000 1.0
C      1  0.5164170000000  0.4459300000000  0.4395250000000 1.0
C      1  0.3718290000000  0.5137600000000  0.4815300000000 1.0
C      1  0.4811400000000  0.3732410000000  0.4989400000000 1.0
C      1  0.5302340000000  0.4903240000000  0.5299740000000 1.0
C      1  0.6073190000000  0.4944060000000  0.5503580000000 1.0
C      1  0.5259140000000  0.4055980000000  0.5302030000000 1.0
C      1  0.4962400000000  0.5110250000000  0.4023650000000 1.0
C      1  0.4767370000000  0.4954290000000  0.5906430000000 1.0
C      1  0.4825470000000  0.5118060000000  0.6132110000000 1.0
C      1  0.6105430000000  0.5050750000000  0.4824610000000 1.0
C      1  0.5011790000000  0.5390000000000  0.4058920000000 1.0
C      1  0.6028700000000  0.4536320000000  0.4899770000000 1.0
C      1  0.3779930000000  0.5299610000000  0.5039380000000 1.0
C      1  0.5517430000000  0.4512980000000  0.5433370000000 1.0
C      1  0.5637810000000  0.5763630000000  0.5627510000000 1.0
C      1  0.3925950000000  0.4734530000000  0.5328280000000 1.0
C      1  0.5018130000000  0.4651010000000  0.4227600000000 1.0
C      1  0.4370710000000  0.5264780000000  0.4925770000000 1.0
C      1  0.4243550000000  0.5132750000000  0.5130250000000 1.0
C      1  0.4979940000000  0.5592920000000  0.5211370000000 1.0
C      1  0.5453920000000  0.4679250000000  0.5892530000000 1.0
C      1  0.4575380000000  0.4023380000000  0.4161750000000 1.0
C      1  0.5841500000000  0.5711990000000  0.4937530000000 1.0
C      1  0.5487330000000  0.5109500000000  0.5259440000000 1.0
C      1  0.5066360000000  0.5749120000000  0.4572160000000 1.0
C      1  0.4594740000000  0.3646950000000  0.5141090000000 1.0
C      1  0.5204690000000  0.4811630000000  0.4771810000000 1.0
C      1  0.5935700000000  0.5616170000000  0.5200580000000 1.0
C      1  0.4406050000000  0.5801390000000  0.5173640000000 1.0
C      1  0.5212580000000  0.5500530000000  0.4616140000000 1.0
C      1  0.5393160000000  0.4988290000000  0.4192920000000 1.0
C      1  0.5077040000000  0.4564390000000  0.4845870000000 1.0
C      1  0.3919340000000  0.4766080000000  0.5035340000000 1.0
C      1  0.4014880000000  0.4486260000000  0.5430100000000 1.0
C      1  0.4961760000000  0.4737920000000  0.5875200000000 1.0
C      1  0.5965400000000  0.4706090000000  0.5437820000000 1.0
C      1  0.5468260000000  0.4812090000000  0.4672600000000 1.0
C      1  0.5404460000000  0.3932940000000  0.4628170000000 1.0
C      1  0.5008860000000  0.4378480000000  0.4635630000000 1.0
C      1  0.5380040000000  0.5683400000000  0.3907260000000 1.0
C      1  0.4727250000000  0.4651980000000  0.4253340000000 1.0
C      1  0.5698490000000  0.5055620000000  0.5074430000000 1.0
C      1  0.5416280000000  0.5730580000000  0.5775780000000 1.0
C      1  0.5129630000000  0.4897410000000  0.4120140000000 1.0
C      1  0.5823270000000  0.4412300000000  0.5052530000000 1.0
C      1  0.4313740000000  0.5378210000000  0.4216560000000 1.0
C      1  0.4743040000000  0.3977610000000  0.4844380000000 1.0
C      1  0.5120970000000  0.4483510000000  0.5111400000000 1.0
END
