TITL C-627108-131-252 182542.138008412 125000 -1061.98509880577 0 0 173 (C1) n - 1
REM
REM in /home/nfs/bkarasulu/CARBON/AIRSS/Generating-Clusters/LCBOP/Only-C1/SD-CG/FIRE-CG
REM
REM
REM
REM
REM
REM ./C.cell (11c1c37f851c82e70ff6c80c92926a4b)
REM AIRSS Version 0.9.1 bugfix July 2018 build 013d7b7c2542+ Fri, 06 Jul 2018 19:26:36 +0100
REM compiler GCC version 9.2.1 20190827 (Red Hat 9.2.1-1)
REM options -cpp -mtune=generic -march=x86-64 -g -O0 -fpre-include=/usr/include/finclude/math-vector-fortran.h
REM seed -643981159 -1391318605 1485043618 -1179129539 -1323708325 -1031828631 1377155987 -1981529392 450199462 412331668 -867326159 2048451147 2062258552 -592430723 1297044462 -132938721 -1837156515 1885942067 1161019448 -1471487013 1868165227 2137643579 1161761474 25753747 2028743004 -1837802502 -1454610807 -734298377 1004128379 -624921581 60497788 -1718920026 -1684294096
REM
CELL 1.54180   50.00000   50.00000   50.00000   90.00000   90.00000   90.00000
LATT -1
SFAC C  
C      1  0.5075640000000  0.5078210000000  0.4994980000000 1.0
C      1  0.4885260000000  0.4780050000000  0.5312770000000 1.0
C      1  0.4920240000000  0.4821660000000  0.6048360000000 1.0
C      1  0.5442110000000  0.5459750000000  0.5163870000000 1.0
C      1  0.5030650000000  0.5132900000000  0.3755420000000 1.0
C      1  0.5356230000000  0.4996990000000  0.5586180000000 1.0
C      1  0.5316920000000  0.5905680000000  0.5765240000000 1.0
C      1  0.4821480000000  0.5674870000000  0.5135950000000 1.0
C      1  0.5345990000000  0.5547260000000  0.4913650000000 1.0
C      1  0.4443280000000  0.3905890000000  0.3972060000000 1.0
C      1  0.4902520000000  0.3875780000000  0.4168180000000 1.0
C      1  0.5593170000000  0.4785890000000  0.4913450000000 1.0
C      1  0.5100150000000  0.3530940000000  0.5625460000000 1.0
C      1  0.5101760000000  0.6060530000000  0.5668640000000 1.0
C      1  0.4281710000000  0.4831430000000  0.4625600000000 1.0
C      1  0.5238550000000  0.5705270000000  0.4211170000000 1.0
C      1  0.4768680000000  0.5090760000000  0.3757460000000 1.0
C      1  0.3868610000000  0.4517250000000  0.5203840000000 1.0
C      1  0.6011480000000  0.5303490000000  0.4547610000000 1.0
C      1  0.5059820000000  0.6004740000000  0.5394270000000 1.0
C      1  0.3871200000000  0.5313440000000  0.5573110000000 1.0
C      1  0.6162310000000  0.4273400000000  0.4152820000000 1.0
C      1  0.4480250000000  0.5688910000000  0.6056130000000 1.0
C      1  0.5485350000000  0.5257690000000  0.4007210000000 1.0
C      1  0.5813270000000  0.6356280000000  0.4361480000000 1.0
C      1  0.3808290000000  0.5516170000000  0.4514920000000 1.0
C      1  0.5217690000000  0.3741460000000  0.5514980000000 1.0
C      1  0.5144100000000  0.4635640000000  0.6030100000000 1.0
C      1  0.4858400000000  0.5508060000000  0.5792970000000 1.0
C      1  0.4881890000000  0.6514970000000  0.5166120000000 1.0
C      1  0.4397770000000  0.6088960000000  0.5202360000000 1.0
C      1  0.4798790000000  0.5006170000000  0.6233790000000 1.0
C      1  0.6078210000000  0.5098010000000  0.5243220000000 1.0
C      1  0.5486710000000  0.5535540000000  0.4116110000000 1.0
C      1  0.3800650000000  0.4757390000000  0.5097130000000 1.0
C      1  0.5291130000000  0.3984800000000  0.5439890000000 1.0
C      1  0.4537810000000  0.3785120000000  0.4450730000000 1.0
C      1  0.5935270000000  0.5707890000000  0.5559480000000 1.0
C      1  0.5152990000000  0.4565650000000  0.4500870000000 1.0
C      1  0.4300800000000  0.4559120000000  0.5709570000000 1.0
C      1  0.5336740000000  0.4261110000000  0.5441800000000 1.0
C      1  0.5441970000000  0.4371230000000  0.5691280000000 1.0
C      1  0.4504500000000  0.3820250000000  0.5013390000000 1.0
C      1  0.5734360000000  0.4911000000000  0.4675710000000 1.0
C      1  0.5237240000000  0.6219240000000  0.4314580000000 1.0
C      1  0.3902090000000  0.5042720000000  0.4379580000000 1.0
C      1  0.4900790000000  0.5685990000000  0.4864300000000 1.0
C      1  0.4139410000000  0.6006910000000  0.5246140000000 1.0
C      1  0.4781080000000  0.4470530000000  0.4944910000000 1.0
C      1  0.4282440000000  0.3804790000000  0.4564720000000 1.0
C      1  0.4530570000000  0.4334940000000  0.3704460000000 1.0
C      1  0.5715430000000  0.4695800000000  0.6182450000000 1.0
C      1  0.5727590000000  0.4363200000000  0.5765750000000 1.0
C      1  0.5906120000000  0.5202400000000  0.5036270000000 1.0
C      1  0.5630110000000  0.5240850000000  0.5130600000000 1.0
C      1  0.5329090000000  0.6402420000000  0.4507880000000 1.0
C      1  0.4271310000000  0.3801040000000  0.4856020000000 1.0
C      1  0.5781780000000  0.4480240000000  0.6026330000000 1.0
C      1  0.5420020000000  0.5178230000000  0.4475980000000 1.0
C      1  0.6034300000000  0.4455820000000  0.4919730000000 1.0
C      1  0.5917610000000  0.3977780000000  0.5333160000000 1.0
C      1  0.6126780000000  0.5531210000000  0.5479280000000 1.0
C      1  0.5408400000000  0.5131050000000  0.6156790000000 1.0
C      1  0.4548600000000  0.5285340000000  0.4820760000000 1.0
C      1  0.4757750000000  0.4807680000000  0.5585530000000 1.0
C      1  0.4986900000000  0.5374960000000  0.4523680000000 1.0
C      1  0.4996980000000  0.3890930000000  0.4440390000000 1.0
C      1  0.4552620000000  0.6188930000000  0.5426180000000 1.0
C      1  0.5163040000000  0.4691550000000  0.5285020000000 1.0
C      1  0.5958050000000  0.4699340000000  0.5506210000000 1.0
C      1  0.5032400000000  0.3974260000000  0.3942260000000 1.0
C      1  0.4425310000000  0.4589080000000  0.3747410000000 1.0
C      1  0.5748470000000  0.5357610000000  0.5809230000000 1.0
C      1  0.4068230000000  0.3996590000000  0.4959570000000 1.0
C      1  0.4690170000000  0.4599050000000  0.5172510000000 1.0
C      1  0.4767030000000  0.3857510000000  0.4895520000000 1.0
C      1  0.5843050000000  0.5892460000000  0.4140790000000 1.0
C      1  0.5051840000000  0.4857900000000  0.4523670000000 1.0
C      1  0.4551300000000  0.5568090000000  0.5179660000000 1.0
C      1  0.5209830000000  0.5244800000000  0.5984680000000 1.0
C      1  0.4397730000000  0.4106030000000  0.3800740000000 1.0
C      1  0.3947500000000  0.5597610000000  0.4728670000000 1.0
C      1  0.4698580000000  0.5310990000000  0.4585850000000 1.0
C      1  0.3784250000000  0.5281400000000  0.4389320000000 1.0
C      1  0.4470160000000  0.5884320000000  0.5865150000000 1.0
C      1  0.5761940000000  0.5627310000000  0.4185520000000 1.0
C      1  0.5888140000000  0.6142510000000  0.4220460000000 1.0
C      1  0.6099630000000  0.4813410000000  0.5279430000000 1.0
C      1  0.4537160000000  0.4707700000000  0.4584230000000 1.0
C      1  0.4094270000000  0.5464910000000  0.4927900000000 1.0
C      1  0.5154460000000  0.4324210000000  0.4663490000000 1.0
C      1  0.4196280000000  0.4907720000000  0.4890750000000 1.0
C      1  0.5602890000000  0.6464830000000  0.4486560000000 1.0
C      1  0.4365720000000  0.5418660000000  0.6442470000000 1.0
C      1  0.3926370000000  0.4068410000000  0.4718990000000 1.0
C      1  0.4041770000000  0.4330200000000  0.5334230000000 1.0
C      1  0.4484490000000  0.4714560000000  0.5567900000000 1.0
C      1  0.5183480000000  0.4076850000000  0.4531480000000 1.0
C      1  0.4601410000000  0.6078290000000  0.5698000000000 1.0
C      1  0.6179340000000  0.4650180000000  0.5064220000000 1.0
C      1  0.4913560000000  0.4929720000000  0.5779380000000 1.0
C      1  0.5263610000000  0.5987910000000  0.4182900000000 1.0
C      1  0.4180740000000  0.4121210000000  0.5196620000000 1.0
C      1  0.4047050000000  0.3958630000000  0.4493950000000 1.0
C      1  0.4492200000000  0.5069180000000  0.3796910000000 1.0
C      1  0.5049120000000  0.4308610000000  0.4960520000000 1.0
C      1  0.5643390000000  0.5035070000000  0.4129270000000 1.0
C      1  0.3930700000000  0.4982170000000  0.4980400000000 1.0
C      1  0.4831400000000  0.5838240000000  0.4630540000000 1.0
C      1  0.4327570000000  0.5281170000000  0.3743400000000 1.0
C      1  0.5943730000000  0.5461440000000  0.4337250000000 1.0
C      1  0.4608800000000  0.4475800000000  0.4724400000000 1.0
C      1  0.5440610000000  0.5693390000000  0.5618400000000 1.0
C      1  0.5580090000000  0.4929590000000  0.6223760000000 1.0
C      1  0.4384470000000  0.5489820000000  0.4945520000000 1.0
C      1  0.4119040000000  0.4392130000000  0.5600020000000 1.0
C      1  0.5538160000000  0.5423370000000  0.4531360000000 1.0
C      1  0.4780370000000  0.3815800000000  0.4616940000000 1.0
C      1  0.4853220000000  0.5035740000000  0.5151660000000 1.0
C      1  0.4026460000000  0.5257560000000  0.5358600000000 1.0
C      1  0.3950490000000  0.5256950000000  0.5081530000000 1.0
C      1  0.5356000000000  0.4607080000000  0.5834440000000 1.0
C      1  0.5923970000000  0.5127770000000  0.4756080000000 1.0
C      1  0.4538680000000  0.5467220000000  0.6234310000000 1.0
C      1  0.4964360000000  0.3348600000000  0.5752960000000 1.0
C      1  0.4456790000000  0.4016060000000  0.5235470000000 1.0
C      1  0.5534970000000  0.5607450000000  0.4721590000000 1.0
C      1  0.4635020000000  0.6030780000000  0.4701520000000 1.0
C      1  0.5700470000000  0.5609410000000  0.5687010000000 1.0
C      1  0.5033500000000  0.6529610000000  0.4946970000000 1.0
C      1  0.5801530000000  0.4366200000000  0.5061960000000 1.0
C      1  0.5892520000000  0.4420950000000  0.5538130000000 1.0
C      1  0.4730290000000  0.4092220000000  0.5294470000000 1.0
C      1  0.4614750000000  0.3825030000000  0.4176190000000 1.0
C      1  0.5904700000000  0.5152170000000  0.5690980000000 1.0
C      1  0.5048850000000  0.5734630000000  0.5308390000000 1.0
C      1  0.5279860000000  0.5190190000000  0.3827140000000 1.0
C      1  0.5810160000000  0.4882080000000  0.5677050000000 1.0
C      1  0.5146170000000  0.5095290000000  0.5740650000000 1.0
C      1  0.4920200000000  0.4045330000000  0.5064640000000 1.0
C      1  0.4383390000000  0.4824230000000  0.3892710000000 1.0
C      1  0.4802300000000  0.4297820000000  0.3638980000000 1.0
C      1  0.4973980000000  0.5403650000000  0.6029410000000 1.0
C      1  0.4246020000000  0.4816900000000  0.4136670000000 1.0
C      1  0.5304050000000  0.5594790000000  0.5378530000000 1.0
C      1  0.5516970000000  0.4978090000000  0.5119720000000 1.0
C      1  0.5554530000000  0.4506640000000  0.5012230000000 1.0
C      1  0.4372100000000  0.4960500000000  0.5142120000000 1.0
C      1  0.5093690000000  0.5488580000000  0.4803170000000 1.0
C      1  0.4865630000000  0.6141960000000  0.5796080000000 1.0
C      1  0.4443910000000  0.4704940000000  0.5275890000000 1.0
C      1  0.4303940000000  0.5184550000000  0.5357030000000 1.0
C      1  0.4501140000000  0.6095730000000  0.4931700000000 1.0
C      1  0.4612500000000  0.5086610000000  0.5015580000000 1.0
C      1  0.4758910000000  0.4832720000000  0.4462030000000 1.0
C      1  0.5002140000000  0.5644460000000  0.4377700000000 1.0
C      1  0.5345250000000  0.4903100000000  0.5325060000000 1.0
C      1  0.6102590000000  0.4366210000000  0.4666410000000 1.0
C      1  0.6085260000000  0.5249970000000  0.5483570000000 1.0
C      1  0.4771440000000  0.5295030000000  0.6203960000000 1.0
C      1  0.4999100000000  0.4145830000000  0.3739630000000 1.0
C      1  0.6138520000000  0.4312570000000  0.4409460000000 1.0
C      1  0.5144180000000  0.5136450000000  0.4433630000000 1.0
C      1  0.4661190000000  0.5436210000000  0.5627100000000 1.0
C      1  0.4498050000000  0.5397930000000  0.5405780000000 1.0
C      1  0.4134920000000  0.4888020000000  0.4385250000000 1.0
C      1  0.5121910000000  0.4896840000000  0.4807930000000 1.0
C      1  0.5530530000000  0.4831960000000  0.5738510000000 1.0
C      1  0.5274590000000  0.4428440000000  0.5167300000000 1.0
C      1  0.5610680000000  0.4973910000000  0.4413210000000 1.0
C      1  0.5867310000000  0.4245690000000  0.5313100000000 1.0
C      1  0.4716500000000  0.6409920000000  0.5348310000000 1.0
C      1  0.5171220000000  0.6489210000000  0.4722270000000 1.0
END
