TITL C-627108-131-232 -5.82474624692961e-07 125000 -395.064305581977 0 0 66 (C1) n - 1
REM
REM in /home/nfs/bkarasulu/CARBON/AIRSS/Generating-Clusters/LCBOP/Only-C1/SD-CG/FIRE-CG
REM
REM
REM
REM
REM
REM ./C.cell (11c1c37f851c82e70ff6c80c92926a4b)
REM AIRSS Version 0.9.1 bugfix July 2018 build 013d7b7c2542+ Fri, 06 Jul 2018 19:26:36 +0100
REM compiler GCC version 9.2.1 20190827 (Red Hat 9.2.1-1)
REM options -cpp -mtune=generic -march=x86-64 -g -O0 -fpre-include=/usr/include/finclude/math-vector-fortran.h
REM seed -1554054870 1379843497 2005251557 -571650790 902887658 -370865407 -1652384360 -554177469 591523428 -1289134805 1088457498 762118968 -1022172196 -1806910521 299470918 -500850439 1534904485 -1814474702 -112117437 -1462243406 -441574589 949049186 1527904121 -1241738796 -4848693 -1224329371 60739034 -765259509 75892511 62370424 -634438261 -1437196129 -879661182
REM
CELL 1.54180   50.00000   50.00000   50.00000   90.00000   90.00000   90.00000
LATT -1
SFAC C  
C      1  0.5639750000000  0.5428610000000  0.5267290000000 1.0
C      1  0.4956150000000  0.4661590000000  0.5151070000000 1.0
C      1  0.5332020000000  0.4637100000000  0.5409790000000 1.0
C      1  0.4879280000000  0.4571720000000  0.5820930000000 1.0
C      1  0.4866120000000  0.5391620000000  0.4758090000000 1.0
C      1  0.5006820000000  0.4702480000000  0.4112780000000 1.0
C      1  0.5345190000000  0.5041520000000  0.4165880000000 1.0
C      1  0.4768630000000  0.5718730000000  0.5552170000000 1.0
C      1  0.4424800000000  0.5680240000000  0.4885530000000 1.0
C      1  0.4978080000000  0.5804960000000  0.5369740000000 1.0
C      1  0.4836360000000  0.5585120000000  0.5786130000000 1.0
C      1  0.4862490000000  0.5815760000000  0.5103250000000 1.0
C      1  0.5072010000000  0.5144510000000  0.5650930000000 1.0
C      1  0.5738920000000  0.4758180000000  0.5236520000000 1.0
C      1  0.5513750000000  0.4920050000000  0.5704380000000 1.0
C      1  0.5473670000000  0.5608100000000  0.5375750000000 1.0
C      1  0.4686770000000  0.4476470000000  0.5659730000000 1.0
C      1  0.4837690000000  0.4233200000000  0.5030790000000 1.0
C      1  0.4466900000000  0.5611470000000  0.4624150000000 1.0
C      1  0.4349320000000  0.4686880000000  0.5375190000000 1.0
C      1  0.5708740000000  0.5261630000000  0.5053690000000 1.0
C      1  0.5126760000000  0.4816380000000  0.5314670000000 1.0
C      1  0.4256780000000  0.4897450000000  0.5222700000000 1.0
C      1  0.4544360000000  0.5632180000000  0.5392550000000 1.0
C      1  0.4962360000000  0.5350880000000  0.5801350000000 1.0
C      1  0.5686390000000  0.4525550000000  0.5055150000000 1.0
C      1  0.4786060000000  0.5096560000000  0.5169380000000 1.0
C      1  0.5137580000000  0.5354690000000  0.4707520000000 1.0
C      1  0.4524190000000  0.4630880000000  0.4923500000000 1.0
C      1  0.5263800000000  0.4371810000000  0.5332110000000 1.0
C      1  0.5415360000000  0.5077150000000  0.4433490000000 1.0
C      1  0.4753630000000  0.5345710000000  0.5023190000000 1.0
C      1  0.4527590000000  0.4459640000000  0.5423410000000 1.0
C      1  0.5250940000000  0.5752870000000  0.5405600000000 1.0
C      1  0.4265960000000  0.4537460000000  0.4962340000000 1.0
C      1  0.5077010000000  0.4433830000000  0.4574360000000 1.0
C      1  0.5694400000000  0.4876140000000  0.4771620000000 1.0
C      1  0.5086890000000  0.4730090000000  0.5887950000000 1.0
C      1  0.4485450000000  0.4905030000000  0.4508030000000 1.0
C      1  0.5379250000000  0.5491120000000  0.4763830000000 1.0
C      1  0.5577650000000  0.4764500000000  0.5470980000000 1.0
C      1  0.4664560000000  0.4682830000000  0.4474010000000 1.0
C      1  0.5014220000000  0.4538760000000  0.3894290000000 1.0
C      1  0.4934080000000  0.5981040000000  0.4900950000000 1.0
C      1  0.5622160000000  0.5340340000000  0.4786040000000 1.0
C      1  0.4881220000000  0.5182330000000  0.4125180000000 1.0
C      1  0.4619010000000  0.5613230000000  0.5101270000000 1.0
C      1  0.4638370000000  0.4505950000000  0.4696740000000 1.0
C      1  0.4331750000000  0.5011500000000  0.4710450000000 1.0
C      1  0.4689810000000  0.5457800000000  0.4539730000000 1.0
C      1  0.5000360000000  0.5066690000000  0.5383900000000 1.0
C      1  0.5078160000000  0.4887720000000  0.4733900000000 1.0
C      1  0.4853670000000  0.4320840000000  0.4750490000000 1.0
C      1  0.4249160000000  0.5014180000000  0.4972770000000 1.0
C      1  0.4747600000000  0.5352650000000  0.4284750000000 1.0
C      1  0.4607710000000  0.4258980000000  0.5218670000000 1.0
C      1  0.5638970000000  0.5104130000000  0.4604310000000 1.0
C      1  0.5188080000000  0.5096840000000  0.4605600000000 1.0
C      1  0.4928820000000  0.4606160000000  0.4368110000000 1.0
C      1  0.5038620000000  0.4382430000000  0.5162180000000 1.0
C      1  0.5760430000000  0.4978020000000  0.5049020000000 1.0
C      1  0.5352240000000  0.4485200000000  0.4659590000000 1.0
C      1  0.5238200000000  0.4950870000000  0.5789540000000 1.0
C      1  0.4718180000000  0.4809120000000  0.5066340000000 1.0
C      1  0.5076720000000  0.4979240000000  0.4093630000000 1.0
C      1  0.5582050000000  0.4603250000000  0.4791030000000 1.0
END
