TITL C-627109-622-1728 -0.0611023664255308 125000 -1021.45950717919 0 0 167 (C1) n - 1
REM
REM in /home/nfs/bkarasulu/CARBON/AIRSS/Generating-Clusters/LCBOP/Only-C1/SD-CG/FIRE-CG
REM
REM
REM
REM
REM
REM ./C.cell (11c1c37f851c82e70ff6c80c92926a4b)
REM AIRSS Version 0.9.1 bugfix July 2018 build 013d7b7c2542+ Fri, 06 Jul 2018 19:26:36 +0100
REM compiler GCC version 9.2.1 20190827 (Red Hat 9.2.1-1)
REM options -cpp -mtune=generic -march=x86-64 -g -O0 -fpre-include=/usr/include/finclude/math-vector-fortran.h
REM seed 1308273480 -327524053 -1641463247 566265366 718445667 560371242 -182542716 1302515197 -388040996 1133774791 2008512600 498431477 1605128161 -1276994660 267076299 -532833981 503200672 2040729695 -965117950 -192470754 343213628 -1224039476 709989230 -2048513033 -439315169 -1102002502 -1784078845 -1341902557 -177874112 -1608161444 2100967979 -929961343 -1753099242
REM
CELL 1.54180   50.00000   50.00000   50.00000   90.00000   90.00000   90.00000
LATT -1
SFAC C  
C      1  0.5138060000000  0.4978740000000  0.4577790000000 1.0
C      1  0.4804880000000  0.5921490000000  0.5546600000000 1.0
C      1  0.5010110000000  0.4069530000000  0.4686830000000 1.0
C      1  0.4677790000000  0.4648830000000  0.4557860000000 1.0
C      1  0.4879570000000  0.4109150000000  0.4444070000000 1.0
C      1  0.4711710000000  0.5352650000000  0.4387160000000 1.0
C      1  0.4601820000000  0.5901370000000  0.4347020000000 1.0
C      1  0.4074930000000  0.4539760000000  0.4853790000000 1.0
C      1  0.4275950000000  0.5087480000000  0.3993140000000 1.0
C      1  0.4775070000000  0.4788140000000  0.4334830000000 1.0
C      1  0.5897020000000  0.5059500000000  0.5473060000000 1.0
C      1  0.5756600000000  0.4049370000000  0.4716400000000 1.0
C      1  0.5426170000000  0.5749870000000  0.4645990000000 1.0
C      1  0.5050010000000  0.3881640000000  0.4901730000000 1.0
C      1  0.6076160000000  0.4606270000000  0.4713750000000 1.0
C      1  0.4970350000000  0.5279590000000  0.4294180000000 1.0
C      1  0.4095990000000  0.5964280000000  0.5248620000000 1.0
C      1  0.4966330000000  0.4986850000000  0.4349630000000 1.0
C      1  0.4455000000000  0.4761400000000  0.4711850000000 1.0
C      1  0.4558530000000  0.4809760000000  0.6067130000000 1.0
C      1  0.5614710000000  0.4957880000000  0.5093660000000 1.0
C      1  0.4176960000000  0.5465240000000  0.5750130000000 1.0
C      1  0.5027120000000  0.4289910000000  0.4238430000000 1.0
C      1  0.6053970000000  0.4881240000000  0.5284690000000 1.0
C      1  0.4818130000000  0.5987220000000  0.5818380000000 1.0
C      1  0.4929430000000  0.5599420000000  0.6118370000000 1.0
C      1  0.4314010000000  0.4415220000000  0.5710520000000 1.0
C      1  0.5090670000000  0.5534460000000  0.5308600000000 1.0
C      1  0.6293640000000  0.4059020000000  0.5200270000000 1.0
C      1  0.4030650000000  0.5650800000000  0.4863270000000 1.0
C      1  0.5406050000000  0.5192580000000  0.5516050000000 1.0
C      1  0.4878560000000  0.4544890000000  0.4733410000000 1.0
C      1  0.4381260000000  0.5190080000000  0.4979020000000 1.0
C      1  0.4892920000000  0.4525470000000  0.5419030000000 1.0
C      1  0.4725550000000  0.4953250000000  0.5472950000000 1.0
C      1  0.5143990000000  0.5313610000000  0.5473850000000 1.0
C      1  0.4686050000000  0.4538450000000  0.5185770000000 1.0
C      1  0.4766910000000  0.4642270000000  0.6198220000000 1.0
C      1  0.5511650000000  0.4611040000000  0.6227370000000 1.0
C      1  0.5178500000000  0.5500480000000  0.5983210000000 1.0
C      1  0.5281960000000  0.4569100000000  0.5144420000000 1.0
C      1  0.3978650000000  0.5731820000000  0.5135840000000 1.0
C      1  0.4147610000000  0.4796880000000  0.4377890000000 1.0
C      1  0.5888930000000  0.5549300000000  0.5359370000000 1.0
C      1  0.4310410000000  0.4987340000000  0.4564780000000 1.0
C      1  0.5350820000000  0.5984360000000  0.5085960000000 1.0
C      1  0.3980610000000  0.5507200000000  0.5572940000000 1.0
C      1  0.5309070000000  0.4407320000000  0.4287430000000 1.0
C      1  0.5538140000000  0.5226850000000  0.4978000000000 1.0
C      1  0.4853500000000  0.5863010000000  0.6053240000000 1.0
C      1  0.4827330000000  0.4739770000000  0.3732610000000 1.0
C      1  0.5966010000000  0.4542540000000  0.4438840000000 1.0
C      1  0.5846070000000  0.5343800000000  0.5555790000000 1.0
C      1  0.5814350000000  0.5006200000000  0.4395810000000 1.0
C      1  0.6034900000000  0.5399400000000  0.4264190000000 1.0
C      1  0.4329650000000  0.5347560000000  0.3968690000000 1.0
C      1  0.4915560000000  0.4382180000000  0.5656460000000 1.0
C      1  0.6063930000000  0.4883330000000  0.4801660000000 1.0
C      1  0.5633480000000  0.5685400000000  0.4847860000000 1.0
C      1  0.5760720000000  0.5143890000000  0.3968420000000 1.0
C      1  0.5408920000000  0.5598570000000  0.4391700000000 1.0
C      1  0.5579250000000  0.4707150000000  0.5558620000000 1.0
C      1  0.5030230000000  0.5801980000000  0.5411870000000 1.0
C      1  0.4494360000000  0.4187210000000  0.5662240000000 1.0
C      1  0.4464110000000  0.4939070000000  0.5363770000000 1.0
C      1  0.5431420000000  0.5607920000000  0.5769160000000 1.0
C      1  0.4496580000000  0.4042520000000  0.5404580000000 1.0
C      1  0.4973580000000  0.6007130000000  0.4711200000000 1.0
C      1  0.5618910000000  0.5859890000000  0.5080900000000 1.0
C      1  0.4166470000000  0.4467320000000  0.4578240000000 1.0
C      1  0.5794440000000  0.4609350000000  0.4187320000000 1.0
C      1  0.4269750000000  0.4094820000000  0.5193390000000 1.0
C      1  0.6165500000000  0.4466260000000  0.4963120000000 1.0
C      1  0.4800030000000  0.4355150000000  0.4056460000000 1.0
C      1  0.6183750000000  0.5090740000000  0.4655810000000 1.0
C      1  0.5466320000000  0.4719900000000  0.4976200000000 1.0
C      1  0.4180650000000  0.5813310000000  0.4685910000000 1.0
C      1  0.4055900000000  0.4275170000000  0.5276070000000 1.0
C      1  0.5484990000000  0.5819890000000  0.5548310000000 1.0
C      1  0.4430080000000  0.4700780000000  0.5205020000000 1.0
C      1  0.5552470000000  0.4207750000000  0.4656190000000 1.0
C      1  0.6225910000000  0.5461010000000  0.5018360000000 1.0
C      1  0.5580300000000  0.5371030000000  0.5674410000000 1.0
C      1  0.4982480000000  0.5027200000000  0.6082070000000 1.0
C      1  0.5272790000000  0.5945330000000  0.5374240000000 1.0
C      1  0.5033900000000  0.4046540000000  0.5152280000000 1.0
C      1  0.6035210000000  0.4130440000000  0.5620250000000 1.0
C      1  0.4568150000000  0.5672530000000  0.5232600000000 1.0
C      1  0.4548150000000  0.4213540000000  0.4154690000000 1.0
C      1  0.4373610000000  0.4235010000000  0.4633400000000 1.0
C      1  0.4719290000000  0.5388640000000  0.6180220000000 1.0
C      1  0.4566750000000  0.5181870000000  0.4559160000000 1.0
C      1  0.4795490000000  0.6130450000000  0.3688850000000 1.0
C      1  0.4651540000000  0.4271880000000  0.5054470000000 1.0
C      1  0.3858610000000  0.4835170000000  0.4381030000000 1.0
C      1  0.4438150000000  0.5417370000000  0.5796680000000 1.0
C      1  0.6186820000000  0.4629860000000  0.5213630000000 1.0
C      1  0.5102910000000  0.5477490000000  0.5034320000000 1.0
C      1  0.6223060000000  0.4035710000000  0.5456950000000 1.0
C      1  0.5094720000000  0.3614970000000  0.4887010000000 1.0
C      1  0.3990480000000  0.5379860000000  0.4780580000000 1.0
C      1  0.4323210000000  0.4343670000000  0.4041490000000 1.0
C      1  0.3930950000000  0.4405790000000  0.5055580000000 1.0
C      1  0.5965320000000  0.5460210000000  0.5097550000000 1.0
C      1  0.5806150000000  0.5411080000000  0.4089420000000 1.0
C      1  0.4856570000000  0.5975980000000  0.4453580000000 1.0
C      1  0.4550170000000  0.5416200000000  0.5356170000000 1.0
C      1  0.4570570000000  0.5825040000000  0.4073240000000 1.0
C      1  0.5260140000000  0.5265430000000  0.4944890000000 1.0
C      1  0.4267150000000  0.4825620000000  0.4100200000000 1.0
C      1  0.4555240000000  0.5892820000000  0.5415020000000 1.0
C      1  0.4398880000000  0.4612030000000  0.3969180000000 1.0
C      1  0.4768160000000  0.6009850000000  0.4914220000000 1.0
C      1  0.3608740000000  0.5444600000000  0.5271140000000 1.0
C      1  0.5104250000000  0.5054390000000  0.4842150000000 1.0
C      1  0.5734040000000  0.5431240000000  0.4926090000000 1.0
C      1  0.5054560000000  0.4333090000000  0.4790670000000 1.0
C      1  0.4878260000000  0.5556690000000  0.4889480000000 1.0
C      1  0.4951940000000  0.4955570000000  0.5295110000000 1.0
C      1  0.4689230000000  0.5095900000000  0.6114890000000 1.0
C      1  0.3601600000000  0.4876700000000  0.4390020000000 1.0
C      1  0.5023590000000  0.4769640000000  0.6198150000000 1.0
C      1  0.5583990000000  0.4942600000000  0.4540120000000 1.0
C      1  0.5501270000000  0.4695110000000  0.4685810000000 1.0
C      1  0.5542020000000  0.4473710000000  0.4119900000000 1.0
C      1  0.5912250000000  0.4932610000000  0.5034280000000 1.0
C      1  0.4937680000000  0.5278580000000  0.5668720000000 1.0
C      1  0.4747920000000  0.4201990000000  0.5790290000000 1.0
C      1  0.4694590000000  0.5743420000000  0.4988810000000 1.0
C      1  0.5429270000000  0.4442370000000  0.4557430000000 1.0
C      1  0.4303110000000  0.4689370000000  0.4949220000000 1.0
C      1  0.5666320000000  0.4573190000000  0.6015620000000 1.0
C      1  0.4868270000000  0.4981130000000  0.4999440000000 1.0
C      1  0.5592770000000  0.4967300000000  0.5408000000000 1.0
C      1  0.4162510000000  0.5157600000000  0.4784560000000 1.0
C      1  0.4580700000000  0.4142870000000  0.4432850000000 1.0
C      1  0.4659270000000  0.6244060000000  0.5000520000000 1.0
C      1  0.4662970000000  0.5375390000000  0.5624570000000 1.0
C      1  0.4374260000000  0.5886580000000  0.4516040000000 1.0
C      1  0.5087180000000  0.5228540000000  0.5914290000000 1.0
C      1  0.5370930000000  0.5116840000000  0.4478700000000 1.0
C      1  0.5691870000000  0.4525930000000  0.5741660000000 1.0
C      1  0.5246540000000  0.5363520000000  0.4371030000000 1.0
C      1  0.4425310000000  0.5594170000000  0.4002760000000 1.0
C      1  0.4684220000000  0.5982940000000  0.3872640000000 1.0
C      1  0.4088900000000  0.4400310000000  0.5532690000000 1.0
C      1  0.4391600000000  0.4647730000000  0.5882470000000 1.0
C      1  0.4753200000000  0.4070950000000  0.5243020000000 1.0
C      1  0.5836010000000  0.4300030000000  0.5664710000000 1.0
C      1  0.4643150000000  0.5152890000000  0.4853470000000 1.0
C      1  0.5242280000000  0.5941930000000  0.4799380000000 1.0
C      1  0.4398070000000  0.5195530000000  0.5254860000000 1.0
C      1  0.3852490000000  0.5556460000000  0.5325510000000 1.0
C      1  0.6003540000000  0.4036180000000  0.4814420000000 1.0
C      1  0.5801940000000  0.4899510000000  0.4125850000000 1.0
C      1  0.4407770000000  0.4175400000000  0.4933180000000 1.0
C      1  0.5607720000000  0.5596180000000  0.4182950000000 1.0
C      1  0.4822340000000  0.4692210000000  0.4964500000000 1.0
C      1  0.5106890000000  0.4705880000000  0.5329060000000 1.0
C      1  0.6179440000000  0.4182100000000  0.4976010000000 1.0
C      1  0.5262940000000  0.4673900000000  0.6294370000000 1.0
C      1  0.5705440000000  0.5773100000000  0.5350800000000 1.0
C      1  0.5170420000000  0.4312260000000  0.5060970000000 1.0
C      1  0.4689180000000  0.4584750000000  0.3908940000000 1.0
C      1  0.6032180000000  0.5184300000000  0.4444250000000 1.0
C      1  0.4311140000000  0.6030200000000  0.5398440000000 1.0
C      1  0.4818910000000  0.4053670000000  0.6006510000000 1.0
END
