TITL C-627112-676-1175 0.0014426112915669 125000 -1224.88817331981 0 0 200 (C1) n - 1
REM
REM in /home/nfs/bkarasulu/CARBON/AIRSS/Generating-Clusters/LCBOP/Only-C1/SD-CG/FIRE-CG
REM
REM
REM
REM
REM
REM ./C.cell (11c1c37f851c82e70ff6c80c92926a4b)
REM AIRSS Version 0.9.1 bugfix July 2018 build 013d7b7c2542+ Fri, 06 Jul 2018 19:26:36 +0100
REM compiler GCC version 9.2.1 20190827 (Red Hat 9.2.1-1)
REM options -cpp -mtune=generic -march=x86-64 -g -O0 -fpre-include=/usr/include/finclude/math-vector-fortran.h
REM seed 1609812855 1415325172 122692528 -256678771 -11577696 -262207544 -218467069 1195375692 422530199 2118218263 1813091518 -100312721 1110651470 -1222009759 525406303 -1030244811 -1568060400 1462126973 -109011900 -1385138139 421585353 -870280827 1197278083 -1548182335 1364851173 -1887752604 -682096133 1684277594 1371258602 -1995717519 -2122873715 1100331548 1393527340
REM
CELL 1.54180   50.00000   50.00000   50.00000   90.00000   90.00000   90.00000
LATT -1
SFAC C  
C      1  0.3779930000000  0.4832740000000  0.5126250000000 1.0
C      1  0.5786710000000  0.4787000000000  0.4893680000000 1.0
C      1  0.3272690000000  0.4753020000000  0.5293880000000 1.0
C      1  0.5208040000000  0.5652700000000  0.4071940000000 1.0
C      1  0.5170230000000  0.4963050000000  0.5670970000000 1.0
C      1  0.4812330000000  0.4665870000000  0.4863870000000 1.0
C      1  0.5708680000000  0.3735880000000  0.5481600000000 1.0
C      1  0.4537980000000  0.5169720000000  0.6038000000000 1.0
C      1  0.4576530000000  0.5002030000000  0.4077940000000 1.0
C      1  0.5462550000000  0.4852590000000  0.6106330000000 1.0
C      1  0.4280840000000  0.5601850000000  0.4998580000000 1.0
C      1  0.5224270000000  0.4759800000000  0.4616190000000 1.0
C      1  0.4232290000000  0.5120840000000  0.5018770000000 1.0
C      1  0.5556320000000  0.6315860000000  0.4992410000000 1.0
C      1  0.5274310000000  0.5540660000000  0.6203560000000 1.0
C      1  0.5762270000000  0.4959260000000  0.4656130000000 1.0
C      1  0.4746160000000  0.4392660000000  0.5520310000000 1.0
C      1  0.5824090000000  0.5655850000000  0.4760740000000 1.0
C      1  0.5288240000000  0.4307640000000  0.5944360000000 1.0
C      1  0.5096100000000  0.4495280000000  0.6073220000000 1.0
C      1  0.5944020000000  0.5022640000000  0.5372100000000 1.0
C      1  0.5797280000000  0.5493130000000  0.5884890000000 1.0
C      1  0.5802830000000  0.4342120000000  0.5252830000000 1.0
C      1  0.4801490000000  0.5917340000000  0.4311350000000 1.0
C      1  0.4961360000000  0.4640160000000  0.4150420000000 1.0
C      1  0.4145070000000  0.5797580000000  0.4846130000000 1.0
C      1  0.4919280000000  0.4856140000000  0.5560340000000 1.0
C      1  0.5336040000000  0.4216940000000  0.4673230000000 1.0
C      1  0.4636230000000  0.4930200000000  0.4367820000000 1.0
C      1  0.5177800000000  0.4130160000000  0.4449070000000 1.0
C      1  0.3961200000000  0.5614990000000  0.3982100000000 1.0
C      1  0.4955360000000  0.4688190000000  0.4613840000000 1.0
C      1  0.5451750000000  0.4652290000000  0.3511250000000 1.0
C      1  0.4399410000000  0.4935540000000  0.4569390000000 1.0
C      1  0.4754030000000  0.4124630000000  0.6044430000000 1.0
C      1  0.4552420000000  0.4078320000000  0.5846510000000 1.0
C      1  0.3838860000000  0.4845760000000  0.4831170000000 1.0
C      1  0.4979120000000  0.3956420000000  0.6041240000000 1.0
C      1  0.4619160000000  0.5286380000000  0.4846670000000 1.0
C      1  0.4515200000000  0.4661920000000  0.5818230000000 1.0
C      1  0.5191890000000  0.4042130000000  0.5874020000000 1.0
C      1  0.3531130000000  0.6212580000000  0.5431150000000 1.0
C      1  0.6290030000000  0.5091780000000  0.4638550000000 1.0
C      1  0.4935400000000  0.5681490000000  0.4694510000000 1.0
C      1  0.5639580000000  0.5443940000000  0.4735560000000 1.0
C      1  0.5601910000000  0.6747530000000  0.5288810000000 1.0
C      1  0.4960090000000  0.5385360000000  0.5789330000000 1.0
C      1  0.4056160000000  0.3903820000000  0.5959790000000 1.0
C      1  0.4731370000000  0.4821880000000  0.5110880000000 1.0
C      1  0.4434650000000  0.5670670000000  0.4049560000000 1.0
C      1  0.5624420000000  0.5295840000000  0.5987660000000 1.0
C      1  0.5402110000000  0.4952890000000  0.5493690000000 1.0
C      1  0.6225600000000  0.6016780000000  0.4458520000000 1.0
C      1  0.4001790000000  0.4624160000000  0.4733490000000 1.0
C      1  0.4376960000000  0.5714260000000  0.5625550000000 1.0
C      1  0.6340090000000  0.4702220000000  0.5016850000000 1.0
C      1  0.5409060000000  0.4557290000000  0.3965970000000 1.0
C      1  0.6332110000000  0.5582680000000  0.4265040000000 1.0
C      1  0.6348560000000  0.4878630000000  0.4814400000000 1.0
C      1  0.4557790000000  0.4766120000000  0.6278300000000 1.0
C      1  0.4424160000000  0.4247760000000  0.4399200000000 1.0
C      1  0.4211590000000  0.4722640000000  0.4570860000000 1.0
C      1  0.5104400000000  0.5122350000000  0.4883080000000 1.0
C      1  0.4915860000000  0.5092070000000  0.3678740000000 1.0
C      1  0.6046760000000  0.4756740000000  0.3991160000000 1.0
C      1  0.5312660000000  0.4408810000000  0.5130020000000 1.0
C      1  0.5537250000000  0.4413590000000  0.4636830000000 1.0
C      1  0.5966570000000  0.4585190000000  0.5624860000000 1.0
C      1  0.4103070000000  0.5372610000000  0.5128900000000 1.0
C      1  0.5335970000000  0.5423820000000  0.3664030000000 1.0
C      1  0.5254060000000  0.5740370000000  0.4343540000000 1.0
C      1  0.4715960000000  0.3932130000000  0.5408400000000 1.0
C      1  0.4440460000000  0.4470740000000  0.5022760000000 1.0
C      1  0.5972590000000  0.4051650000000  0.4887780000000 1.0
C      1  0.4528820000000  0.5483710000000  0.5675120000000 1.0
C      1  0.4460680000000  0.4718470000000  0.5159120000000 1.0
C      1  0.5208870000000  0.5619270000000  0.4610490000000 1.0
C      1  0.5071450000000  0.5098570000000  0.6506830000000 1.0
C      1  0.5035810000000  0.4010960000000  0.4981860000000 1.0
C      1  0.4249380000000  0.4715860000000  0.3925000000000 1.0
C      1  0.6085100000000  0.3838720000000  0.4788260000000 1.0
C      1  0.5193710000000  0.4717550000000  0.3463560000000 1.0
C      1  0.5212870000000  0.3901710000000  0.5624240000000 1.0
C      1  0.6209340000000  0.5346540000000  0.4741440000000 1.0
C      1  0.4610940000000  0.4457180000000  0.4796940000000 1.0
C      1  0.4743680000000  0.3719580000000  0.4725210000000 1.0
C      1  0.3838680000000  0.5088360000000  0.4642230000000 1.0
C      1  0.3965700000000  0.5121480000000  0.4374190000000 1.0
C      1  0.5352490000000  0.5347270000000  0.6015760000000 1.0
C      1  0.3769470000000  0.5342210000000  0.4759700000000 1.0
C      1  0.3943580000000  0.5789620000000  0.4667080000000 1.0
C      1  0.5579020000000  0.6533720000000  0.5141410000000 1.0
C      1  0.5462360000000  0.3820720000000  0.5529730000000 1.0
C      1  0.5222240000000  0.5348130000000  0.4997590000000 1.0
C      1  0.4783590000000  0.5404920000000  0.4330960000000 1.0
C      1  0.4763680000000  0.5148900000000  0.3917570000000 1.0
C      1  0.4775370000000  0.5667110000000  0.4463910000000 1.0
C      1  0.4329190000000  0.3995010000000  0.5073100000000 1.0
C      1  0.4242440000000  0.4888200000000  0.5171970000000 1.0
C      1  0.4398710000000  0.4488240000000  0.3899640000000 1.0
C      1  0.5589680000000  0.4605770000000  0.3753960000000 1.0
C      1  0.5708820000000  0.5227090000000  0.4575140000000 1.0
C      1  0.4735200000000  0.4648750000000  0.5633850000000 1.0
C      1  0.4790580000000  0.3879250000000  0.4941280000000 1.0
C      1  0.5139410000000  0.6006030000000  0.4398690000000 1.0
C      1  0.5666260000000  0.4803110000000  0.4433330000000 1.0
C      1  0.4559300000000  0.5549240000000  0.4946150000000 1.0
C      1  0.3812590000000  0.5378490000000  0.5038930000000 1.0
C      1  0.5520450000000  0.5504990000000  0.3480750000000 1.0
C      1  0.5324060000000  0.6097600000000  0.4623530000000 1.0
C      1  0.4252530000000  0.4729380000000  0.5736670000000 1.0
C      1  0.4602640000000  0.4312540000000  0.3939040000000 1.0
C      1  0.6245780000000  0.4551080000000  0.5218650000000 1.0
C      1  0.5541360000000  0.4464120000000  0.5300160000000 1.0
C      1  0.5854190000000  0.4671320000000  0.3824880000000 1.0
C      1  0.4862420000000  0.5178900000000  0.4744850000000 1.0
C      1  0.3775180000000  0.5584650000000  0.4613400000000 1.0
C      1  0.3332140000000  0.6378900000000  0.5376430000000 1.0
C      1  0.4396400000000  0.5123730000000  0.4790480000000 1.0
C      1  0.4002350000000  0.4846060000000  0.5318420000000 1.0
C      1  0.4702680000000  0.5822810000000  0.4050400000000 1.0
C      1  0.5955440000000  0.3655730000000  0.5456290000000 1.0
C      1  0.5167270000000  0.5208170000000  0.5845750000000 1.0
C      1  0.3727450000000  0.6042310000000  0.5482890000000 1.0
C      1  0.4778490000000  0.5407410000000  0.5583920000000 1.0
C      1  0.4088360000000  0.4913150000000  0.5592630000000 1.0
C      1  0.3600030000000  0.5422320000000  0.5214370000000 1.0
C      1  0.5535000000000  0.6075770000000  0.4840420000000 1.0
C      1  0.5917550000000  0.5579530000000  0.5387990000000 1.0
C      1  0.5477470000000  0.5220770000000  0.5434500000000 1.0
C      1  0.5180160000000  0.4768590000000  0.6152730000000 1.0
C      1  0.6297300000000  0.5076200000000  0.4348970000000 1.0
C      1  0.5001490000000  0.4122130000000  0.4242780000000 1.0
C      1  0.5450480000000  0.5479680000000  0.5455540000000 1.0
C      1  0.3136090000000  0.6542040000000  0.5322470000000 1.0
C      1  0.5817630000000  0.5782960000000  0.5204300000000 1.0
C      1  0.4196360000000  0.5488540000000  0.4067870000000 1.0
C      1  0.4829180000000  0.5390200000000  0.4048460000000 1.0
C      1  0.5058050000000  0.5452610000000  0.5205320000000 1.0
C      1  0.5218180000000  0.4673830000000  0.5070280000000 1.0
C      1  0.4162710000000  0.5189780000000  0.5634420000000 1.0
C      1  0.3517360000000  0.4793680000000  0.5213960000000 1.0
C      1  0.5370730000000  0.5490160000000  0.4801470000000 1.0
C      1  0.4791050000000  0.5719120000000  0.4935240000000 1.0
C      1  0.5135550000000  0.5339270000000  0.6603710000000 1.0
C      1  0.4588540000000  0.4572370000000  0.6080780000000 1.0
C      1  0.5373270000000  0.5457790000000  0.3945060000000 1.0
C      1  0.4011930000000  0.4357400000000  0.4839210000000 1.0
C      1  0.5093670000000  0.5297970000000  0.3592750000000 1.0
C      1  0.4634880000000  0.4140420000000  0.5579920000000 1.0
C      1  0.5686010000000  0.5018650000000  0.6010800000000 1.0
C      1  0.5448500000000  0.4641030000000  0.4497140000000 1.0
C      1  0.4985660000000  0.4963010000000  0.6273570000000 1.0
C      1  0.4116510000000  0.5669560000000  0.5527020000000 1.0
C      1  0.6188980000000  0.4871910000000  0.4187360000000 1.0
C      1  0.4590280000000  0.4433290000000  0.4507900000000 1.0
C      1  0.5213790000000  0.4732250000000  0.4067930000000 1.0
C      1  0.4699420000000  0.5003100000000  0.6211520000000 1.0
C      1  0.5728320000000  0.5863040000000  0.4935390000000 1.0
C      1  0.5557230000000  0.4754220000000  0.5348680000000 1.0
C      1  0.4929910000000  0.5647810000000  0.3968710000000 1.0
C      1  0.4297900000000  0.4981090000000  0.4022210000000 1.0
C      1  0.5651140000000  0.5262050000000  0.4298920000000 1.0
C      1  0.5226600000000  0.5817620000000  0.6600960000000 1.0
C      1  0.3914750000000  0.5858760000000  0.5520090000000 1.0
C      1  0.6367310000000  0.5320090000000  0.4222080000000 1.0
C      1  0.5453380000000  0.5235130000000  0.4102620000000 1.0
C      1  0.6091330000000  0.5599430000000  0.4677570000000 1.0
C      1  0.5560190000000  0.4369670000000  0.5901810000000 1.0
C      1  0.3389180000000  0.5454930000000  0.5364040000000 1.0
C      1  0.4094640000000  0.5396270000000  0.5434780000000 1.0
C      1  0.5774470000000  0.4874060000000  0.5178780000000 1.0
C      1  0.4871410000000  0.5283290000000  0.5344040000000 1.0
C      1  0.5296010000000  0.5001300000000  0.4091860000000 1.0
C      1  0.4815420000000  0.4399650000000  0.6098850000000 1.0
C      1  0.4130770000000  0.4141250000000  0.4956200000000 1.0
C      1  0.5974540000000  0.4874580000000  0.5632750000000 1.0
C      1  0.5241750000000  0.4878790000000  0.4877840000000 1.0
C      1  0.6030980000000  0.4459880000000  0.5381380000000 1.0
C      1  0.4975100000000  0.3834580000000  0.5479860000000 1.0
C      1  0.4596020000000  0.3917250000000  0.5147030000000 1.0
C      1  0.6216540000000  0.5744480000000  0.4465430000000 1.0
C      1  0.4956420000000  0.5712870000000  0.5161580000000 1.0
C      1  0.5239440000000  0.4198320000000  0.4945090000000 1.0
C      1  0.5849540000000  0.4281360000000  0.4981470000000 1.0
C      1  0.4808520000000  0.4181050000000  0.4060010000000 1.0
C      1  0.4390390000000  0.5267460000000  0.5808880000000 1.0
C      1  0.4146190000000  0.5199310000000  0.4150480000000 1.0
C      1  0.5893710000000  0.5620950000000  0.5668830000000 1.0
C      1  0.4974340000000  0.4844220000000  0.3556570000000 1.0
C      1  0.5750860000000  0.4490140000000  0.4818290000000 1.0
C      1  0.4841200000000  0.4995430000000  0.5315550000000 1.0
C      1  0.4813000000000  0.5158370000000  0.4466490000000 1.0
C      1  0.5797990000000  0.4448960000000  0.5807960000000 1.0
C      1  0.4298880000000  0.3983210000000  0.5907910000000 1.0
C      1  0.4772320000000  0.4654220000000  0.4380540000000 1.0
C      1  0.5212770000000  0.5576840000000  0.6475090000000 1.0
C      1  0.5983460000000  0.5304200000000  0.5326380000000 1.0
C      1  0.6167930000000  0.4993740000000  0.6060950000000 1.0
C      1  0.5945600000000  0.4963890000000  0.5903380000000 1.0
END
