TITL C-627108-131-1152 1.03305111919679 125000 -1205.76685360737 0 0 198 (C1) n - 1
REM
REM in /home/nfs/bkarasulu/CARBON/AIRSS/Generating-Clusters/LCBOP/Only-C1/SD-CG/FIRE-CG
REM
REM
REM
REM
REM
REM ./C.cell (11c1c37f851c82e70ff6c80c92926a4b)
REM AIRSS Version 0.9.1 bugfix July 2018 build 013d7b7c2542+ Fri, 06 Jul 2018 19:26:36 +0100
REM compiler GCC version 9.2.1 20190827 (Red Hat 9.2.1-1)
REM options -cpp -mtune=generic -march=x86-64 -g -O0 -fpre-include=/usr/include/finclude/math-vector-fortran.h
REM seed 704562317 -1851242897 1195716695 -1952756837 1524259759 -644128976 1459065488 355065909 1472563659 1190612458 1570224771 -980193217 -1858775277 -1543077721 -2131337398 2147095083 1974200291 1953190695 901818691 607380157 -1790139881 -1623589246 1067385017 -1746656939 308740438 -579394410 1591200176 900732519 -187822041 1012100683 -972892255 1139848851 1102146218
REM
CELL 1.54180   50.00000   50.00000   50.00000   90.00000   90.00000   90.00000
LATT -1
SFAC C  
C      1  0.5716690000000  0.4567900000000  0.5271140000000 1.0
C      1  0.5328550000000  0.4698160000000  0.4250480000000 1.0
C      1  0.5101480000000  0.5175650000000  0.4159660000000 1.0
C      1  0.5158990000000  0.4235480000000  0.4835390000000 1.0
C      1  0.5171240000000  0.4470800000000  0.4349090000000 1.0
C      1  0.4908860000000  0.3886380000000  0.5342460000000 1.0
C      1  0.4561000000000  0.5548670000000  0.4121540000000 1.0
C      1  0.5674360000000  0.5899710000000  0.4330700000000 1.0
C      1  0.4423470000000  0.3857560000000  0.5524490000000 1.0
C      1  0.4350890000000  0.4312230000000  0.5539630000000 1.0
C      1  0.4985680000000  0.5522360000000  0.6105560000000 1.0
C      1  0.4908310000000  0.5175280000000  0.4382360000000 1.0
C      1  0.6207660000000  0.4460120000000  0.4885220000000 1.0
C      1  0.5143870000000  0.4259620000000  0.4130360000000 1.0
C      1  0.3991200000000  0.5358680000000  0.4618390000000 1.0
C      1  0.5839720000000  0.5146070000000  0.4072090000000 1.0
C      1  0.5046420000000  0.6052830000000  0.5584980000000 1.0
C      1  0.4447390000000  0.3784720000000  0.4977970000000 1.0
C      1  0.5486920000000  0.4977740000000  0.5970800000000 1.0
C      1  0.5112530000000  0.5711240000000  0.4814100000000 1.0
C      1  0.5005380000000  0.4048580000000  0.5830120000000 1.0
C      1  0.4791330000000  0.4894220000000  0.5808550000000 1.0
C      1  0.5520320000000  0.3763480000000  0.4869030000000 1.0
C      1  0.4027120000000  0.4856540000000  0.5370440000000 1.0
C      1  0.6264940000000  0.4991860000000  0.5678020000000 1.0
C      1  0.4830650000000  0.5663600000000  0.3460010000000 1.0
C      1  0.4477470000000  0.5120740000000  0.5398500000000 1.0
C      1  0.4758350000000  0.5088650000000  0.5374260000000 1.0
C      1  0.6083920000000  0.4304800000000  0.5071770000000 1.0
C      1  0.4393520000000  0.5617220000000  0.4895370000000 1.0
C      1  0.6004240000000  0.4927140000000  0.5763650000000 1.0
C      1  0.5383530000000  0.6346800000000  0.5037330000000 1.0
C      1  0.4601330000000  0.6049790000000  0.4763850000000 1.0
C      1  0.5947840000000  0.5111050000000  0.6205040000000 1.0
C      1  0.6144970000000  0.5249580000000  0.4477080000000 1.0
C      1  0.4550050000000  0.5856060000000  0.4546330000000 1.0
C      1  0.5142020000000  0.6282870000000  0.4894090000000 1.0
C      1  0.5950880000000  0.6038900000000  0.5340160000000 1.0
C      1  0.5571710000000  0.6338920000000  0.5458000000000 1.0
C      1  0.4184540000000  0.4572690000000  0.4337460000000 1.0
C      1  0.5393080000000  0.4293890000000  0.3996490000000 1.0
C      1  0.4645630000000  0.4523530000000  0.5115950000000 1.0
C      1  0.3826000000000  0.4600030000000  0.4699650000000 1.0
C      1  0.4700740000000  0.5563620000000  0.5443420000000 1.0
C      1  0.5464040000000  0.3929860000000  0.4343510000000 1.0
C      1  0.4733630000000  0.5683850000000  0.4347310000000 1.0
C      1  0.3983300000000  0.5329860000000  0.5405120000000 1.0
C      1  0.4679380000000  0.5090650000000  0.3886930000000 1.0
C      1  0.4861510000000  0.4847380000000  0.6079570000000 1.0
C      1  0.4926690000000  0.6211380000000  0.5102180000000 1.0
C      1  0.5595500000000  0.4155670000000  0.4164550000000 1.0
C      1  0.4953550000000  0.4886650000000  0.4460830000000 1.0
C      1  0.4324690000000  0.4890490000000  0.5315830000000 1.0
C      1  0.5800850000000  0.5032900000000  0.5586520000000 1.0
C      1  0.5371750000000  0.4056490000000  0.6114760000000 1.0
C      1  0.5222220000000  0.3897440000000  0.5946230000000 1.0
C      1  0.5790480000000  0.5292720000000  0.4833310000000 1.0
C      1  0.4975460000000  0.4287540000000  0.6015980000000 1.0
C      1  0.4262380000000  0.4099410000000  0.4642920000000 1.0
C      1  0.5373500000000  0.5188350000000  0.4556700000000 1.0
C      1  0.4678160000000  0.4375610000000  0.4873410000000 1.0
C      1  0.4516110000000  0.4501540000000  0.4660380000000 1.0
C      1  0.4507240000000  0.4910680000000  0.4887660000000 1.0
C      1  0.4875700000000  0.4763580000000  0.4180710000000 1.0
C      1  0.6210970000000  0.5356640000000  0.5334230000000 1.0
C      1  0.3907540000000  0.5109660000000  0.5226220000000 1.0
C      1  0.5837690000000  0.5358310000000  0.6206900000000 1.0
C      1  0.4869100000000  0.3945510000000  0.5079470000000 1.0
C      1  0.4964920000000  0.4983370000000  0.3958510000000 1.0
C      1  0.5912860000000  0.4875980000000  0.6041380000000 1.0
C      1  0.3881340000000  0.4642140000000  0.5218240000000 1.0
C      1  0.5713270000000  0.5406150000000  0.4074000000000 1.0
C      1  0.4424320000000  0.4817350000000  0.6216030000000 1.0
C      1  0.4913590000000  0.3876830000000  0.4320600000000 1.0
C      1  0.5746770000000  0.4887650000000  0.3967540000000 1.0
C      1  0.5982070000000  0.5777180000000  0.5317360000000 1.0
C      1  0.4414930000000  0.4085390000000  0.5712190000000 1.0
C      1  0.4434450000000  0.4918190000000  0.3922720000000 1.0
C      1  0.4311180000000  0.4355660000000  0.4515700000000 1.0
C      1  0.5472580000000  0.4534920000000  0.6136940000000 1.0
C      1  0.5664580000000  0.5547590000000  0.6126370000000 1.0
C      1  0.5178040000000  0.6179760000000  0.4632850000000 1.0
C      1  0.5605450000000  0.4850780000000  0.4702450000000 1.0
C      1  0.5762450000000  0.6095460000000  0.4799720000000 1.0
C      1  0.5318110000000  0.6360510000000  0.5328610000000 1.0
C      1  0.5044550000000  0.6095090000000  0.4186230000000 1.0
C      1  0.5125280000000  0.5202490000000  0.5626400000000 1.0
C      1  0.5828440000000  0.4774890000000  0.4859510000000 1.0
C      1  0.5405380000000  0.4072190000000  0.5279190000000 1.0
C      1  0.5617320000000  0.5132150000000  0.4674860000000 1.0
C      1  0.3802500000000  0.4718970000000  0.4955550000000 1.0
C      1  0.4862770000000  0.5620710000000  0.5205060000000 1.0
C      1  0.5787320000000  0.5059660000000  0.5293370000000 1.0
C      1  0.4923920000000  0.4429230000000  0.4486100000000 1.0
C      1  0.4656100000000  0.5386880000000  0.3896500000000 1.0
C      1  0.4891380000000  0.4119880000000  0.4166580000000 1.0
C      1  0.4883920000000  0.5076040000000  0.5620830000000 1.0
C      1  0.5066420000000  0.6226160000000  0.5364760000000 1.0
C      1  0.3966740000000  0.4886070000000  0.5656200000000 1.0
C      1  0.4666800000000  0.4656970000000  0.6181540000000 1.0
C      1  0.4653780000000  0.6105660000000  0.5055650000000 1.0
C      1  0.5860150000000  0.4627290000000  0.4085000000000 1.0
C      1  0.6075240000000  0.4668030000000  0.4770680000000 1.0
C      1  0.5212390000000  0.4931030000000  0.3773770000000 1.0
C      1  0.4054640000000  0.4179560000000  0.5111030000000 1.0
C      1  0.4351300000000  0.5675730000000  0.4627480000000 1.0
C      1  0.4482070000000  0.4789260000000  0.4642710000000 1.0
C      1  0.5655180000000  0.6248730000000  0.5007930000000 1.0
C      1  0.4156370000000  0.5571360000000  0.5030740000000 1.0
C      1  0.5426010000000  0.4178940000000  0.4745830000000 1.0
C      1  0.5805540000000  0.4342420000000  0.5115690000000 1.0
C      1  0.5736660000000  0.5350490000000  0.5139970000000 1.0
C      1  0.4281040000000  0.5529210000000  0.4194350000000 1.0
C      1  0.3977450000000  0.4746410000000  0.4505410000000 1.0
C      1  0.3856870000000  0.5010520000000  0.4943690000000 1.0
C      1  0.5771000000000  0.6239120000000  0.5276850000000 1.0
C      1  0.5980570000000  0.5506320000000  0.5259860000000 1.0
C      1  0.4926740000000  0.5803810000000  0.3262360000000 1.0
C      1  0.5026000000000  0.5471110000000  0.4698980000000 1.0
C      1  0.5638630000000  0.4760620000000  0.6077030000000 1.0
C      1  0.5514290000000  0.6126300000000  0.4262650000000 1.0
C      1  0.4763040000000  0.4464350000000  0.5363620000000 1.0
C      1  0.5238800000000  0.4783580000000  0.4666620000000 1.0
C      1  0.4180050000000  0.4860990000000  0.6068140000000 1.0
C      1  0.5641590000000  0.4290030000000  0.4889900000000 1.0
C      1  0.5685150000000  0.5656030000000  0.4179690000000 1.0
C      1  0.4158520000000  0.4271030000000  0.5340030000000 1.0
C      1  0.5268170000000  0.4332690000000  0.6122350000000 1.0
C      1  0.4736060000000  0.5525950000000  0.3665630000000 1.0
C      1  0.3937410000000  0.5511640000000  0.4860640000000 1.0
C      1  0.5041310000000  0.5295400000000  0.6257230000000 1.0
C      1  0.4413350000000  0.4665920000000  0.4085400000000 1.0
C      1  0.5268900000000  0.4354250000000  0.5302340000000 1.0
C      1  0.4209130000000  0.5083630000000  0.4280280000000 1.0
C      1  0.4732450000000  0.4329070000000  0.4282130000000 1.0
C      1  0.5001520000000  0.4330770000000  0.5439870000000 1.0
C      1  0.5195420000000  0.4700550000000  0.4923680000000 1.0
C      1  0.6041230000000  0.5337980000000  0.4709510000000 1.0
C      1  0.5553180000000  0.5067020000000  0.5714440000000 1.0
C      1  0.4194810000000  0.5672590000000  0.5682850000000 1.0
C      1  0.4588370000000  0.4722920000000  0.5716190000000 1.0
C      1  0.4555940000000  0.4503900000000  0.5553830000000 1.0
C      1  0.5194290000000  0.4445400000000  0.5022110000000 1.0
C      1  0.4464960000000  0.6013160000000  0.5296400000000 1.0
C      1  0.5232800000000  0.4903770000000  0.5108550000000 1.0
C      1  0.5029620000000  0.5817390000000  0.5735650000000 1.0
C      1  0.5342050000000  0.5057710000000  0.5542800000000 1.0
C      1  0.4961530000000  0.4069280000000  0.5553020000000 1.0
C      1  0.4449480000000  0.5407990000000  0.5391890000000 1.0
C      1  0.4384310000000  0.4969420000000  0.4450810000000 1.0
C      1  0.5786230000000  0.5931120000000  0.4588840000000 1.0
C      1  0.3945230000000  0.5075480000000  0.4663670000000 1.0
C      1  0.6331400000000  0.5177160000000  0.5493150000000 1.0
C      1  0.5197120000000  0.3800660000000  0.4300050000000 1.0
C      1  0.5325590000000  0.5049810000000  0.4297770000000 1.0
C      1  0.4692540000000  0.3830020000000  0.4511520000000 1.0
C      1  0.5330620000000  0.4843290000000  0.5362900000000 1.0
C      1  0.4883540000000  0.4155550000000  0.4884850000000 1.0
C      1  0.4943140000000  0.6178220000000  0.3949650000000 1.0
C      1  0.4669850000000  0.4566630000000  0.4143680000000 1.0
C      1  0.4453010000000  0.4224930000000  0.5979920000000 1.0
C      1  0.5115930000000  0.5137380000000  0.5019720000000 1.0
C      1  0.4853130000000  0.5155680000000  0.5115320000000 1.0
C      1  0.4079360000000  0.5051230000000  0.5858720000000 1.0
C      1  0.4850980000000  0.5428940000000  0.4487320000000 1.0
C      1  0.4072430000000  0.4587530000000  0.6059780000000 1.0
C      1  0.4420270000000  0.3784760000000  0.5255010000000 1.0
C      1  0.4195020000000  0.5479500000000  0.5284490000000 1.0
C      1  0.4701060000000  0.4375430000000  0.6079830000000 1.0
C      1  0.4742870000000  0.5531590000000  0.5949980000000 1.0
C      1  0.4656490000000  0.5623750000000  0.4997510000000 1.0
C      1  0.5495830000000  0.3928770000000  0.4631700000000 1.0
C      1  0.5799710000000  0.4814790000000  0.5145100000000 1.0
C      1  0.5417040000000  0.4584970000000  0.3987390000000 1.0
C      1  0.4463420000000  0.4747260000000  0.5111430000000 1.0
C      1  0.4204400000000  0.4348660000000  0.6067590000000 1.0
C      1  0.4208710000000  0.5067700000000  0.4010920000000 1.0
C      1  0.5481590000000  0.4825640000000  0.3841010000000 1.0
C      1  0.5175410000000  0.5699620000000  0.5965400000000 1.0
C      1  0.4654010000000  0.5141070000000  0.4919290000000 1.0
C      1  0.4318240000000  0.5878540000000  0.5509130000000 1.0
C      1  0.5476920000000  0.3856320000000  0.5126110000000 1.0
C      1  0.4999230000000  0.5031920000000  0.6236180000000 1.0
C      1  0.4972740000000  0.5867690000000  0.4346850000000 1.0
C      1  0.4786970000000  0.5654270000000  0.5694970000000 1.0
C      1  0.5427750000000  0.5522140000000  0.5168100000000 1.0
C      1  0.5814500000000  0.4362180000000  0.4169370000000 1.0
C      1  0.5452770000000  0.4580880000000  0.5384710000000 1.0
C      1  0.4468380000000  0.3889780000000  0.4697220000000 1.0
C      1  0.4183170000000  0.5516980000000  0.4460610000000 1.0
C      1  0.6068970000000  0.5143730000000  0.4241810000000 1.0
C      1  0.5155340000000  0.5648200000000  0.5102880000000 1.0
C      1  0.5258900000000  0.6220610000000  0.4347020000000 1.0
C      1  0.5089540000000  0.5907960000000  0.4617320000000 1.0
C      1  0.5182060000000  0.5251910000000  0.4764020000000 1.0
C      1  0.5448510000000  0.5672630000000  0.6026970000000 1.0
C      1  0.4061100000000  0.5367610000000  0.5702340000000 1.0
C      1  0.4067610000000  0.4112980000000  0.4851510000000 1.0
END
