TITL C-627106-156-730 -570503.539557065 125000 -1224.29046361641 0 0 200 (C1) n - 1
REM
REM in /home/nfs/bkarasulu/CARBON/AIRSS/Generating-Clusters/LCBOP/Only-C1/SD-CG/FIRE-CG
REM
REM
REM
REM
REM
REM ./C.cell (11c1c37f851c82e70ff6c80c92926a4b)
REM AIRSS Version 0.9.1 bugfix July 2018 build 013d7b7c2542+ Fri, 06 Jul 2018 19:26:36 +0100
REM compiler GCC version 9.2.1 20190827 (Red Hat 9.2.1-1)
REM options -cpp -mtune=generic -march=x86-64 -g -O0 -fpre-include=/usr/include/finclude/math-vector-fortran.h
REM seed -1522305767 1766118763 1237668944 -824314818 1764649865 193304201 176803503 -1876949550 -1754359515 -1549170900 -1502762395 1120177441 -2023422465 1585000751 -1385790854 -1791653419 -10391904 -181591502 314221115 1846067976 1954387987 -618322833 -2136443550 -220743647 -2060707604 1818694810 295219152 2031013393 131674149 1379762084 1407979249 2043250486 -942280814
REM
CELL 1.54180   50.00000   50.00000   50.00000   90.00000   90.00000   90.00000
LATT -1
SFAC C  
C      1  0.4635050000000  0.5762160000000  0.6789770000000 1.0
C      1  0.4565320000000  0.4833680000000  0.5556640000000 1.0
C      1  0.5740240000000  0.5879800000000  0.4776250000000 1.0
C      1  0.5885710000000  0.5663030000000  0.4871860000000 1.0
C      1  0.4283810000000  0.4250400000000  0.4459540000000 1.0
C      1  0.4464640000000  0.5065430000000  0.5696810000000 1.0
C      1  0.5756380000000  0.4779640000000  0.4652980000000 1.0
C      1  0.5496650000000  0.5861430000000  0.6163890000000 1.0
C      1  0.5955370000000  0.5367480000000  0.5227350000000 1.0
C      1  0.4910420000000  0.6221870000000  0.5079480000000 1.0
C      1  0.4368640000000  0.5600250000000  0.4516910000000 1.0
C      1  0.5861160000000  0.5338260000000  0.4722990000000 1.0
C      1  0.4820050000000  0.4400130000000  0.4351340000000 1.0
C      1  0.5194870000000  0.5313950000000  0.6487310000000 1.0
C      1  0.5239310000000  0.5389480000000  0.5653120000000 1.0
C      1  0.4886550000000  0.5227640000000  0.4327170000000 1.0
C      1  0.4266510000000  0.3967220000000  0.5752830000000 1.0
C      1  0.4608380000000  0.3944540000000  0.4732990000000 1.0
C      1  0.5735720000000  0.4805720000000  0.5542320000000 1.0
C      1  0.5171980000000  0.3678480000000  0.4987260000000 1.0
C      1  0.5536950000000  0.4864180000000  0.5998010000000 1.0
C      1  0.6181390000000  0.5208020000000  0.3925250000000 1.0
C      1  0.5185080000000  0.5299500000000  0.3914630000000 1.0
C      1  0.4991520000000  0.5937090000000  0.4132990000000 1.0
C      1  0.4128680000000  0.5495750000000  0.5651910000000 1.0
C      1  0.5623190000000  0.4576350000000  0.6079420000000 1.0
C      1  0.4975430000000  0.4975550000000  0.5021170000000 1.0
C      1  0.6362950000000  0.4485990000000  0.5192830000000 1.0
C      1  0.3681670000000  0.4906440000000  0.4959090000000 1.0
C      1  0.3945780000000  0.4632830000000  0.4474020000000 1.0
C      1  0.4203210000000  0.4459160000000  0.4279180000000 1.0
C      1  0.5632860000000  0.4519970000000  0.3955650000000 1.0
C      1  0.4163860000000  0.4575100000000  0.5954820000000 1.0
C      1  0.4749490000000  0.5521660000000  0.3888360000000 1.0
C      1  0.5251770000000  0.5993820000000  0.6220660000000 1.0
C      1  0.5632570000000  0.4544560000000  0.5557000000000 1.0
C      1  0.4027150000000  0.5458270000000  0.4230250000000 1.0
C      1  0.5384660000000  0.4124340000000  0.5893730000000 1.0
C      1  0.5288110000000  0.4543870000000  0.5235260000000 1.0
C      1  0.3680070000000  0.5396580000000  0.5094500000000 1.0
C      1  0.4390890000000  0.5537420000000  0.5538640000000 1.0
C      1  0.4667500000000  0.4676760000000  0.4790980000000 1.0
C      1  0.4757880000000  0.4471010000000  0.5988340000000 1.0
C      1  0.4312250000000  0.4879930000000  0.4141980000000 1.0
C      1  0.4810450000000  0.5418360000000  0.5097840000000 1.0
C      1  0.5243020000000  0.3721550000000  0.5243080000000 1.0
C      1  0.5363170000000  0.5988780000000  0.4432100000000 1.0
C      1  0.5002040000000  0.4772650000000  0.4118960000000 1.0
C      1  0.4117920000000  0.4281160000000  0.4702050000000 1.0
C      1  0.4300490000000  0.4222160000000  0.5650770000000 1.0
C      1  0.5537420000000  0.5139640000000  0.6152090000000 1.0
C      1  0.5270920000000  0.5145170000000  0.6280600000000 1.0
C      1  0.5040160000000  0.4514720000000  0.3739770000000 1.0
C      1  0.6324880000000  0.4153860000000  0.4586820000000 1.0
C      1  0.5531390000000  0.4950530000000  0.4153460000000 1.0
C      1  0.4542860000000  0.5584060000000  0.4736260000000 1.0
C      1  0.6095060000000  0.5168060000000  0.5075120000000 1.0
C      1  0.5539250000000  0.5889930000000  0.5322760000000 1.0
C      1  0.5707730000000  0.5140630000000  0.4017840000000 1.0
C      1  0.4056560000000  0.4025370000000  0.5160630000000 1.0
C      1  0.4094660000000  0.5531700000000  0.4496050000000 1.0
C      1  0.5472470000000  0.5620160000000  0.6010980000000 1.0
C      1  0.4235070000000  0.5989970000000  0.4817220000000 1.0
C      1  0.3792100000000  0.5350830000000  0.4835590000000 1.0
C      1  0.4312430000000  0.3942350000000  0.5129310000000 1.0
C      1  0.4847810000000  0.5622640000000  0.6733060000000 1.0
C      1  0.5221390000000  0.5530530000000  0.5400410000000 1.0
C      1  0.4563810000000  0.4858470000000  0.4590360000000 1.0
C      1  0.5402150000000  0.6106240000000  0.5231410000000 1.0
C      1  0.5157710000000  0.6084170000000  0.5093600000000 1.0
C      1  0.4615500000000  0.6165970000000  0.4365990000000 1.0
C      1  0.4352710000000  0.4603470000000  0.4075750000000 1.0
C      1  0.4569740000000  0.4581950000000  0.3867830000000 1.0
C      1  0.4296830000000  0.4384560000000  0.4905150000000 1.0
C      1  0.5038500000000  0.4513050000000  0.5102090000000 1.0
C      1  0.5291320000000  0.5507880000000  0.4630960000000 1.0
C      1  0.5024920000000  0.5591790000000  0.5194790000000 1.0
C      1  0.5325710000000  0.5020510000000  0.5376260000000 1.0
C      1  0.5675210000000  0.5420050000000  0.5991960000000 1.0
C      1  0.4919130000000  0.5302980000000  0.3783710000000 1.0
C      1  0.4214610000000  0.5353380000000  0.4035520000000 1.0
C      1  0.3820210000000  0.4703710000000  0.5095740000000 1.0
C      1  0.5077880000000  0.6045260000000  0.4392330000000 1.0
C      1  0.6079980000000  0.4970710000000  0.4341560000000 1.0
C      1  0.5204260000000  0.4030550000000  0.5682240000000 1.0
C      1  0.5169330000000  0.4609450000000  0.5746100000000 1.0
C      1  0.4966140000000  0.4187850000000  0.5636740000000 1.0
C      1  0.5360260000000  0.5370380000000  0.4374050000000 1.0
C      1  0.4766100000000  0.4180840000000  0.5429210000000 1.0
C      1  0.4870750000000  0.4718360000000  0.4991100000000 1.0
C      1  0.4997140000000  0.4003230000000  0.4099500000000 1.0
C      1  0.5700620000000  0.5087080000000  0.4624060000000 1.0
C      1  0.4244730000000  0.3723630000000  0.5842790000000 1.0
C      1  0.4065660000000  0.5774080000000  0.4908270000000 1.0
C      1  0.4788660000000  0.4390180000000  0.3823120000000 1.0
C      1  0.5189210000000  0.4219970000000  0.4756780000000 1.0
C      1  0.5179680000000  0.3980740000000  0.4600120000000 1.0
C      1  0.4827330000000  0.4133780000000  0.3935870000000 1.0
C      1  0.5529110000000  0.5368320000000  0.3948260000000 1.0
C      1  0.4205020000000  0.5012480000000  0.5147920000000 1.0
C      1  0.5222870000000  0.5551660000000  0.5882050000000 1.0
C      1  0.5512770000000  0.5549070000000  0.4176390000000 1.0
C      1  0.4361300000000  0.4755930000000  0.6056420000000 1.0
C      1  0.5119870000000  0.5296750000000  0.4194500000000 1.0
C      1  0.5344520000000  0.4547940000000  0.5514860000000 1.0
C      1  0.4550900000000  0.4195270000000  0.4590850000000 1.0
C      1  0.4903540000000  0.5272090000000  0.4599480000000 1.0
C      1  0.3801300000000  0.4447260000000  0.4971640000000 1.0
C      1  0.3859340000000  0.4206710000000  0.5117170000000 1.0
C      1  0.5151620000000  0.3981630000000  0.4318390000000 1.0
C      1  0.6146570000000  0.5362360000000  0.5892880000000 1.0
C      1  0.5010530000000  0.5911790000000  0.6127210000000 1.0
C      1  0.5064410000000  0.3757090000000  0.4737690000000 1.0
C      1  0.5994810000000  0.4474790000000  0.4314850000000 1.0
C      1  0.4573950000000  0.3973520000000  0.5020710000000 1.0
C      1  0.6230330000000  0.5102120000000  0.4552660000000 1.0
C      1  0.3882300000000  0.4909290000000  0.4528590000000 1.0
C      1  0.5978910000000  0.5706410000000  0.5546780000000 1.0
C      1  0.5447730000000  0.4726700000000  0.3990670000000 1.0
C      1  0.4800180000000  0.4102810000000  0.5150600000000 1.0
C      1  0.5533040000000  0.5028320000000  0.5179150000000 1.0
C      1  0.4735300000000  0.6154410000000  0.5304500000000 1.0
C      1  0.5044260000000  0.5472370000000  0.6637270000000 1.0
C      1  0.5482800000000  0.5824620000000  0.4224990000000 1.0
C      1  0.5435490000000  0.5425030000000  0.4859240000000 1.0
C      1  0.4164830000000  0.4620770000000  0.5453220000000 1.0
C      1  0.6221810000000  0.4709820000000  0.5207880000000 1.0
C      1  0.4489030000000  0.6057340000000  0.4933090000000 1.0
C      1  0.4125690000000  0.5719110000000  0.5179260000000 1.0
C      1  0.4753340000000  0.6176160000000  0.4828610000000 1.0
C      1  0.5088410000000  0.4952050000000  0.6159720000000 1.0
C      1  0.5757290000000  0.4337310000000  0.5700110000000 1.0
C      1  0.4800070000000  0.5701020000000  0.4691960000000 1.0
C      1  0.5097000000000  0.5813380000000  0.5042400000000 1.0
C      1  0.6443450000000  0.4268420000000  0.5063160000000 1.0
C      1  0.6429160000000  0.4138940000000  0.4831030000000 1.0
C      1  0.4511580000000  0.5452000000000  0.4075660000000 1.0
C      1  0.6121030000000  0.5215090000000  0.4790520000000 1.0
C      1  0.5418700000000  0.5164330000000  0.4962910000000 1.0
C      1  0.4822720000000  0.4877980000000  0.6220020000000 1.0
C      1  0.4816070000000  0.5211500000000  0.5479890000000 1.0
C      1  0.5914760000000  0.5491840000000  0.5822100000000 1.0
C      1  0.4490940000000  0.5966940000000  0.4232740000000 1.0
C      1  0.4788400000000  0.3735600000000  0.4671380000000 1.0
C      1  0.4520610000000  0.5978130000000  0.5226040000000 1.0
C      1  0.5736750000000  0.5959260000000  0.6248530000000 1.0
C      1  0.4984020000000  0.4613820000000  0.4346200000000 1.0
C      1  0.3883920000000  0.4442380000000  0.4689330000000 1.0
C      1  0.3954780000000  0.5564380000000  0.4737220000000 1.0
C      1  0.4841230000000  0.6156860000000  0.4546810000000 1.0
C      1  0.5578660000000  0.4574570000000  0.4784160000000 1.0
C      1  0.4633830000000  0.4685480000000  0.6123830000000 1.0
C      1  0.6034840000000  0.4911390000000  0.5172730000000 1.0
C      1  0.3878410000000  0.5443320000000  0.5569460000000 1.0
C      1  0.5972550000000  0.4188440000000  0.5631580000000 1.0
C      1  0.4525980000000  0.4322010000000  0.5493120000000 1.0
C      1  0.6174490000000  0.4286170000000  0.4412910000000 1.0
C      1  0.5772730000000  0.4902050000000  0.5277830000000 1.0
C      1  0.4882340000000  0.5769230000000  0.3952190000000 1.0
C      1  0.5176820000000  0.4694850000000  0.3912490000000 1.0
C      1  0.5521670000000  0.4546730000000  0.5063210000000 1.0
C      1  0.4371410000000  0.5750240000000  0.5330080000000 1.0
C      1  0.4993600000000  0.5693550000000  0.5966880000000 1.0
C      1  0.5496060000000  0.5609750000000  0.5342930000000 1.0
C      1  0.5013050000000  0.5524740000000  0.4664600000000 1.0
C      1  0.6018320000000  0.5637850000000  0.5201160000000 1.0
C      1  0.5338490000000  0.4456020000000  0.4658650000000 1.0
C      1  0.5375400000000  0.5138400000000  0.5627120000000 1.0
C      1  0.3715060000000  0.5412580000000  0.5359500000000 1.0
C      1  0.4633830000000  0.4839330000000  0.3737780000000 1.0
C      1  0.4957170000000  0.4424460000000  0.5796730000000 1.0
C      1  0.4051620000000  0.4784680000000  0.5248230000000 1.0
C      1  0.5265600000000  0.3837380000000  0.5484650000000 1.0
C      1  0.5600540000000  0.4977080000000  0.5727660000000 1.0
C      1  0.4568860000000  0.5309260000000  0.5589170000000 1.0
C      1  0.4122250000000  0.4454010000000  0.5698670000000 1.0
C      1  0.5006590000000  0.4249220000000  0.4993850000000 1.0
C      1  0.4549920000000  0.5412760000000  0.4964600000000 1.0
C      1  0.5200950000000  0.5021920000000  0.4852580000000 1.0
C      1  0.5599500000000  0.4314260000000  0.5941170000000 1.0
C      1  0.5534950000000  0.6008190000000  0.4656350000000 1.0
C      1  0.4485810000000  0.4983340000000  0.4342120000000 1.0
C      1  0.4874830000000  0.5161920000000  0.5207400000000 1.0
C      1  0.4627190000000  0.5208160000000  0.4239760000000 1.0
C      1  0.3779160000000  0.5072220000000  0.4747140000000 1.0
C      1  0.5842340000000  0.4419980000000  0.4086390000000 1.0
C      1  0.5683620000000  0.5392070000000  0.5329600000000 1.0
C      1  0.4356510000000  0.5211900000000  0.5040470000000 1.0
C      1  0.5460680000000  0.5082350000000  0.4428470000000 1.0
C      1  0.5953520000000  0.4726180000000  0.4439720000000 1.0
C      1  0.5254110000000  0.4923540000000  0.4590400000000 1.0
C      1  0.5187260000000  0.4656840000000  0.4528790000000 1.0
C      1  0.4554330000000  0.4420470000000  0.4791300000000 1.0
C      1  0.5988500000000  0.5107670000000  0.4094800000000 1.0
C      1  0.4342140000000  0.5015920000000  0.5943100000000 1.0
C      1  0.5230360000000  0.4801720000000  0.5955650000000 1.0
C      1  0.4186600000000  0.5075630000000  0.3982140000000 1.0
C      1  0.4460290000000  0.4601910000000  0.5440030000000 1.0
C      1  0.4781400000000  0.5064890000000  0.3701540000000 1.0
C      1  0.4470760000000  0.5688440000000  0.4264590000000 1.0
END
