TITL C-627109-622-2060 0.0292038436133213 125000 -250.891963919019 0 0 45 (C1) n - 1
REM
REM in /home/nfs/bkarasulu/CARBON/AIRSS/Generating-Clusters/LCBOP/Only-C1/SD-CG/FIRE-CG
REM
REM
REM
REM
REM
REM ./C.cell (11c1c37f851c82e70ff6c80c92926a4b)
REM AIRSS Version 0.9.1 bugfix July 2018 build 013d7b7c2542+ Fri, 06 Jul 2018 19:26:36 +0100
REM compiler GCC version 9.2.1 20190827 (Red Hat 9.2.1-1)
REM options -cpp -mtune=generic -march=x86-64 -g -O0 -fpre-include=/usr/include/finclude/math-vector-fortran.h
REM seed 571354523 -1332005889 -98011833 155991026 -113082361 -1612308670 535814368 -705775225 516277375 1903605580 17228700 -1103021814 -456712642 607092452 821552973 1613172573 -831531722 -682839942 1724760712 -1521584337 1890798342 1324571729 169072243 1811190415 1664623075 1782674919 -2115150748 719350944 27212228 -1569219665 771084574 -753498298 2011465975
REM
CELL 1.54180   50.00000   50.00000   50.00000   90.00000   90.00000   90.00000
LATT -1
SFAC C  
C      1  0.4895690000000  0.4635810000000  0.4776840000000 1.0
C      1  0.5628910000000  0.5361180000000  0.4739430000000 1.0
C      1  0.6081210000000  0.5386620000000  0.4472920000000 1.0
C      1  0.4970110000000  0.5667470000000  0.5069180000000 1.0
C      1  0.4634100000000  0.4994960000000  0.4703540000000 1.0
C      1  0.3826420000000  0.4735030000000  0.5283270000000 1.0
C      1  0.4609820000000  0.4724940000000  0.4840500000000 1.0
C      1  0.5502260000000  0.4974270000000  0.5798550000000 1.0
C      1  0.4826640000000  0.5161180000000  0.5623770000000 1.0
C      1  0.4083350000000  0.4744550000000  0.5347680000000 1.0
C      1  0.5718560000000  0.4601350000000  0.4959760000000 1.0
C      1  0.3574000000000  0.4725480000000  0.5218810000000 1.0
C      1  0.5171750000000  0.5547110000000  0.5216660000000 1.0
C      1  0.4771640000000  0.5148620000000  0.5144120000000 1.0
C      1  0.5489620000000  0.4591530000000  0.5119850000000 1.0
C      1  0.5603530000000  0.4869720000000  0.6303750000000 1.0
C      1  0.4520340000000  0.5390600000000  0.4471510000000 1.0
C      1  0.4428770000000  0.5162790000000  0.4336760000000 1.0
C      1  0.5438280000000  0.4374430000000  0.5278000000000 1.0
C      1  0.5927990000000  0.4639850000000  0.4802130000000 1.0
C      1  0.6132610000000  0.4681990000000  0.4646200000000 1.0
C      1  0.4735960000000  0.5575220000000  0.4919730000000 1.0
C      1  0.5076650000000  0.4808260000000  0.4942010000000 1.0
C      1  0.4771290000000  0.4550780000000  0.5476540000000 1.0
C      1  0.5369690000000  0.5055080000000  0.5276710000000 1.0
C      1  0.4445640000000  0.4563300000000  0.4657650000000 1.0
C      1  0.4559890000000  0.4632180000000  0.4391330000000 1.0
C      1  0.4998230000000  0.5392240000000  0.4562530000000 1.0
C      1  0.4609380000000  0.5371220000000  0.5074240000000 1.0
C      1  0.5553560000000  0.4921740000000  0.6053230000000 1.0
C      1  0.5856730000000  0.5375410000000  0.4604980000000 1.0
C      1  0.4861360000000  0.4676310000000  0.4466880000000 1.0
C      1  0.4620520000000  0.4773240000000  0.5425100000000 1.0
C      1  0.4845590000000  0.4970940000000  0.4471240000000 1.0
C      1  0.4439430000000  0.4887190000000  0.4282720000000 1.0
C      1  0.5394150000000  0.5326080000000  0.4878800000000 1.0
C      1  0.5444880000000  0.5022810000000  0.5544610000000 1.0
C      1  0.4981500000000  0.5085050000000  0.4953770000000 1.0
C      1  0.4740920000000  0.5509470000000  0.4632870000000 1.0
C      1  0.5310830000000  0.4811480000000  0.5115550000000 1.0
C      1  0.4342580000000  0.4754520000000  0.5401080000000 1.0
C      1  0.4974890000000  0.5191950000000  0.4365530000000 1.0
C      1  0.5354310000000  0.5324470000000  0.5165890000000 1.0
C      1  0.4744220000000  0.5027830000000  0.5398960000000 1.0
C      1  0.5132210000000  0.5273720000000  0.4784840000000 1.0
END
