TITL C-627107-135-2102 -5.28685751760474 125000 -395.218099426173 0 0 68 (C1) n - 1
REM
REM in /home/nfs/bkarasulu/CARBON/AIRSS/Generating-Clusters/LCBOP/Only-C1/SD-CG/FIRE-CG
REM
REM
REM
REM
REM
REM ./C.cell (11c1c37f851c82e70ff6c80c92926a4b)
REM AIRSS Version 0.9.1 bugfix July 2018 build 013d7b7c2542+ Fri, 06 Jul 2018 19:26:36 +0100
REM compiler GCC version 9.2.1 20190827 (Red Hat 9.2.1-1)
REM options -cpp -mtune=generic -march=x86-64 -g -O0 -fpre-include=/usr/include/finclude/math-vector-fortran.h
REM seed 820175042 -1092338912 187108848 1105537040 -559756218 -820288221 -900486404 638714746 -1303930367 -1303660955 -1934320300 944962348 -99583725 14654750 856724916 -1151184741 -2039170227 -996383311 620801062 -1144476891 -1601624895 424041157 602599425 655059142 1707349754 -464173362 1675103869 465775909 -282986524 1744469476 -947028837 -1652507792 716973787
REM
CELL 1.54180   50.00000   50.00000   50.00000   90.00000   90.00000   90.00000
LATT -1
SFAC C  
C      1  0.3801990000000  0.5129890000000  0.4851490000000 1.0
C      1  0.4839330000000  0.4525970000000  0.5387690000000 1.0
C      1  0.4130550000000  0.4331830000000  0.4934810000000 1.0
C      1  0.5486800000000  0.5468590000000  0.5620700000000 1.0
C      1  0.5324320000000  0.4588560000000  0.5300550000000 1.0
C      1  0.4209130000000  0.4793050000000  0.4816550000000 1.0
C      1  0.4830410000000  0.5072780000000  0.5600620000000 1.0
C      1  0.5267700000000  0.4269850000000  0.4928640000000 1.0
C      1  0.5199650000000  0.4273330000000  0.4649600000000 1.0
C      1  0.4235280000000  0.4575960000000  0.5009250000000 1.0
C      1  0.5274140000000  0.4466220000000  0.4448120000000 1.0
C      1  0.4981830000000  0.5178050000000  0.6057500000000 1.0
C      1  0.4729750000000  0.4833000000000  0.4967010000000 1.0
C      1  0.5039010000000  0.4187150000000  0.5086400000000 1.0
C      1  0.4299570000000  0.5445900000000  0.5103580000000 1.0
C      1  0.5250080000000  0.5826020000000  0.4706670000000 1.0
C      1  0.4403710000000  0.4880640000000  0.4625920000000 1.0
C      1  0.5531950000000  0.4487640000000  0.4348010000000 1.0
C      1  0.5239430000000  0.5220330000000  0.5949700000000 1.0
C      1  0.4779350000000  0.4621370000000  0.4440430000000 1.0
C      1  0.4615180000000  0.5068130000000  0.4288860000000 1.0
C      1  0.4775120000000  0.5100190000000  0.5895650000000 1.0
C      1  0.5051250000000  0.4621700000000  0.4347590000000 1.0
C      1  0.5436550000000  0.5106740000000  0.4580850000000 1.0
C      1  0.5039280000000  0.5784070000000  0.4535930000000 1.0
C      1  0.4944840000000  0.5834580000000  0.5068220000000 1.0
C      1  0.5690660000000  0.5093890000000  0.5365360000000 1.0
C      1  0.4634190000000  0.4946100000000  0.5419380000000 1.0
C      1  0.5641850000000  0.5163710000000  0.5095200000000 1.0
C      1  0.4754750000000  0.4549990000000  0.4918180000000 1.0
C      1  0.4722350000000  0.5815160000000  0.4889170000000 1.0
C      1  0.4575520000000  0.4811790000000  0.4414840000000 1.0
C      1  0.4882710000000  0.5358250000000  0.5500450000000 1.0
C      1  0.4769930000000  0.5393600000000  0.4634780000000 1.0
C      1  0.5789410000000  0.5044460000000  0.4883380000000 1.0
C      1  0.5512460000000  0.5181100000000  0.5563190000000 1.0
C      1  0.5686980000000  0.5017030000000  0.4633800000000 1.0
C      1  0.4042200000000  0.5501500000000  0.5060470000000 1.0
C      1  0.4572790000000  0.5237620000000  0.4506860000000 1.0
C      1  0.5371010000000  0.5588250000000  0.5127690000000 1.0
C      1  0.5416370000000  0.4457720000000  0.5080740000000 1.0
C      1  0.5927480000000  0.4955110000000  0.5439580000000 1.0
C      1  0.5418930000000  0.5330300000000  0.5009500000000 1.0
C      1  0.5092100000000  0.4908920000000  0.5593730000000 1.0
C      1  0.4918870000000  0.4207140000000  0.4618670000000 1.0
C      1  0.5921250000000  0.4683790000000  0.5475610000000 1.0
C      1  0.4673760000000  0.5123040000000  0.4031220000000 1.0
C      1  0.4486390000000  0.5945610000000  0.4926340000000 1.0
C      1  0.4794290000000  0.5678240000000  0.4645180000000 1.0
C      1  0.4634380000000  0.5035280000000  0.5146030000000 1.0
C      1  0.3830520000000  0.5374660000000  0.4956320000000 1.0
C      1  0.5311650000000  0.5044110000000  0.5718850000000 1.0
C      1  0.5452820000000  0.5630500000000  0.5395080000000 1.0
C      1  0.3956440000000  0.4917560000000  0.4804910000000 1.0
C      1  0.5862720000000  0.4593850000000  0.4018950000000 1.0
C      1  0.5093010000000  0.4661160000000  0.5451510000000 1.0
C      1  0.4750980000000  0.4434910000000  0.4656520000000 1.0
C      1  0.4502220000000  0.5274140000000  0.5092480000000 1.0
C      1  0.4587360000000  0.4665730000000  0.5425160000000 1.0
C      1  0.4358190000000  0.4590180000000  0.5268260000000 1.0
C      1  0.5991550000000  0.4378270000000  0.4423400000000 1.0
C      1  0.4999620000000  0.5260760000000  0.4734760000000 1.0
C      1  0.4844180000000  0.4385200000000  0.5139880000000 1.0
C      1  0.5365610000000  0.5473000000000  0.5883000000000 1.0
C      1  0.5274470000000  0.5236200000000  0.4775650000000 1.0
C      1  0.6159540000000  0.5096180000000  0.5476000000000 1.0
C      1  0.5798280000000  0.4486360000000  0.4262360000000 1.0
C      1  0.5214050000000  0.5778120000000  0.4987210000000 1.0
END
