TITL C-627106-156-1547 0.00244392242455496 125000 -708.064121428221 0 0 115 (C1) n - 1
REM
REM in /home/nfs/bkarasulu/CARBON/AIRSS/Generating-Clusters/LCBOP/Only-C1/SD-CG/FIRE-CG
REM
REM
REM
REM
REM
REM ./C.cell (11c1c37f851c82e70ff6c80c92926a4b)
REM AIRSS Version 0.9.1 bugfix July 2018 build 013d7b7c2542+ Fri, 06 Jul 2018 19:26:36 +0100
REM compiler GCC version 9.2.1 20190827 (Red Hat 9.2.1-1)
REM options -cpp -mtune=generic -march=x86-64 -g -O0 -fpre-include=/usr/include/finclude/math-vector-fortran.h
REM seed -1917976581 1747525338 -784038691 1525311663 24352315 -786932515 -1269635789 2029374737 1808749327 -260505125 -2032653385 1027986129 -750831961 756723348 -2086545584 559700741 -1197235198 1268078242 1567792819 1356920724 154269685 -1499077606 17239180 386692214 -870220654 2086647639 2043367716 -518224338 -1859653163 -1778366787 1107192224 530956884 2019683594
REM
CELL 1.54180   50.00000   50.00000   50.00000   90.00000   90.00000   90.00000
LATT -1
SFAC C  
C      1  0.4593330000000  0.5320700000000  0.4495170000000 1.0
C      1  0.4334320000000  0.3956630000000  0.4918010000000 1.0
C      1  0.4812770000000  0.5064870000000  0.4178420000000 1.0
C      1  0.4664720000000  0.5752580000000  0.5903240000000 1.0
C      1  0.5080720000000  0.4993200000000  0.4747160000000 1.0
C      1  0.5971940000000  0.5025810000000  0.4506270000000 1.0
C      1  0.4857140000000  0.5283140000000  0.5425710000000 1.0
C      1  0.4103770000000  0.4952940000000  0.5727560000000 1.0
C      1  0.4295770000000  0.5589610000000  0.5636900000000 1.0
C      1  0.5420800000000  0.4567850000000  0.4700990000000 1.0
C      1  0.5398050000000  0.5881630000000  0.5426380000000 1.0
C      1  0.5749460000000  0.5181590000000  0.4427610000000 1.0
C      1  0.4139260000000  0.5125680000000  0.4510190000000 1.0
C      1  0.6070300000000  0.5021570000000  0.4768830000000 1.0
C      1  0.5619200000000  0.5404530000000  0.5468940000000 1.0
C      1  0.4565280000000  0.5122680000000  0.4299960000000 1.0
C      1  0.4940310000000  0.5514260000000  0.5570800000000 1.0
C      1  0.4297000000000  0.6216030000000  0.5463890000000 1.0
C      1  0.4741980000000  0.5511750000000  0.4901910000000 1.0
C      1  0.4873100000000  0.5887450000000  0.4581580000000 1.0
C      1  0.4180380000000  0.5030980000000  0.5241120000000 1.0
C      1  0.5021560000000  0.5592170000000  0.4905160000000 1.0
C      1  0.5092820000000  0.5150580000000  0.4989960000000 1.0
C      1  0.4601930000000  0.5907600000000  0.4709430000000 1.0
C      1  0.6139410000000  0.3963940000000  0.4829110000000 1.0
C      1  0.5514800000000  0.5376250000000  0.4847780000000 1.0
C      1  0.4672360000000  0.4634040000000  0.4649870000000 1.0
C      1  0.4867810000000  0.5699780000000  0.4350980000000 1.0
C      1  0.5250700000000  0.5695940000000  0.4049600000000 1.0
C      1  0.5339680000000  0.5005470000000  0.4618160000000 1.0
C      1  0.5028320000000  0.5259060000000  0.4114720000000 1.0
C      1  0.5330980000000  0.4184750000000  0.5502820000000 1.0
C      1  0.4785790000000  0.6219200000000  0.5604610000000 1.0
C      1  0.5512910000000  0.4909070000000  0.5418650000000 1.0
C      1  0.5407580000000  0.5954800000000  0.5152720000000 1.0
C      1  0.4970260000000  0.6013360000000  0.5648460000000 1.0
C      1  0.4576250000000  0.5238380000000  0.5431710000000 1.0
C      1  0.5016000000000  0.3983870000000  0.4872680000000 1.0
C      1  0.5715820000000  0.5244680000000  0.4157270000000 1.0
C      1  0.4541270000000  0.6297250000000  0.5533580000000 1.0
C      1  0.5545210000000  0.4793950000000  0.5152440000000 1.0
C      1  0.5247190000000  0.4608850000000  0.5735430000000 1.0
C      1  0.5367710000000  0.4706790000000  0.6251250000000 1.0
C      1  0.4439790000000  0.3452550000000  0.5022030000000 1.0
C      1  0.4243930000000  0.5521360000000  0.4913410000000 1.0
C      1  0.4897410000000  0.4823370000000  0.4580430000000 1.0
C      1  0.4051730000000  0.4924670000000  0.5465010000000 1.0
C      1  0.4811860000000  0.4412080000000  0.4792160000000 1.0
C      1  0.5381460000000  0.4758250000000  0.4476570000000 1.0
C      1  0.4945990000000  0.4837660000000  0.4298130000000 1.0
C      1  0.4503380000000  0.4814900000000  0.4829660000000 1.0
C      1  0.4150240000000  0.5996980000000  0.5422250000000 1.0
C      1  0.6143880000000  0.4789230000000  0.4904770000000 1.0
C      1  0.4451660000000  0.4517550000000  0.4465790000000 1.0
C      1  0.4605260000000  0.4444480000000  0.5222180000000 1.0
C      1  0.5237820000000  0.3939300000000  0.5037650000000 1.0
C      1  0.4458360000000  0.5109210000000  0.5212970000000 1.0
C      1  0.4871870000000  0.4314960000000  0.5637220000000 1.0
C      1  0.5607320000000  0.4241610000000  0.5492750000000 1.0
C      1  0.5774020000000  0.5078500000000  0.5786670000000 1.0
C      1  0.4125120000000  0.5209660000000  0.4785700000000 1.0
C      1  0.4570880000000  0.5064460000000  0.4946510000000 1.0
C      1  0.5513820000000  0.5173780000000  0.3996170000000 1.0
C      1  0.4858160000000  0.4089830000000  0.4430270000000 1.0
C      1  0.5278230000000  0.5985790000000  0.4917410000000 1.0
C      1  0.5268990000000  0.4805220000000  0.5533680000000 1.0
C      1  0.5932150000000  0.4129090000000  0.4913950000000 1.0
C      1  0.4351440000000  0.4444950000000  0.5074900000000 1.0
C      1  0.4319410000000  0.4228710000000  0.4868670000000 1.0
C      1  0.5233740000000  0.5401800000000  0.4945120000000 1.0
C      1  0.5229200000000  0.4820100000000  0.4229530000000 1.0
C      1  0.5670190000000  0.4108950000000  0.4806650000000 1.0
C      1  0.4335500000000  0.4709350000000  0.4287610000000 1.0
C      1  0.5002070000000  0.5096350000000  0.5256010000000 1.0
C      1  0.4317310000000  0.4988960000000  0.4325980000000 1.0
C      1  0.5084440000000  0.4630200000000  0.5124180000000 1.0
C      1  0.5233240000000  0.4002370000000  0.5311360000000 1.0
C      1  0.6334300000000  0.3810040000000  0.4750100000000 1.0
C      1  0.4380440000000  0.3701080000000  0.4970400000000 1.0
C      1  0.4659280000000  0.5270890000000  0.4771970000000 1.0
C      1  0.4126840000000  0.5590710000000  0.5163350000000 1.0
C      1  0.5351220000000  0.4645140000000  0.4984580000000 1.0
C      1  0.5780500000000  0.5465900000000  0.5251250000000 1.0
C      1  0.4063360000000  0.4561980000000  0.4705390000000 1.0
C      1  0.5240230000000  0.6044890000000  0.5589940000000 1.0
C      1  0.5768220000000  0.5394420000000  0.4985920000000 1.0
C      1  0.4282620000000  0.5136600000000  0.5812090000000 1.0
C      1  0.5632020000000  0.5131570000000  0.5557020000000 1.0
C      1  0.5076860000000  0.5843970000000  0.4781990000000 1.0
C      1  0.4848480000000  0.4480490000000  0.5064160000000 1.0
C      1  0.4169240000000  0.5715900000000  0.5413010000000 1.0
C      1  0.5063610000000  0.4829680000000  0.5337230000000 1.0
C      1  0.4092650000000  0.4982630000000  0.4973960000000 1.0
C      1  0.4654140000000  0.4364840000000  0.5487500000000 1.0
C      1  0.4890560000000  0.4159590000000  0.4692310000000 1.0
C      1  0.5428000000000  0.5852540000000  0.3940220000000 1.0
C      1  0.5488480000000  0.3921810000000  0.4910510000000 1.0
C      1  0.5309610000000  0.4659370000000  0.6001680000000 1.0
C      1  0.5999060000000  0.5256070000000  0.4903750000000 1.0
C      1  0.5048200000000  0.5548500000000  0.4176910000000 1.0
C      1  0.5264640000000  0.5077540000000  0.4077830000000 1.0
C      1  0.4498950000000  0.5678870000000  0.4861550000000 1.0
C      1  0.4400530000000  0.5739760000000  0.5851840000000 1.0
C      1  0.6103780000000  0.4564940000000  0.5042900000000 1.0
C      1  0.5971390000000  0.4328470000000  0.5115060000000 1.0
C      1  0.5151590000000  0.4352450000000  0.5649470000000 1.0
C      1  0.4878540000000  0.5751790000000  0.5718720000000 1.0
C      1  0.4614870000000  0.5572100000000  0.4374430000000 1.0
C      1  0.4228520000000  0.4708870000000  0.4917660000000 1.0
C      1  0.5561860000000  0.4327120000000  0.4666600000000 1.0
C      1  0.5531510000000  0.5209100000000  0.4614660000000 1.0
C      1  0.4398360000000  0.5324920000000  0.5636030000000 1.0
C      1  0.5830050000000  0.4298390000000  0.5356510000000 1.0
C      1  0.5465650000000  0.5628490000000  0.5536280000000 1.0
C      1  0.4256010000000  0.4357110000000  0.4614840000000 1.0
END
