TITL C-627110-360-105 -658.575607945723 125000 -178.4456004828 0 0 30 (C1) n - 1
REM
REM in /home/nfs/bkarasulu/CARBON/AIRSS/Generating-Clusters/LCBOP/Only-C1/SD-CG/FIRE-CG
REM
REM
REM
REM
REM
REM ./C.cell (11c1c37f851c82e70ff6c80c92926a4b)
REM AIRSS Version 0.9.1 bugfix July 2018 build 013d7b7c2542+ Fri, 06 Jul 2018 19:26:36 +0100
REM compiler GCC version 9.2.1 20190827 (Red Hat 9.2.1-1)
REM options -cpp -mtune=generic -march=x86-64 -g -O0 -fpre-include=/usr/include/finclude/math-vector-fortran.h
REM seed -1971499374 2124120128 1222524496 -256136470 899167919 -945621486 -2053722654 -453307810 2127368334 1384327947 648133008 883300771 287963941 637300534 1871109715 -178290765 -191098175 -1265454246 -1941330193 284002558 389645577 -112031375 -868037279 1953575631 531857876 1966727160 -439732096 1961234608 -1943479133 2066382635 -418656681 -192481946 -1949359601
REM
CELL 1.54180   50.00000   50.00000   50.00000   90.00000   90.00000   90.00000
LATT -1
SFAC C  
C      1  0.4398360000000  0.4642160000000  0.5799820000000 1.0
C      1  0.5331190000000  0.5612840000000  0.4654120000000 1.0
C      1  0.4774950000000  0.4959720000000  0.5168510000000 1.0
C      1  0.5555190000000  0.5801990000000  0.4228890000000 1.0
C      1  0.4550470000000  0.4822520000000  0.5256910000000 1.0
C      1  0.4531810000000  0.4498600000000  0.5613370000000 1.0
C      1  0.4628820000000  0.4114010000000  0.5106850000000 1.0
C      1  0.4556850000000  0.4544980000000  0.5335320000000 1.0
C      1  0.6021550000000  0.5447640000000  0.4749890000000 1.0
C      1  0.4903410000000  0.3668600000000  0.5056830000000 1.0
C      1  0.4982140000000  0.5302710000000  0.4891500000000 1.0
C      1  0.6117680000000  0.5552040000000  0.4523130000000 1.0
C      1  0.5521610000000  0.5061420000000  0.5164480000000 1.0
C      1  0.4263300000000  0.4414980000000  0.4976140000000 1.0
C      1  0.5780170000000  0.5411760000000  0.4887500000000 1.0
C      1  0.5561710000000  0.5570960000000  0.4809520000000 1.0
C      1  0.5257950000000  0.5022920000000  0.5167870000000 1.0
C      1  0.4767130000000  0.3889470000000  0.5081430000000 1.0
C      1  0.5001580000000  0.5093130000000  0.5077360000000 1.0
C      1  0.4486040000000  0.4350450000000  0.5138390000000 1.0
C      1  0.5094810000000  0.5489990000000  0.4739190000000 1.0
C      1  0.4109390000000  0.4869380000000  0.5074720000000 1.0
C      1  0.4289740000000  0.4945220000000  0.5278590000000 1.0
C      1  0.5725290000000  0.5202500000000  0.5065130000000 1.0
C      1  0.5818530000000  0.5779740000000  0.4187350000000 1.0
C      1  0.5365080000000  0.5740010000000  0.4406590000000 1.0
C      1  0.4207020000000  0.5008310000000  0.5541440000000 1.0
C      1  0.4254810000000  0.4869350000000  0.5768780000000 1.0
C      1  0.4104250000000  0.4630780000000  0.4947650000000 1.0
C      1  0.6039180000000  0.5681790000000  0.4302730000000 1.0
END
