TITL C-627112-676-1878 0.0145132992111976 125000 -359.289758833261 0 0 59 (C1) n - 1
REM
REM in /home/nfs/bkarasulu/CARBON/AIRSS/Generating-Clusters/LCBOP/Only-C1/SD-CG/FIRE-CG
REM
REM
REM
REM
REM
REM ./C.cell (11c1c37f851c82e70ff6c80c92926a4b)
REM AIRSS Version 0.9.1 bugfix July 2018 build 013d7b7c2542+ Fri, 06 Jul 2018 19:26:36 +0100
REM compiler GCC version 9.2.1 20190827 (Red Hat 9.2.1-1)
REM options -cpp -mtune=generic -march=x86-64 -g -O0 -fpre-include=/usr/include/finclude/math-vector-fortran.h
REM seed -1424947283 849179612 -1930688446 -987769966 1911948169 -429452631 -1953566192 -319902372 -911731296 2143396781 -452389471 -171053017 -16182635 221238382 -1437190021 -172858368 1759991250 496967101 -408885553 648534680 1524842807 908599529 -710330585 2137900933 -254234015 -1616648316 5739336 -1369228436 1624119307 635064595 -1777340190 -813476782 -2001101868
REM
CELL 1.54180   50.00000   50.00000   50.00000   90.00000   90.00000   90.00000
LATT -1
SFAC C  
C      1  0.5515960000000  0.5780010000000  0.5214560000000 1.0
C      1  0.5360660000000  0.4674930000000  0.4390550000000 1.0
C      1  0.5614560000000  0.4320580000000  0.4615650000000 1.0
C      1  0.4433640000000  0.5660780000000  0.5524520000000 1.0
C      1  0.4804680000000  0.5991470000000  0.5288590000000 1.0
C      1  0.4465690000000  0.4620100000000  0.6138560000000 1.0
C      1  0.4651510000000  0.5211410000000  0.4709090000000 1.0
C      1  0.4483200000000  0.5457830000000  0.5083520000000 1.0
C      1  0.5041190000000  0.5072940000000  0.4466210000000 1.0
C      1  0.5176430000000  0.4474530000000  0.4782020000000 1.0
C      1  0.4898390000000  0.4491950000000  0.4698120000000 1.0
C      1  0.4413570000000  0.5355950000000  0.4634520000000 1.0
C      1  0.4739480000000  0.6081680000000  0.5030910000000 1.0
C      1  0.5202260000000  0.4398980000000  0.5057520000000 1.0
C      1  0.4394420000000  0.4660460000000  0.5879120000000 1.0
C      1  0.4733610000000  0.4316440000000  0.5102650000000 1.0
C      1  0.5206730000000  0.4886470000000  0.4341250000000 1.0
C      1  0.4345010000000  0.4923220000000  0.5313100000000 1.0
C      1  0.6097900000000  0.4326510000000  0.4811050000000 1.0
C      1  0.5409460000000  0.5394010000000  0.4894500000000 1.0
C      1  0.4989920000000  0.4331790000000  0.5236130000000 1.0
C      1  0.4958870000000  0.5251670000000  0.5096220000000 1.0
C      1  0.4479450000000  0.4675430000000  0.5392780000000 1.0
C      1  0.5615270000000  0.4060400000000  0.4507260000000 1.0
C      1  0.5037840000000  0.5833570000000  0.4401060000000 1.0
C      1  0.4531520000000  0.4720560000000  0.4917960000000 1.0
C      1  0.4875740000000  0.4446490000000  0.5989540000000 1.0
C      1  0.5388790000000  0.4487720000000  0.4596620000000 1.0
C      1  0.4341170000000  0.4909810000000  0.5021360000000 1.0
C      1  0.4332860000000  0.5175040000000  0.5434830000000 1.0
C      1  0.4612630000000  0.5863120000000  0.5446760000000 1.0
C      1  0.4289800000000  0.5681890000000  0.5755870000000 1.0
C      1  0.5850510000000  0.4404910000000  0.4744720000000 1.0
C      1  0.4741700000000  0.4736280000000  0.4716050000000 1.0
C      1  0.5127910000000  0.5343280000000  0.4481570000000 1.0
C      1  0.4711510000000  0.5305960000000  0.4982350000000 1.0
C      1  0.5480440000000  0.5670800000000  0.4496750000000 1.0
C      1  0.6221370000000  0.3868760000000  0.4670020000000 1.0
C      1  0.4709680000000  0.4512990000000  0.6194540000000 1.0
C      1  0.5560030000000  0.5578490000000  0.5044590000000 1.0
C      1  0.6013650000000  0.3757150000000  0.4540460000000 1.0
C      1  0.4970530000000  0.5557530000000  0.4376820000000 1.0
C      1  0.4566100000000  0.4539090000000  0.5152640000000 1.0
C      1  0.6254760000000  0.4110250000000  0.4783850000000 1.0
C      1  0.5766820000000  0.3841640000000  0.4476840000000 1.0
C      1  0.4814020000000  0.4475940000000  0.5713160000000 1.0
C      1  0.5329500000000  0.5927840000000  0.5334720000000 1.0
C      1  0.4318140000000  0.5502480000000  0.4849710000000 1.0
C      1  0.4866700000000  0.6009620000000  0.4533630000000 1.0
C      1  0.5074180000000  0.5996290000000  0.5366270000000 1.0
C      1  0.5219090000000  0.5246350000000  0.5038700000000 1.0
C      1  0.5369810000000  0.5434780000000  0.4615170000000 1.0
C      1  0.4763540000000  0.6089090000000  0.4766020000000 1.0
C      1  0.4758160000000  0.4269820000000  0.4820610000000 1.0
C      1  0.4980650000000  0.4376760000000  0.5511370000000 1.0
C      1  0.4406040000000  0.5436090000000  0.5353660000000 1.0
C      1  0.4804120000000  0.4995640000000  0.4607810000000 1.0
C      1  0.4558290000000  0.4603440000000  0.5652700000000 1.0
C      1  0.5320530000000  0.5870980000000  0.4402880000000 1.0
END
