TITL C-627113-6568-1718 -1.76709995881218e-07 125000 -714.942988974683 0 0 119 (C1) n - 1
REM
REM in /home/nfs/bkarasulu/CARBON/AIRSS/Generating-Clusters/LCBOP/Only-C1/SD-CG/FIRE-CG
REM
REM
REM
REM
REM
REM ./C.cell (11c1c37f851c82e70ff6c80c92926a4b)
REM AIRSS Version 0.9.1 bugfix July 2018 build 013d7b7c2542+ Fri, 06 Jul 2018 19:26:36 +0100
REM compiler GCC version 9.2.1 20190827 (Red Hat 9.2.1-1)
REM options -cpp -mtune=generic -march=x86-64 -g -O0 -fpre-include=/usr/include/finclude/math-vector-fortran.h
REM seed -251539504 -1915213378 1526740715 252690801 666322435 -1115682541 923576480 -1325848902 -1896684413 2012831334 -760742990 -864955671 -1930545676 501139767 810023064 -1458641957 1789743942 -1170182472 -1267664766 -23223968 1379305047 1523426389 -1357712774 1857614925 -2021332844 587562060 -582206664 743224118 -2031335755 -339083297 -1039248401 1901867907 -441899517
REM
CELL 1.54180   50.00000   50.00000   50.00000   90.00000   90.00000   90.00000
LATT -1
SFAC C  
C      1  0.4362120000000  0.5166360000000  0.5283450000000 1.0
C      1  0.4412450000000  0.5419600000000  0.5795640000000 1.0
C      1  0.5019950000000  0.4257330000000  0.4316560000000 1.0
C      1  0.4737020000000  0.5916750000000  0.4509830000000 1.0
C      1  0.4782270000000  0.5488680000000  0.5523580000000 1.0
C      1  0.4285930000000  0.5300600000000  0.4407840000000 1.0
C      1  0.5061150000000  0.4817140000000  0.5995720000000 1.0
C      1  0.5189880000000  0.3976680000000  0.5208330000000 1.0
C      1  0.5319780000000  0.5232370000000  0.5886490000000 1.0
C      1  0.5931910000000  0.5326690000000  0.4991130000000 1.0
C      1  0.5051220000000  0.4495390000000  0.4159860000000 1.0
C      1  0.4454050000000  0.5119140000000  0.4260210000000 1.0
C      1  0.4398180000000  0.5422260000000  0.5170380000000 1.0
C      1  0.5515750000000  0.4404780000000  0.5369230000000 1.0
C      1  0.5278360000000  0.5359390000000  0.5269150000000 1.0
C      1  0.4290440000000  0.5682730000000  0.4708570000000 1.0
C      1  0.4706460000000  0.5210950000000  0.4160020000000 1.0
C      1  0.4073420000000  0.5640030000000  0.4888380000000 1.0
C      1  0.5489800000000  0.3949930000000  0.4082850000000 1.0
C      1  0.5980800000000  0.5066850000000  0.5100660000000 1.0
C      1  0.4071280000000  0.5198160000000  0.4566060000000 1.0
C      1  0.4938870000000  0.5629620000000  0.5085690000000 1.0
C      1  0.5489150000000  0.6148430000000  0.5095900000000 1.0
C      1  0.4693760000000  0.4900520000000  0.5106660000000 1.0
C      1  0.4774660000000  0.4573170000000  0.4794340000000 1.0
C      1  0.5404230000000  0.5145400000000  0.5419640000000 1.0
C      1  0.5437550000000  0.5133490000000  0.4211700000000 1.0
C      1  0.4628740000000  0.4432990000000  0.4559050000000 1.0
C      1  0.3948700000000  0.5071030000000  0.5045360000000 1.0
C      1  0.5485920000000  0.5600910000000  0.4567690000000 1.0
C      1  0.4144130000000  0.4471050000000  0.5265400000000 1.0
C      1  0.5154190000000  0.5734230000000  0.5564480000000 1.0
C      1  0.5112140000000  0.5663400000000  0.5836610000000 1.0
C      1  0.4541540000000  0.5611330000000  0.5611860000000 1.0
C      1  0.4378490000000  0.5567720000000  0.4461410000000 1.0
C      1  0.4477240000000  0.4260190000000  0.5501900000000 1.0
C      1  0.4758160000000  0.4228230000000  0.4420560000000 1.0
C      1  0.4931510000000  0.5027140000000  0.4098160000000 1.0
C      1  0.5954450000000  0.5429760000000  0.4726820000000 1.0
C      1  0.5343320000000  0.5453760000000  0.4786280000000 1.0
C      1  0.5981680000000  0.4610430000000  0.4919600000000 1.0
C      1  0.5045120000000  0.5499570000000  0.4830120000000 1.0
C      1  0.5347380000000  0.5151660000000  0.4724650000000 1.0
C      1  0.4641460000000  0.5673130000000  0.4368300000000 1.0
C      1  0.4872760000000  0.4572000000000  0.5600010000000 1.0
C      1  0.5810070000000  0.3992940000000  0.4756730000000 1.0
C      1  0.4792320000000  0.6065350000000  0.5057820000000 1.0
C      1  0.5180320000000  0.5015890000000  0.4909840000000 1.0
C      1  0.5116680000000  0.3538000000000  0.5516600000000 1.0
C      1  0.5155820000000  0.3748380000000  0.5367870000000 1.0
C      1  0.4900050000000  0.4802260000000  0.4636100000000 1.0
C      1  0.5317360000000  0.5971190000000  0.5216490000000 1.0
C      1  0.5130930000000  0.4014610000000  0.4720840000000 1.0
C      1  0.4623070000000  0.5575370000000  0.5054140000000 1.0
C      1  0.4156030000000  0.5593360000000  0.5159210000000 1.0
C      1  0.4682490000000  0.5982320000000  0.4791310000000 1.0
C      1  0.5048820000000  0.4563150000000  0.5362500000000 1.0
C      1  0.4834300000000  0.4747410000000  0.5844110000000 1.0
C      1  0.4412020000000  0.4840060000000  0.4282470000000 1.0
C      1  0.5400330000000  0.5823720000000  0.5462140000000 1.0
C      1  0.5515050000000  0.3911880000000  0.3826270000000 1.0
C      1  0.4328370000000  0.4244720000000  0.5260140000000 1.0
C      1  0.4821100000000  0.5056130000000  0.5541280000000 1.0
C      1  0.5899950000000  0.4134330000000  0.4963940000000 1.0
C      1  0.5929610000000  0.4701900000000  0.5451240000000 1.0
C      1  0.4612120000000  0.6032210000000  0.5297230000000 1.0
C      1  0.5741330000000  0.5477400000000  0.5134370000000 1.0
C      1  0.4543300000000  0.4883100000000  0.5828960000000 1.0
C      1  0.5919820000000  0.4385120000000  0.5084260000000 1.0
C      1  0.5373460000000  0.5580590000000  0.4299370000000 1.0
C      1  0.4879960000000  0.5279540000000  0.5696960000000 1.0
C      1  0.5455010000000  0.3998610000000  0.4355170000000 1.0
C      1  0.5461870000000  0.5461630000000  0.5064330000000 1.0
C      1  0.4178730000000  0.4737360000000  0.5381590000000 1.0
C      1  0.4957970000000  0.4983160000000  0.5054230000000 1.0
C      1  0.4463150000000  0.4602970000000  0.4397250000000 1.0
C      1  0.4443270000000  0.5156170000000  0.5880350000000 1.0
C      1  0.4958480000000  0.4499550000000  0.5084070000000 1.0
C      1  0.5026990000000  0.5540530000000  0.5359570000000 1.0
C      1  0.5800240000000  0.4466340000000  0.5336880000000 1.0
C      1  0.5592840000000  0.5618340000000  0.5557950000000 1.0
C      1  0.5570190000000  0.4825690000000  0.5031400000000 1.0
C      1  0.5076870000000  0.5383410000000  0.5876490000000 1.0
C      1  0.5279260000000  0.4976610000000  0.5999630000000 1.0
C      1  0.4513940000000  0.5762050000000  0.4863320000000 1.0
C      1  0.5206430000000  0.4090600000000  0.4456390000000 1.0
C      1  0.4598790000000  0.4503940000000  0.5548950000000 1.0
C      1  0.5846670000000  0.4856410000000  0.4963190000000 1.0
C      1  0.4477140000000  0.4104730000000  0.5062100000000 1.0
C      1  0.4729540000000  0.4020330000000  0.5006530000000 1.0
C      1  0.5457450000000  0.5050810000000  0.4482500000000 1.0
C      1  0.5772290000000  0.5584250000000  0.4594480000000 1.0
C      1  0.4297130000000  0.4664180000000  0.4851070000000 1.0
C      1  0.3986770000000  0.5018430000000  0.4767840000000 1.0
C      1  0.5330690000000  0.4629470000000  0.5390120000000 1.0
C      1  0.5487410000000  0.5293140000000  0.5661390000000 1.0
C      1  0.5562360000000  0.5392940000000  0.4156980000000 1.0
C      1  0.4442330000000  0.4765040000000  0.5545070000000 1.0
C      1  0.4122250000000  0.5001380000000  0.5259460000000 1.0
C      1  0.5807700000000  0.5588620000000  0.5382830000000 1.0
C      1  0.5441770000000  0.4882650000000  0.5295100000000 1.0
C      1  0.4555120000000  0.4719870000000  0.4936630000000 1.0
C      1  0.4849920000000  0.5065420000000  0.4606350000000 1.0
C      1  0.5045250000000  0.5924660000000  0.5102370000000 1.0
C      1  0.5665170000000  0.3955740000000  0.4536650000000 1.0
C      1  0.4073980000000  0.4752590000000  0.4733020000000 1.0
C      1  0.5104080000000  0.5477410000000  0.4212500000000 1.0
C      1  0.4969480000000  0.4744960000000  0.4089190000000 1.0
C      1  0.4876320000000  0.5319330000000  0.4688580000000 1.0
C      1  0.5014990000000  0.4003850000000  0.4978780000000 1.0
C      1  0.5393270000000  0.4160790000000  0.5285750000000 1.0
C      1  0.4811170000000  0.5486460000000  0.4226600000000 1.0
C      1  0.5441590000000  0.4645620000000  0.4854800000000 1.0
C      1  0.5427760000000  0.4513590000000  0.4631170000000 1.0
C      1  0.6022940000000  0.4948480000000  0.5364580000000 1.0
C      1  0.5165610000000  0.5189180000000  0.4130060000000 1.0
C      1  0.4589540000000  0.4982990000000  0.5366480000000 1.0
C      1  0.4180850000000  0.5801270000000  0.5352430000000 1.0
C      1  0.4445420000000  0.5846530000000  0.5459520000000 1.0
END
