TITL C-627110-360-1598 0.00457674664183073 125000 -480.90012477331 0 0 80 (C1) n - 1
REM
REM in /home/nfs/bkarasulu/CARBON/AIRSS/Generating-Clusters/LCBOP/Only-C1/SD-CG/FIRE-CG
REM
REM
REM
REM
REM
REM ./C.cell (11c1c37f851c82e70ff6c80c92926a4b)
REM AIRSS Version 0.9.1 bugfix July 2018 build 013d7b7c2542+ Fri, 06 Jul 2018 19:26:36 +0100
REM compiler GCC version 9.2.1 20190827 (Red Hat 9.2.1-1)
REM options -cpp -mtune=generic -march=x86-64 -g -O0 -fpre-include=/usr/include/finclude/math-vector-fortran.h
REM seed 1842621410 1020140009 -457067507 -403451467 -1821523338 -1021314421 688155791 265255367 1073521988 -59141759 -1478407470 -896820149 1059696731 1805816334 -513945943 -711469389 -94541663 -1031286136 -714882770 127001841 -976103435 1027216617 790060133 -1462182043 1949316700 -298854390 -956834053 -1379437556 1426516843 -1077276868 -1252750282 -587500597 -1990179845
REM
CELL 1.54180   50.00000   50.00000   50.00000   90.00000   90.00000   90.00000
LATT -1
SFAC C  
C      1  0.4355900000000  0.4271530000000  0.4740970000000 1.0
C      1  0.4408350000000  0.4282090000000  0.5015050000000 1.0
C      1  0.4605460000000  0.4862730000000  0.5638270000000 1.0
C      1  0.6091260000000  0.5062350000000  0.4751830000000 1.0
C      1  0.4142250000000  0.4433290000000  0.5686870000000 1.0
C      1  0.5535100000000  0.5509260000000  0.4682630000000 1.0
C      1  0.4922790000000  0.5130400000000  0.5014650000000 1.0
C      1  0.4708330000000  0.4479140000000  0.5346330000000 1.0
C      1  0.4929670000000  0.4460640000000  0.5178300000000 1.0
C      1  0.4234100000000  0.4937020000000  0.5189100000000 1.0
C      1  0.4882390000000  0.5295860000000  0.3927280000000 1.0
C      1  0.5883420000000  0.5213560000000  0.4825930000000 1.0
C      1  0.4256310000000  0.3797240000000  0.4502900000000 1.0
C      1  0.5229300000000  0.5922480000000  0.4186900000000 1.0
C      1  0.4365100000000  0.5631110000000  0.5400610000000 1.0
C      1  0.4625750000000  0.5589000000000  0.5501060000000 1.0
C      1  0.5710010000000  0.5191240000000  0.5455900000000 1.0
C      1  0.5226960000000  0.6108090000000  0.4640450000000 1.0
C      1  0.5054910000000  0.5090710000000  0.4007670000000 1.0
C      1  0.4613880000000  0.5119060000000  0.5482820000000 1.0
C      1  0.5267450000000  0.5574800000000  0.5809890000000 1.0
C      1  0.4762300000000  0.5213050000000  0.4795530000000 1.0
C      1  0.4384830000000  0.4836390000000  0.5816530000000 1.0
C      1  0.5654510000000  0.4163220000000  0.4898850000000 1.0
C      1  0.4467190000000  0.5080510000000  0.4059760000000 1.0
C      1  0.4639900000000  0.5358850000000  0.5686390000000 1.0
C      1  0.5611910000000  0.5433370000000  0.5504330000000 1.0
C      1  0.5421270000000  0.5043940000000  0.4792710000000 1.0
C      1  0.5918080000000  0.4640250000000  0.4585000000000 1.0
C      1  0.5268780000000  0.4204220000000  0.5688680000000 1.0
C      1  0.5696670000000  0.4934000000000  0.5391390000000 1.0
C      1  0.4355160000000  0.4506500000000  0.4589580000000 1.0
C      1  0.4343490000000  0.5147050000000  0.5323260000000 1.0
C      1  0.4261450000000  0.4321330000000  0.5475040000000 1.0
C      1  0.4748080000000  0.4621970000000  0.5589860000000 1.0
C      1  0.5459500000000  0.4546150000000  0.5109220000000 1.0
C      1  0.5387480000000  0.4020690000000  0.5537290000000 1.0
C      1  0.5196710000000  0.4926630000000  0.4160270000000 1.0
C      1  0.4609440000000  0.5235810000000  0.3875700000000 1.0
C      1  0.5463500000000  0.4823000000000  0.4612450000000 1.0
C      1  0.4374600000000  0.5420210000000  0.3421050000000 1.0
C      1  0.5187070000000  0.4494720000000  0.5130420000000 1.0
C      1  0.4188450000000  0.4653360000000  0.5833820000000 1.0
C      1  0.4829690000000  0.5222980000000  0.5267650000000 1.0
C      1  0.4265260000000  0.5511880000000  0.3202870000000 1.0
C      1  0.5342440000000  0.4642370000000  0.5884590000000 1.0
C      1  0.5016270000000  0.5707200000000  0.5207230000000 1.0
C      1  0.5394460000000  0.5600290000000  0.5559900000000 1.0
C      1  0.4231980000000  0.5409350000000  0.5316560000000 1.0
C      1  0.5608060000000  0.5020920000000  0.6134440000000 1.0
C      1  0.4486360000000  0.5327710000000  0.3642730000000 1.0
C      1  0.5329950000000  0.4827050000000  0.4366840000000 1.0
C      1  0.4811970000000  0.5375100000000  0.5905560000000 1.0
C      1  0.4975130000000  0.5559630000000  0.3919000000000 1.0
C      1  0.4751040000000  0.4400450000000  0.6021390000000 1.0
C      1  0.5652160000000  0.4615760000000  0.4673470000000 1.0
C      1  0.4698320000000  0.5460530000000  0.4712200000000 1.0
C      1  0.5494680000000  0.5727780000000  0.4538390000000 1.0
C      1  0.5513900000000  0.3926260000000  0.5322690000000 1.0
C      1  0.5593860000000  0.4436250000000  0.4883440000000 1.0
C      1  0.4946740000000  0.5839540000000  0.4965160000000 1.0
C      1  0.5617620000000  0.3969980000000  0.5080600000000 1.0
C      1  0.4888100000000  0.4491500000000  0.5801880000000 1.0
C      1  0.5058460000000  0.5473770000000  0.5942330000000 1.0
C      1  0.4362080000000  0.4715060000000  0.4426190000000 1.0
C      1  0.4832730000000  0.5519380000000  0.5310440000000 1.0
C      1  0.4304300000000  0.4026050000000  0.4618080000000 1.0
C      1  0.6109850000000  0.4821860000000  0.4633830000000 1.0
C      1  0.5597270000000  0.4711210000000  0.5286990000000 1.0
C      1  0.5478360000000  0.4832870000000  0.6008850000000 1.0
C      1  0.5097030000000  0.5778900000000  0.4006280000000 1.0
C      1  0.5083560000000  0.6061060000000  0.4862010000000 1.0
C      1  0.4392550000000  0.4906820000000  0.4245600000000 1.0
C      1  0.4765640000000  0.5707010000000  0.4792940000000 1.0
C      1  0.4460850000000  0.4353910000000  0.5279810000000 1.0
C      1  0.5336180000000  0.5938890000000  0.4444500000000 1.0
C      1  0.5609680000000  0.5259730000000  0.4782440000000 1.0
C      1  0.5168530000000  0.4446430000000  0.5787660000000 1.0
C      1  0.5257330000000  0.5729550000000  0.5349940000000 1.0
C      1  0.5188540000000  0.5058180000000  0.4953020000000 1.0
END
