TITL C-627111-6168-891 -9.8758905198654e-07 125000 -399.385475987171 0 0 67 (C1) n - 1
REM
REM in /home/nfs/bkarasulu/CARBON/AIRSS/Generating-Clusters/LCBOP/Only-C1/SD-CG/FIRE-CG
REM
REM
REM
REM
REM
REM ./C.cell (11c1c37f851c82e70ff6c80c92926a4b)
REM AIRSS Version 0.9.1 bugfix July 2018 build 013d7b7c2542+ Fri, 06 Jul 2018 19:26:36 +0100
REM compiler GCC version 9.2.1 20190827 (Red Hat 9.2.1-1)
REM options -cpp -mtune=generic -march=x86-64 -g -O0 -fpre-include=/usr/include/finclude/math-vector-fortran.h
REM seed -1745963676 -603865927 -1631347872 -318055273 364081822 1050490265 1540180505 -76348862 -1481656989 -369010708 732167814 -147947013 482920830 -1415010176 -101399140 1115208203 1653471709 1147622109 1208963094 1093892853 1173455618 -1456615187 -1824917697 1044098030 1050670286 -565284012 1107486839 1401245360 -2141362312 1910858102 -1634790132 1350747696 395576526
REM
CELL 1.54180   50.00000   50.00000   50.00000   90.00000   90.00000   90.00000
LATT -1
SFAC C  
C      1  0.4523330000000  0.5129320000000  0.4888370000000 1.0
C      1  0.5204820000000  0.5360710000000  0.5610940000000 1.0
C      1  0.4582490000000  0.5040820000000  0.4272460000000 1.0
C      1  0.4988840000000  0.5600580000000  0.5259040000000 1.0
C      1  0.4816540000000  0.5395810000000  0.5185230000000 1.0
C      1  0.5296930000000  0.4895830000000  0.5013370000000 1.0
C      1  0.4289490000000  0.4700120000000  0.4907510000000 1.0
C      1  0.4400340000000  0.4496940000000  0.4758900000000 1.0
C      1  0.5924260000000  0.4797900000000  0.5089000000000 1.0
C      1  0.4840630000000  0.4685030000000  0.5076840000000 1.0
C      1  0.5065360000000  0.4296530000000  0.4896410000000 1.0
C      1  0.4804900000000  0.4910310000000  0.4377000000000 1.0
C      1  0.5360320000000  0.4740100000000  0.5235100000000 1.0
C      1  0.5766250000000  0.5257590000000  0.5175310000000 1.0
C      1  0.5718310000000  0.5018310000000  0.4746220000000 1.0
C      1  0.4648580000000  0.4450570000000  0.4618240000000 1.0
C      1  0.4315720000000  0.4964410000000  0.5013770000000 1.0
C      1  0.4470440000000  0.5719450000000  0.4423600000000 1.0
C      1  0.5694520000000  0.5274990000000  0.4888440000000 1.0
C      1  0.4607290000000  0.4881920000000  0.5634000000000 1.0
C      1  0.4369080000000  0.4986860000000  0.5513070000000 1.0
C      1  0.5631410000000  0.5441930000000  0.5353470000000 1.0
C      1  0.5708330000000  0.4895900000000  0.5507120000000 1.0
C      1  0.4117800000000  0.5170030000000  0.4334620000000 1.0
C      1  0.5382320000000  0.5680620000000  0.4988360000000 1.0
C      1  0.5068960000000  0.4304590000000  0.4402170000000 1.0
C      1  0.5195760000000  0.4758520000000  0.4788320000000 1.0
C      1  0.4825810000000  0.4926480000000  0.5228400000000 1.0
C      1  0.5494010000000  0.5330500000000  0.5578960000000 1.0
C      1  0.5207280000000  0.4499170000000  0.4273920000000 1.0
C      1  0.5561110000000  0.5064140000000  0.5681430000000 1.0
C      1  0.5476990000000  0.5469790000000  0.4804150000000 1.0
C      1  0.5209790000000  0.5157470000000  0.4959550000000 1.0
C      1  0.5358880000000  0.4351050000000  0.4880560000000 1.0
C      1  0.4849220000000  0.5814180000000  0.4893560000000 1.0
C      1  0.5856420000000  0.5000960000000  0.5282060000000 1.0
C      1  0.4904440000000  0.4286640000000  0.4638690000000 1.0
C      1  0.4446100000000  0.4037820000000  0.5149100000000 1.0
C      1  0.5080870000000  0.5591470000000  0.5519760000000 1.0
C      1  0.5178970000000  0.5451980000000  0.4267860000000 1.0
C      1  0.5257990000000  0.5299540000000  0.4715940000000 1.0
C      1  0.4504000000000  0.5572400000000  0.4651650000000 1.0
C      1  0.5239240000000  0.4768020000000  0.4257240000000 1.0
C      1  0.4273220000000  0.5109500000000  0.5271070000000 1.0
C      1  0.5095410000000  0.5739720000000  0.5030780000000 1.0
C      1  0.4814510000000  0.4429700000000  0.5656460000000 1.0
C      1  0.4884520000000  0.4387140000000  0.5143850000000 1.0
C      1  0.4920440000000  0.4739850000000  0.4805480000000 1.0
C      1  0.4377850000000  0.5168150000000  0.4415760000000 1.0
C      1  0.4953020000000  0.4359640000000  0.5434460000000 1.0
C      1  0.5080150000000  0.4987720000000  0.4344600000000 1.0
C      1  0.5174000000000  0.5242440000000  0.4447140000000 1.0
C      1  0.4640990000000  0.4620880000000  0.5738060000000 1.0
C      1  0.4762410000000  0.4716100000000  0.4575700000000 1.0
C      1  0.5076990000000  0.5096600000000  0.5652540000000 1.0
C      1  0.5585950000000  0.4508980000000  0.4841530000000 1.0
C      1  0.4464960000000  0.5289470000000  0.4658610000000 1.0
C      1  0.5756210000000  0.4748410000000  0.4857890000000 1.0
C      1  0.4740670000000  0.5154740000000  0.5074460000000 1.0
C      1  0.4634430000000  0.4215960000000  0.5122670000000 1.0
C      1  0.4410040000000  0.5615300000000  0.5118590000000 1.0
C      1  0.5301880000000  0.4952990000000  0.5771670000000 1.0
C      1  0.5542450000000  0.5681880000000  0.5227370000000 1.0
C      1  0.4287290000000  0.5401120000000  0.5240820000000 1.0
C      1  0.4853560000000  0.4978370000000  0.5513430000000 1.0
C      1  0.4579980000000  0.5698280000000  0.4896280000000 1.0
C      1  0.5544930000000  0.4679780000000  0.5421060000000 1.0
END
