TITL C-627113-6568-2158 3.16158358444681e-07 125000 -654.792577316023 0 0 107 (C1) n - 1
REM
REM in /home/nfs/bkarasulu/CARBON/AIRSS/Generating-Clusters/LCBOP/Only-C1/SD-CG/FIRE-CG
REM
REM
REM
REM
REM
REM ./C.cell (11c1c37f851c82e70ff6c80c92926a4b)
REM AIRSS Version 0.9.1 bugfix July 2018 build 013d7b7c2542+ Fri, 06 Jul 2018 19:26:36 +0100
REM compiler GCC version 9.2.1 20190827 (Red Hat 9.2.1-1)
REM options -cpp -mtune=generic -march=x86-64 -g -O0 -fpre-include=/usr/include/finclude/math-vector-fortran.h
REM seed 1625752014 636001626 -1872719873 279648541 -1719286179 -20184695 -1900330820 712877278 -745984161 434274476 -174595291 1998404146 -5498361 -1329379915 -1177878 -709178066 1789720035 -2145683772 677488797 1355688442 652227166 -1565446294 -339746576 1627767684 1131098882 897120344 -1464558051 -1091584499 -56121952 701591820 -1569252946 -1148849299 1235721710
REM
CELL 1.54180   50.00000   50.00000   50.00000   90.00000   90.00000   90.00000
LATT -1
SFAC C  
C      1  0.4660820000000  0.5450600000000  0.4139810000000 1.0
C      1  0.5105680000000  0.4008660000000  0.5215740000000 1.0
C      1  0.4432270000000  0.5716080000000  0.4893150000000 1.0
C      1  0.4273740000000  0.4303130000000  0.4965790000000 1.0
C      1  0.5227940000000  0.5397820000000  0.4293460000000 1.0
C      1  0.4889030000000  0.4804120000000  0.5241720000000 1.0
C      1  0.5183880000000  0.4214380000000  0.4778860000000 1.0
C      1  0.4546440000000  0.5836820000000  0.4436210000000 1.0
C      1  0.5077100000000  0.4609690000000  0.4508880000000 1.0
C      1  0.5929030000000  0.4303050000000  0.4583030000000 1.0
C      1  0.4269670000000  0.4763840000000  0.5394440000000 1.0
C      1  0.4213060000000  0.5530450000000  0.4237320000000 1.0
C      1  0.3769340000000  0.5043790000000  0.4555200000000 1.0
C      1  0.4568200000000  0.4328750000000  0.5349030000000 1.0
C      1  0.4800060000000  0.5442870000000  0.4949280000000 1.0
C      1  0.4664370000000  0.4902570000000  0.4558070000000 1.0
C      1  0.4164190000000  0.4555760000000  0.4148830000000 1.0
C      1  0.5291410000000  0.4345880000000  0.5515720000000 1.0
C      1  0.5270690000000  0.4971480000000  0.5540050000000 1.0
C      1  0.5415930000000  0.4863310000000  0.5119060000000 1.0
C      1  0.5286700000000  0.5535590000000  0.5948540000000 1.0
C      1  0.4415650000000  0.5287520000000  0.4698870000000 1.0
C      1  0.4807850000000  0.4251050000000  0.5479840000000 1.0
C      1  0.5745550000000  0.4482450000000  0.5613100000000 1.0
C      1  0.5808730000000  0.5245490000000  0.5280640000000 1.0
C      1  0.5130450000000  0.6034260000000  0.5437950000000 1.0
C      1  0.5853010000000  0.5139480000000  0.4803860000000 1.0
C      1  0.5711320000000  0.4313870000000  0.4425440000000 1.0
C      1  0.4151510000000  0.4543360000000  0.4976690000000 1.0
C      1  0.4996290000000  0.4715100000000  0.4973740000000 1.0
C      1  0.5278820000000  0.4653460000000  0.4985280000000 1.0
C      1  0.5855960000000  0.5426540000000  0.4848090000000 1.0
C      1  0.5483580000000  0.4933740000000  0.4544140000000 1.0
C      1  0.5835120000000  0.5487210000000  0.5117930000000 1.0
C      1  0.5849790000000  0.5261700000000  0.5758910000000 1.0
C      1  0.4536880000000  0.5467520000000  0.5357540000000 1.0
C      1  0.4513250000000  0.4569180000000  0.5760580000000 1.0
C      1  0.5129050000000  0.6285530000000  0.5507020000000 1.0
C      1  0.6520710000000  0.4876020000000  0.5791180000000 1.0
C      1  0.4267520000000  0.5517460000000  0.4768610000000 1.0
C      1  0.4247490000000  0.4333860000000  0.4040490000000 1.0
C      1  0.6092190000000  0.4603090000000  0.4940650000000 1.0
C      1  0.4737150000000  0.5266920000000  0.5757020000000 1.0
C      1  0.5331670000000  0.5097330000000  0.4716890000000 1.0
C      1  0.4898650000000  0.4768160000000  0.4682300000000 1.0
C      1  0.4094460000000  0.4791230000000  0.4278690000000 1.0
C      1  0.4415020000000  0.4527990000000  0.5496700000000 1.0
C      1  0.5091100000000  0.5483110000000  0.4506240000000 1.0
C      1  0.4524430000000  0.4232600000000  0.5077650000000 1.0
C      1  0.4557930000000  0.4997940000000  0.4295630000000 1.0
C      1  0.5008980000000  0.4069040000000  0.4960250000000 1.0
C      1  0.4483170000000  0.5270840000000  0.5896580000000 1.0
C      1  0.6217250000000  0.4804090000000  0.5363140000000 1.0
C      1  0.3921250000000  0.5282330000000  0.4548940000000 1.0
C      1  0.3902000000000  0.5417550000000  0.5043110000000 1.0
C      1  0.4752640000000  0.4237890000000  0.4622610000000 1.0
C      1  0.6658730000000  0.4914050000000  0.6009050000000 1.0
C      1  0.4814970000000  0.4981910000000  0.5719350000000 1.0
C      1  0.6149110000000  0.4707070000000  0.4475400000000 1.0
C      1  0.4837240000000  0.5195720000000  0.5053570000000 1.0
C      1  0.4767900000000  0.5454790000000  0.5545780000000 1.0
C      1  0.4476500000000  0.5633640000000  0.4249210000000 1.0
C      1  0.4288190000000  0.5293630000000  0.5393760000000 1.0
C      1  0.5066400000000  0.5793130000000  0.4876750000000 1.0
C      1  0.4686450000000  0.4982400000000  0.5151150000000 1.0
C      1  0.5361940000000  0.5132230000000  0.4998730000000 1.0
C      1  0.4729540000000  0.4140120000000  0.4899210000000 1.0
C      1  0.4588460000000  0.5889660000000  0.4715050000000 1.0
C      1  0.5439750000000  0.4798660000000  0.5394620000000 1.0
C      1  0.5947970000000  0.4387310000000  0.5746980000000 1.0
C      1  0.4252010000000  0.4768990000000  0.5110890000000 1.0
C      1  0.4849750000000  0.5976340000000  0.4815820000000 1.0
C      1  0.5241050000000  0.5440570000000  0.5695370000000 1.0
C      1  0.5325030000000  0.5408570000000  0.5084740000000 1.0
C      1  0.5892940000000  0.5032740000000  0.5082100000000 1.0
C      1  0.5351360000000  0.4693460000000  0.4441260000000 1.0
C      1  0.5125980000000  0.5767160000000  0.5360310000000 1.0
C      1  0.6094440000000  0.4512210000000  0.4674500000000 1.0
C      1  0.6376550000000  0.4837870000000  0.5572070000000 1.0
C      1  0.4716020000000  0.5171140000000  0.4131500000000 1.0
C      1  0.4362420000000  0.5024310000000  0.5804950000000 1.0
C      1  0.6060020000000  0.4807750000000  0.5132080000000 1.0
C      1  0.5683410000000  0.5244870000000  0.5539440000000 1.0
C      1  0.4972600000000  0.5547350000000  0.4748140000000 1.0
C      1  0.4117690000000  0.5280440000000  0.4329090000000 1.0
C      1  0.4586730000000  0.4829570000000  0.5827600000000 1.0
C      1  0.5495950000000  0.4541070000000  0.5503250000000 1.0
C      1  0.3991050000000  0.5446270000000  0.4776860000000 1.0
C      1  0.5022860000000  0.4329300000000  0.4557890000000 1.0
C      1  0.5395940000000  0.5223570000000  0.5593910000000 1.0
C      1  0.4592580000000  0.5584800000000  0.5093650000000 1.0
C      1  0.5520270000000  0.4485410000000  0.4348940000000 1.0
C      1  0.5361550000000  0.4399310000000  0.4899680000000 1.0
C      1  0.5035020000000  0.5562270000000  0.5533440000000 1.0
C      1  0.4966490000000  0.5099560000000  0.4024950000000 1.0
C      1  0.4458880000000  0.4919960000000  0.4999840000000 1.0
C      1  0.5765780000000  0.4999150000000  0.4568020000000 1.0
C      1  0.4262310000000  0.5025780000000  0.4276040000000 1.0
C      1  0.4992450000000  0.4896840000000  0.5510130000000 1.0
C      1  0.5214950000000  0.5682510000000  0.5103660000000 1.0
C      1  0.4270560000000  0.5028550000000  0.5530790000000 1.0
C      1  0.5972320000000  0.4898940000000  0.4405870000000 1.0
C      1  0.4480420000000  0.5021290000000  0.4743450000000 1.0
C      1  0.5076500000000  0.4185030000000  0.5434050000000 1.0
C      1  0.3854230000000  0.4819360000000  0.4427980000000 1.0
C      1  0.5197300000000  0.5222140000000  0.4092320000000 1.0
C      1  0.4045480000000  0.5377680000000  0.5268280000000 1.0
END
