TITL C-627106-156-1111 0.0676649771540627 125000 -800.539129196117 0 0 131 (C1) n - 1
REM
REM in /home/nfs/bkarasulu/CARBON/AIRSS/Generating-Clusters/LCBOP/Only-C1/SD-CG/FIRE-CG
REM
REM
REM
REM
REM
REM ./C.cell (11c1c37f851c82e70ff6c80c92926a4b)
REM AIRSS Version 0.9.1 bugfix July 2018 build 013d7b7c2542+ Fri, 06 Jul 2018 19:26:36 +0100
REM compiler GCC version 9.2.1 20190827 (Red Hat 9.2.1-1)
REM options -cpp -mtune=generic -march=x86-64 -g -O0 -fpre-include=/usr/include/finclude/math-vector-fortran.h
REM seed 1641529805 680784795 153380182 -101327854 -712149414 -2101656357 551277040 -697299923 1719379098 91514261 463167588 326942121 -17628583 -200123933 2047380839 1776086709 -1054195184 642527029 1339037459 -604161373 -676041564 1698058004 765858956 1494492884 -1050533581 -94667697 -349477655 1132259349 -788178661 -1791423386 167455832 1840072179 -799378191
REM
CELL 1.54180   50.00000   50.00000   50.00000   90.00000   90.00000   90.00000
LATT -1
SFAC C  
C      1  0.5456560000000  0.3899030000000  0.5979570000000 1.0
C      1  0.5495750000000  0.5050260000000  0.3892200000000 1.0
C      1  0.4773100000000  0.5518980000000  0.4308370000000 1.0
C      1  0.4500260000000  0.5344120000000  0.5288550000000 1.0
C      1  0.4689330000000  0.5543990000000  0.5228300000000 1.0
C      1  0.5761280000000  0.4203060000000  0.5682780000000 1.0
C      1  0.4887060000000  0.5616160000000  0.5417840000000 1.0
C      1  0.4876740000000  0.4875100000000  0.3412060000000 1.0
C      1  0.4621250000000  0.5023270000000  0.4718690000000 1.0
C      1  0.4376710000000  0.5380780000000  0.4084480000000 1.0
C      1  0.4640490000000  0.5387110000000  0.5954440000000 1.0
C      1  0.4981920000000  0.4605190000000  0.5498110000000 1.0
C      1  0.5384840000000  0.5882140000000  0.4271870000000 1.0
C      1  0.4370050000000  0.6012520000000  0.5614120000000 1.0
C      1  0.5230760000000  0.5680190000000  0.4891490000000 1.0
C      1  0.4367680000000  0.4098540000000  0.5233530000000 1.0
C      1  0.4119440000000  0.6414930000000  0.5731500000000 1.0
C      1  0.5749630000000  0.4969010000000  0.4440420000000 1.0
C      1  0.5075910000000  0.3525280000000  0.4470940000000 1.0
C      1  0.4987830000000  0.4171970000000  0.6438760000000 1.0
C      1  0.4822950000000  0.4635460000000  0.4986600000000 1.0
C      1  0.5401790000000  0.4513540000000  0.6493190000000 1.0
C      1  0.4930100000000  0.4482910000000  0.4786640000000 1.0
C      1  0.4067960000000  0.4542250000000  0.4585100000000 1.0
C      1  0.4760260000000  0.4090310000000  0.6013720000000 1.0
C      1  0.5213740000000  0.3924480000000  0.6085220000000 1.0
C      1  0.4561150000000  0.6186550000000  0.5479060000000 1.0
C      1  0.5693860000000  0.4425990000000  0.5230600000000 1.0
C      1  0.4739700000000  0.5136290000000  0.5943050000000 1.0
C      1  0.4895240000000  0.5770890000000  0.4351870000000 1.0
C      1  0.4450020000000  0.4850760000000  0.5146030000000 1.0
C      1  0.4581240000000  0.6457110000000  0.5582660000000 1.0
C      1  0.5559800000000  0.5485810000000  0.4027700000000 1.0
C      1  0.4940910000000  0.4391630000000  0.4248520000000 1.0
C      1  0.4870890000000  0.5119210000000  0.4614750000000 1.0
C      1  0.5325730000000  0.4160430000000  0.4385270000000 1.0
C      1  0.4925900000000  0.5032160000000  0.3613960000000 1.0
C      1  0.4415280000000  0.4343990000000  0.5101550000000 1.0
C      1  0.4807330000000  0.4092490000000  0.6628310000000 1.0
C      1  0.5842470000000  0.4621130000000  0.6242670000000 1.0
C      1  0.4227120000000  0.5032810000000  0.5740860000000 1.0
C      1  0.4610540000000  0.5646930000000  0.4737050000000 1.0
C      1  0.5922020000000  0.5202290000000  0.4850780000000 1.0
C      1  0.5187560000000  0.4556130000000  0.4713950000000 1.0
C      1  0.4411840000000  0.5497380000000  0.5827760000000 1.0
C      1  0.4821260000000  0.6141220000000  0.5000840000000 1.0
C      1  0.4498950000000  0.4662270000000  0.4145080000000 1.0
C      1  0.4935180000000  0.6026240000000  0.4770630000000 1.0
C      1  0.4733170000000  0.4533990000000  0.4128310000000 1.0
C      1  0.5707590000000  0.5223550000000  0.3989070000000 1.0
C      1  0.5146100000000  0.3862470000000  0.5130600000000 1.0
C      1  0.5872120000000  0.5671700000000  0.4306680000000 1.0
C      1  0.4425800000000  0.5459840000000  0.4584310000000 1.0
C      1  0.4339220000000  0.6566560000000  0.5683060000000 1.0
C      1  0.4856300000000  0.4182030000000  0.4443790000000 1.0
C      1  0.5078750000000  0.5069050000000  0.5145030000000 1.0
C      1  0.4052430000000  0.4803920000000  0.4529540000000 1.0
C      1  0.5213680000000  0.4014320000000  0.5337690000000 1.0
C      1  0.4391490000000  0.5163630000000  0.4614450000000 1.0
C      1  0.4617560000000  0.4820610000000  0.4915180000000 1.0
C      1  0.5321280000000  0.4640600000000  0.4475640000000 1.0
C      1  0.5377590000000  0.5986040000000  0.4539580000000 1.0
C      1  0.4699940000000  0.4915690000000  0.5771150000000 1.0
C      1  0.5039400000000  0.5470820000000  0.4896400000000 1.0
C      1  0.5708200000000  0.5383270000000  0.4801210000000 1.0
C      1  0.5320630000000  0.5355780000000  0.5443010000000 1.0
C      1  0.4785780000000  0.5130370000000  0.4081760000000 1.0
C      1  0.4770380000000  0.5863320000000  0.4599180000000 1.0
C      1  0.4498500000000  0.5125180000000  0.4048180000000 1.0
C      1  0.5237080000000  0.4429940000000  0.4288920000000 1.0
C      1  0.5968630000000  0.5413850000000  0.4331670000000 1.0
C      1  0.5318080000000  0.5377210000000  0.4155620000000 1.0
C      1  0.4376480000000  0.4911710000000  0.4188460000000 1.0
C      1  0.4383410000000  0.4594370000000  0.5265550000000 1.0
C      1  0.5286720000000  0.6841190000000  0.5573200000000 1.0
C      1  0.5919740000000  0.4979280000000  0.4673710000000 1.0
C      1  0.4387530000000  0.4590310000000  0.5557480000000 1.0
C      1  0.5472190000000  0.5339730000000  0.4656060000000 1.0
C      1  0.5606300000000  0.4277660000000  0.5457190000000 1.0
C      1  0.5081690000000  0.5162620000000  0.4843720000000 1.0
C      1  0.5209630000000  0.5933650000000  0.4763610000000 1.0
C      1  0.6109180000000  0.5239200000000  0.5044660000000 1.0
C      1  0.4976030000000  0.5497350000000  0.3793310000000 1.0
C      1  0.5110550000000  0.3772910000000  0.4883200000000 1.0
C      1  0.5325950000000  0.4229010000000  0.5477380000000 1.0
C      1  0.5089630000000  0.4007920000000  0.4463360000000 1.0
C      1  0.4891830000000  0.4543180000000  0.5240360000000 1.0
C      1  0.4689230000000  0.6136090000000  0.5233580000000 1.0
C      1  0.5243130000000  0.5154740000000  0.3979940000000 1.0
C      1  0.5938280000000  0.4383110000000  0.5803700000000 1.0
C      1  0.4241900000000  0.4988030000000  0.4434500000000 1.0
C      1  0.4765930000000  0.5549270000000  0.4956970000000 1.0
C      1  0.4574310000000  0.5075080000000  0.5277350000000 1.0
C      1  0.5165680000000  0.4424360000000  0.5602130000000 1.0
C      1  0.4213500000000  0.5300830000000  0.5774150000000 1.0
C      1  0.4327550000000  0.3853630000000  0.5313280000000 1.0
C      1  0.4475840000000  0.4313630000000  0.4811700000000 1.0
C      1  0.5623150000000  0.5731040000000  0.4172540000000 1.0
C      1  0.5333190000000  0.5432170000000  0.4429560000000 1.0
C      1  0.5111370000000  0.5832530000000  0.4166440000000 1.0
C      1  0.5469060000000  0.4884510000000  0.4513050000000 1.0
C      1  0.4973930000000  0.5194130000000  0.3853150000000 1.0
C      1  0.5055790000000  0.6720470000000  0.5581090000000 1.0
C      1  0.5328510000000  0.5121180000000  0.5285530000000 1.0
C      1  0.5568200000000  0.4134610000000  0.4524870000000 1.0
C      1  0.5537670000000  0.4936800000000  0.5275090000000 1.0
C      1  0.4741800000000  0.4294250000000  0.4682420000000 1.0
C      1  0.5750210000000  0.4296160000000  0.4987960000000 1.0
C      1  0.4863400000000  0.5242500000000  0.4344170000000 1.0
C      1  0.5960360000000  0.4540630000000  0.6017810000000 1.0
C      1  0.4892660000000  0.4863100000000  0.5568240000000 1.0
C      1  0.5841530000000  0.5167660000000  0.4238230000000 1.0
C      1  0.4248370000000  0.4355750000000  0.4649060000000 1.0
C      1  0.4412630000000  0.5754230000000  0.5714930000000 1.0
C      1  0.5664820000000  0.4705430000000  0.5241230000000 1.0
C      1  0.5663530000000  0.3988370000000  0.5837160000000 1.0
C      1  0.5059850000000  0.5731020000000  0.3903600000000 1.0
C      1  0.5181150000000  0.4366040000000  0.6497550000000 1.0
C      1  0.4129960000000  0.6146480000000  0.5692300000000 1.0
C      1  0.4821710000000  0.6596570000000  0.5587500000000 1.0
C      1  0.5706380000000  0.4191410000000  0.4746530000000 1.0
C      1  0.5134310000000  0.5543320000000  0.5494350000000 1.0
C      1  0.4856060000000  0.5026900000000  0.5330370000000 1.0
C      1  0.5636240000000  0.4606920000000  0.6410060000000 1.0
C      1  0.5345390000000  0.5081060000000  0.4701080000000 1.0
C      1  0.4428300000000  0.4353030000000  0.5702480000000 1.0
C      1  0.4567600000000  0.4189960000000  0.5860050000000 1.0
C      1  0.4984390000000  0.4056030000000  0.6178360000000 1.0
C      1  0.4480760000000  0.5524580000000  0.4303400000000 1.0
C      1  0.5091710000000  0.3763640000000  0.4603430000000 1.0
C      1  0.4426670000000  0.4834660000000  0.5706420000000 1.0
END
