TITL C-627112-676-224 0.000233474821910805 125000 -620.77653015577 0 0 102 (C1) n - 1
REM
REM in /home/nfs/bkarasulu/CARBON/AIRSS/Generating-Clusters/LCBOP/Only-C1/SD-CG/FIRE-CG
REM
REM
REM
REM
REM
REM ./C.cell (11c1c37f851c82e70ff6c80c92926a4b)
REM AIRSS Version 0.9.1 bugfix July 2018 build 013d7b7c2542+ Fri, 06 Jul 2018 19:26:36 +0100
REM compiler GCC version 9.2.1 20190827 (Red Hat 9.2.1-1)
REM options -cpp -mtune=generic -march=x86-64 -g -O0 -fpre-include=/usr/include/finclude/math-vector-fortran.h
REM seed -113777626 -405081744 490165477 -1780879950 453864936 -274160278 -1935701648 1945291174 -1168955941 -1120509963 799251253 -330223005 289483785 -244615666 20833582 772169325 1408794315 -1495853012 -418597217 314029541 1368238365 -2003411110 1070875475 -305529477 -873681823 -1181777506 740882609 2047506487 1620525723 -1358926884 980392663 1320733109 1256669520
REM
CELL 1.54180   50.00000   50.00000   50.00000   90.00000   90.00000   90.00000
LATT -1
SFAC C  
C      1  0.5605470000000  0.5655080000000  0.4536430000000 1.0
C      1  0.3892210000000  0.5345840000000  0.4934310000000 1.0
C      1  0.4339700000000  0.4752260000000  0.4270790000000 1.0
C      1  0.4737930000000  0.4737250000000  0.4988510000000 1.0
C      1  0.5785830000000  0.4378220000000  0.4937480000000 1.0
C      1  0.4530950000000  0.4529730000000  0.4299130000000 1.0
C      1  0.4768510000000  0.4954210000000  0.4537480000000 1.0
C      1  0.3884720000000  0.5191300000000  0.4711260000000 1.0
C      1  0.5790080000000  0.4780850000000  0.4569870000000 1.0
C      1  0.4041570000000  0.5382520000000  0.5177940000000 1.0
C      1  0.4397060000000  0.4991220000000  0.4129890000000 1.0
C      1  0.5434180000000  0.4746760000000  0.5712840000000 1.0
C      1  0.4971320000000  0.4151650000000  0.4818840000000 1.0
C      1  0.5553530000000  0.5145110000000  0.4714470000000 1.0
C      1  0.5016090000000  0.4706700000000  0.5028450000000 1.0
C      1  0.5115860000000  0.4495360000000  0.6452520000000 1.0
C      1  0.4316340000000  0.4699330000000  0.4737320000000 1.0
C      1  0.4867210000000  0.5817940000000  0.4528490000000 1.0
C      1  0.4175450000000  0.4792300000000  0.4507280000000 1.0
C      1  0.4237120000000  0.5590300000000  0.5189600000000 1.0
C      1  0.5331160000000  0.5704000000000  0.4956690000000 1.0
C      1  0.4628320000000  0.5262840000000  0.4879870000000 1.0
C      1  0.5619170000000  0.4284770000000  0.5134370000000 1.0
C      1  0.4450420000000  0.4401080000000  0.5359580000000 1.0
C      1  0.5134510000000  0.5246260000000  0.4088830000000 1.0
C      1  0.4197810000000  0.5040590000000  0.5552540000000 1.0
C      1  0.5792960000000  0.4642470000000  0.4827610000000 1.0
C      1  0.5404930000000  0.5519460000000  0.5700470000000 1.0
C      1  0.5235510000000  0.4133160000000  0.4925440000000 1.0
C      1  0.4230480000000  0.4978350000000  0.5086760000000 1.0
C      1  0.4788390000000  0.5703170000000  0.5619010000000 1.0
C      1  0.4790170000000  0.5178240000000  0.5719310000000 1.0
C      1  0.4777850000000  0.5447240000000  0.5703570000000 1.0
C      1  0.3978430000000  0.4992190000000  0.4553530000000 1.0
C      1  0.5330880000000  0.4254640000000  0.5179360000000 1.0
C      1  0.4868430000000  0.5907980000000  0.5460980000000 1.0
C      1  0.5169800000000  0.4966070000000  0.4171000000000 1.0
C      1  0.5506180000000  0.4207710000000  0.4483540000000 1.0
C      1  0.5370340000000  0.5621130000000  0.4366890000000 1.0
C      1  0.4617250000000  0.4729520000000  0.4709630000000 1.0
C      1  0.4270510000000  0.4506890000000  0.5193710000000 1.0
C      1  0.5205490000000  0.4387310000000  0.5427930000000 1.0
C      1  0.5470200000000  0.4911630000000  0.4195700000000 1.0
C      1  0.5851770000000  0.5533500000000  0.4456080000000 1.0
C      1  0.5206450000000  0.5338550000000  0.5308650000000 1.0
C      1  0.5134150000000  0.5772320000000  0.4431590000000 1.0
C      1  0.5948080000000  0.5282040000000  0.4496230000000 1.0
C      1  0.5010080000000  0.4871310000000  0.4387010000000 1.0
C      1  0.5134170000000  0.5506470000000  0.4884310000000 1.0
C      1  0.4955560000000  0.6058150000000  0.4984930000000 1.0
C      1  0.4118320000000  0.5129100000000  0.5299390000000 1.0
C      1  0.4448840000000  0.5254130000000  0.4152550000000 1.0
C      1  0.5319310000000  0.4382560000000  0.6924020000000 1.0
C      1  0.4725120000000  0.4014780000000  0.5377690000000 1.0
C      1  0.5368360000000  0.5395860000000  0.4183350000000 1.0
C      1  0.4853240000000  0.4668060000000  0.5703640000000 1.0
C      1  0.5552110000000  0.4282230000000  0.5754390000000 1.0
C      1  0.5695760000000  0.4803230000000  0.5044410000000 1.0
C      1  0.4699660000000  0.5451250000000  0.5079390000000 1.0
C      1  0.5087910000000  0.5283570000000  0.4714330000000 1.0
C      1  0.5042530000000  0.5969870000000  0.5243430000000 1.0
C      1  0.4717830000000  0.3878510000000  0.5146310000000 1.0
C      1  0.4691810000000  0.4912090000000  0.5681180000000 1.0
C      1  0.5400480000000  0.4475600000000  0.5630170000000 1.0
C      1  0.4224200000000  0.4709120000000  0.5007530000000 1.0
C      1  0.5787170000000  0.5595180000000  0.4987820000000 1.0
C      1  0.5424380000000  0.4093490000000  0.4713150000000 1.0
C      1  0.5108620000000  0.4608600000000  0.4772480000000 1.0
C      1  0.4495600000000  0.5656060000000  0.5091410000000 1.0
C      1  0.4813770000000  0.5196900000000  0.4680820000000 1.0
C      1  0.5188060000000  0.4839690000000  0.5205160000000 1.0
C      1  0.4663210000000  0.5684870000000  0.4379030000000 1.0
C      1  0.5218400000000  0.4438500000000  0.6690240000000 1.0
C      1  0.4956510000000  0.5337470000000  0.3904780000000 1.0
C      1  0.5581470000000  0.5701030000000  0.4821120000000 1.0
C      1  0.4699870000000  0.4290250000000  0.5428230000000 1.0
C      1  0.5286020000000  0.5079150000000  0.4697330000000 1.0
C      1  0.5192490000000  0.4820970000000  0.4609430000000 1.0
C      1  0.5575090000000  0.5186400000000  0.4161660000000 1.0
C      1  0.5464080000000  0.5003420000000  0.5789370000000 1.0
C      1  0.4409770000000  0.4907960000000  0.5652890000000 1.0
C      1  0.5287820000000  0.5597330000000  0.5452660000000 1.0
C      1  0.4787150000000  0.3958350000000  0.4899410000000 1.0
C      1  0.4932560000000  0.4607910000000  0.5968660000000 1.0
C      1  0.5109600000000  0.5061560000000  0.5359920000000 1.0
C      1  0.5734550000000  0.5386980000000  0.5153090000000 1.0
C      1  0.5015830000000  0.4551960000000  0.6213780000000 1.0
C      1  0.5496900000000  0.5272670000000  0.5209280000000 1.0
C      1  0.4936600000000  0.4390150000000  0.4668810000000 1.0
C      1  0.5617050000000  0.4702520000000  0.4343840000000 1.0
C      1  0.5465610000000  0.4805430000000  0.5179120000000 1.0
C      1  0.5553760000000  0.4426940000000  0.4336070000000 1.0
C      1  0.4979650000000  0.5448200000000  0.5126690000000 1.0
C      1  0.4539460000000  0.5860490000000  0.4899460000000 1.0
C      1  0.4789410000000  0.5940170000000  0.4784390000000 1.0
C      1  0.4921520000000  0.4456370000000  0.5505470000000 1.0
C      1  0.5459870000000  0.5273000000000  0.5801530000000 1.0
C      1  0.5277460000000  0.5801730000000  0.5235110000000 1.0
C      1  0.4388510000000  0.5135740000000  0.4915850000000 1.0
C      1  0.4695780000000  0.4483700000000  0.4536960000000 1.0
C      1  0.4529660000000  0.5489360000000  0.4253160000000 1.0
C      1  0.5800700000000  0.5066630000000  0.4602020000000 1.0
END
