TITL C-627110-360-223 0.184594711307361 125000 -615.287228892145 0 0 102 (C1) n - 1
REM
REM in /home/nfs/bkarasulu/CARBON/AIRSS/Generating-Clusters/LCBOP/Only-C1/SD-CG/FIRE-CG
REM
REM
REM
REM
REM
REM ./C.cell (11c1c37f851c82e70ff6c80c92926a4b)
REM AIRSS Version 0.9.1 bugfix July 2018 build 013d7b7c2542+ Fri, 06 Jul 2018 19:26:36 +0100
REM compiler GCC version 9.2.1 20190827 (Red Hat 9.2.1-1)
REM options -cpp -mtune=generic -march=x86-64 -g -O0 -fpre-include=/usr/include/finclude/math-vector-fortran.h
REM seed 1346865050 1137362552 -2033409249 -1270320524 2115743268 -514222678 -2028048020 -1610063799 -1596331726 -1259738554 -1122098518 1708535448 1537565474 1230941093 -824462416 1070768872 1348978078 -1366396302 4459338 1281538391 76173936 2079645649 -2107093970 336180053 -266597236 -1558427878 -408406009 -859946182 -588968962 1442079488 1285381096 -591183019 -188465792
REM
CELL 1.54180   50.00000   50.00000   50.00000   90.00000   90.00000   90.00000
LATT -1
SFAC C  
C      1  0.3976180000000  0.5328440000000  0.5215290000000 1.0
C      1  0.5148590000000  0.4062940000000  0.5132290000000 1.0
C      1  0.5083090000000  0.4811470000000  0.3971630000000 1.0
C      1  0.4794830000000  0.5372750000000  0.5069790000000 1.0
C      1  0.4873600000000  0.5327320000000  0.5695580000000 1.0
C      1  0.5237430000000  0.4315180000000  0.5077650000000 1.0
C      1  0.5097040000000  0.4881990000000  0.4627320000000 1.0
C      1  0.5001480000000  0.5567680000000  0.5768750000000 1.0
C      1  0.5510790000000  0.4393470000000  0.5098630000000 1.0
C      1  0.4507970000000  0.6148220000000  0.5825690000000 1.0
C      1  0.4025400000000  0.4711130000000  0.4970860000000 1.0
C      1  0.4259220000000  0.4011220000000  0.5558110000000 1.0
C      1  0.4828270000000  0.5624670000000  0.4989600000000 1.0
C      1  0.4546990000000  0.4569860000000  0.4347800000000 1.0
C      1  0.4642350000000  0.5119190000000  0.3622960000000 1.0
C      1  0.5285650000000  0.4438680000000  0.4541700000000 1.0
C      1  0.5171200000000  0.5880780000000  0.5213300000000 1.0
C      1  0.4796880000000  0.4752000000000  0.3959680000000 1.0
C      1  0.4514130000000  0.5353290000000  0.4673940000000 1.0
C      1  0.4677760000000  0.4531210000000  0.4099020000000 1.0
C      1  0.4397330000000  0.5941510000000  0.5951880000000 1.0
C      1  0.5357970000000  0.4985150000000  0.4554780000000 1.0
C      1  0.4329790000000  0.4404790000000  0.4452710000000 1.0
C      1  0.4008690000000  0.4724320000000  0.4676960000000 1.0
C      1  0.5909900000000  0.4851930000000  0.5488460000000 1.0
C      1  0.5704910000000  0.4223610000000  0.5216070000000 1.0
C      1  0.5040400000000  0.4225220000000  0.4138680000000 1.0
C      1  0.5868340000000  0.4071180000000  0.5058360000000 1.0
C      1  0.4976410000000  0.5191200000000  0.5466940000000 1.0
C      1  0.5114230000000  0.4602830000000  0.4717400000000 1.0
C      1  0.4634340000000  0.4917410000000  0.3799420000000 1.0
C      1  0.5613410000000  0.5940910000000  0.5030230000000 1.0
C      1  0.4063770000000  0.4510190000000  0.4494940000000 1.0
C      1  0.4820600000000  0.5469110000000  0.3332620000000 1.0
C      1  0.5464110000000  0.4810570000000  0.4343550000000 1.0
C      1  0.4642960000000  0.4780890000000  0.4515530000000 1.0
C      1  0.4384070000000  0.4187750000000  0.4625910000000 1.0
C      1  0.5479860000000  0.5336510000000  0.4889360000000 1.0
C      1  0.5261250000000  0.4687470000000  0.4154480000000 1.0
C      1  0.5550590000000  0.4565800000000  0.4496710000000 1.0
C      1  0.4737110000000  0.5241940000000  0.4561340000000 1.0
C      1  0.4383350000000  0.5678140000000  0.5986780000000 1.0
C      1  0.4132590000000  0.4200330000000  0.5089820000000 1.0
C      1  0.6345730000000  0.4814620000000  0.5264970000000 1.0
C      1  0.5941400000000  0.4950190000000  0.5020980000000 1.0
C      1  0.4755560000000  0.6090170000000  0.5158150000000 1.0
C      1  0.4353330000000  0.6337710000000  0.4894560000000 1.0
C      1  0.4790610000000  0.4276800000000  0.4050940000000 1.0
C      1  0.5255660000000  0.5161660000000  0.5450240000000 1.0
C      1  0.5449060000000  0.5362210000000  0.5369650000000 1.0
C      1  0.4854900000000  0.5270340000000  0.3515100000000 1.0
C      1  0.5083780000000  0.5978660000000  0.5474200000000 1.0
C      1  0.3751830000000  0.6684300000000  0.4515900000000 1.0
C      1  0.5685310000000  0.4895050000000  0.4917020000000 1.0
C      1  0.5725270000000  0.4243920000000  0.5757910000000 1.0
C      1  0.4468940000000  0.5430860000000  0.5940290000000 1.0
C      1  0.4553880000000  0.6220410000000  0.5021710000000 1.0
C      1  0.5692200000000  0.4365860000000  0.6268160000000 1.0
C      1  0.4487990000000  0.4859950000000  0.4998240000000 1.0
C      1  0.5195520000000  0.4418640000000  0.4265340000000 1.0
C      1  0.5243250000000  0.4693800000000  0.5552050000000 1.0
C      1  0.4994200000000  0.4598270000000  0.5458770000000 1.0
C      1  0.4673200000000  0.4254790000000  0.5723330000000 1.0
C      1  0.4645150000000  0.5237650000000  0.5838770000000 1.0
C      1  0.6604110000000  0.4756650000000  0.5271340000000 1.0
C      1  0.7375390000000  0.4583260000000  0.5290340000000 1.0
C      1  0.4201020000000  0.4925270000000  0.4608340000000 1.0
C      1  0.3950140000000  0.6570040000000  0.4640730000000 1.0
C      1  0.4822630000000  0.5144830000000  0.5230950000000 1.0
C      1  0.4923930000000  0.5877170000000  0.5057790000000 1.0
C      1  0.4913450000000  0.4662210000000  0.5187810000000 1.0
C      1  0.4459800000000  0.4859870000000  0.4711000000000 1.0
C      1  0.5181960000000  0.5008470000000  0.3795590000000 1.0
C      1  0.7121110000000  0.4640420000000  0.5284070000000 1.0
C      1  0.4850090000000  0.4979620000000  0.4530930000000 1.0
C      1  0.5397690000000  0.4925130000000  0.5544260000000 1.0
C      1  0.4158330000000  0.5201440000000  0.5056330000000 1.0
C      1  0.6862570000000  0.4698550000000  0.5277700000000 1.0
C      1  0.4151770000000  0.6453870000000  0.4767660000000 1.0
C      1  0.5448170000000  0.5494480000000  0.5121480000000 1.0
C      1  0.5726970000000  0.4215300000000  0.5494600000000 1.0
C      1  0.4136440000000  0.4050470000000  0.5325330000000 1.0
C      1  0.5710530000000  0.4301480000000  0.6016210000000 1.0
C      1  0.4463420000000  0.4092410000000  0.5708200000000 1.0
C      1  0.4286510000000  0.4120920000000  0.4867160000000 1.0
C      1  0.4677250000000  0.6226900000000  0.5635620000000 1.0
C      1  0.5681290000000  0.4992960000000  0.5564910000000 1.0
C      1  0.4210950000000  0.4916700000000  0.5079690000000 1.0
C      1  0.5097350000000  0.5805750000000  0.5694100000000 1.0
C      1  0.5414070000000  0.5776500000000  0.5119340000000 1.0
C      1  0.4843250000000  0.6138860000000  0.5430870000000 1.0
C      1  0.5521230000000  0.5083130000000  0.4771450000000 1.0
C      1  0.5106790000000  0.5193480000000  0.3616600000000 1.0
C      1  0.4838880000000  0.4436390000000  0.5624120000000 1.0
C      1  0.4010870000000  0.4455050000000  0.5086610000000 1.0
C      1  0.4733700000000  0.4883720000000  0.5142800000000 1.0
C      1  0.4313110000000  0.5342580000000  0.4857640000000 1.0
C      1  0.5688080000000  0.5279000000000  0.5506510000000 1.0
C      1  0.4599330000000  0.4971530000000  0.5880560000000 1.0
C      1  0.5060370000000  0.4521780000000  0.4984090000000 1.0
C      1  0.5582080000000  0.4646470000000  0.5000050000000 1.0
C      1  0.6073810000000  0.4871280000000  0.5258460000000 1.0
END
