TITL C-627110-360-1894 0.0363737289330407 125000 -500.785458783361 0 0 83 (C1) n - 1
REM
REM in /home/nfs/bkarasulu/CARBON/AIRSS/Generating-Clusters/LCBOP/Only-C1/SD-CG/FIRE-CG
REM
REM
REM
REM
REM
REM ./C.cell (11c1c37f851c82e70ff6c80c92926a4b)
REM AIRSS Version 0.9.1 bugfix July 2018 build 013d7b7c2542+ Fri, 06 Jul 2018 19:26:36 +0100
REM compiler GCC version 9.2.1 20190827 (Red Hat 9.2.1-1)
REM options -cpp -mtune=generic -march=x86-64 -g -O0 -fpre-include=/usr/include/finclude/math-vector-fortran.h
REM seed 336978696 1449102561 -2016832716 -348826670 1597531749 -1416982093 -515517643 1353682313 1755743829 497175441 -354918604 -137637306 1969081365 -1587184541 410500134 1061692124 -1229372990 828696127 -948307634 949175653 -1358751906 -1370255693 792156237 -1461522007 681644178 -576547620 249795898 -1915602078 -1367909257 -572647133 1299812732 1916725768 1531446701
REM
CELL 1.54180   50.00000   50.00000   50.00000   90.00000   90.00000   90.00000
LATT -1
SFAC C  
C      1  0.5457570000000  0.4796700000000  0.4235540000000 1.0
C      1  0.5266630000000  0.4367520000000  0.4881550000000 1.0
C      1  0.5693240000000  0.3847420000000  0.4619960000000 1.0
C      1  0.5009000000000  0.5583640000000  0.5525620000000 1.0
C      1  0.5637750000000  0.5671850000000  0.5012840000000 1.0
C      1  0.4869840000000  0.5359430000000  0.5648860000000 1.0
C      1  0.4948230000000  0.5006320000000  0.4624750000000 1.0
C      1  0.5093490000000  0.4920010000000  0.5528310000000 1.0
C      1  0.4800650000000  0.4559560000000  0.4932930000000 1.0
C      1  0.4754830000000  0.4618700000000  0.4463390000000 1.0
C      1  0.5540320000000  0.4053490000000  0.5672440000000 1.0
C      1  0.5067500000000  0.5149860000000  0.5698710000000 1.0
C      1  0.5887760000000  0.3854160000000  0.4803300000000 1.0
C      1  0.5486380000000  0.4790900000000  0.4817960000000 1.0
C      1  0.5483020000000  0.5698230000000  0.5473240000000 1.0
C      1  0.5762820000000  0.5238130000000  0.4759100000000 1.0
C      1  0.4345390000000  0.5234500000000  0.4470710000000 1.0
C      1  0.5177480000000  0.5835380000000  0.5137110000000 1.0
C      1  0.4992590000000  0.4074490000000  0.4483150000000 1.0
C      1  0.4547540000000  0.5244620000000  0.5343610000000 1.0
C      1  0.5294600000000  0.5255590000000  0.4276880000000 1.0
C      1  0.4107340000000  0.5368480000000  0.4897670000000 1.0
C      1  0.4956790000000  0.5686550000000  0.5263420000000 1.0
C      1  0.5303420000000  0.5312620000000  0.5759850000000 1.0
C      1  0.5415450000000  0.4274980000000  0.4325790000000 1.0
C      1  0.3729490000000  0.5609710000000  0.5614470000000 1.0
C      1  0.5274530000000  0.4061880000000  0.4447220000000 1.0
C      1  0.3399670000000  0.5470110000000  0.5999320000000 1.0
C      1  0.5528820000000  0.5063160000000  0.4691840000000 1.0
C      1  0.4651490000000  0.4849120000000  0.4314070000000 1.0
C      1  0.4196470000000  0.6237980000000  0.5072620000000 1.0
C      1  0.5089930000000  0.4266890000000  0.5560650000000 1.0
C      1  0.4887380000000  0.4576050000000  0.5208960000000 1.0
C      1  0.4717570000000  0.5637150000000  0.5098630000000 1.0
C      1  0.3561190000000  0.5540320000000  0.5807120000000 1.0
C      1  0.5290890000000  0.5747360000000  0.4287250000000 1.0
C      1  0.5446560000000  0.5760340000000  0.5199060000000 1.0
C      1  0.5295210000000  0.4156710000000  0.5692000000000 1.0
C      1  0.5753690000000  0.3975300000000  0.5533680000000 1.0
C      1  0.4089790000000  0.5731720000000  0.5225670000000 1.0
C      1  0.5413890000000  0.3871960000000  0.4611370000000 1.0
C      1  0.5166530000000  0.4203260000000  0.5088940000000 1.0
C      1  0.4499800000000  0.5464330000000  0.5170230000000 1.0
C      1  0.5248150000000  0.4626830000000  0.4765780000000 1.0
C      1  0.5199910000000  0.5506310000000  0.4374360000000 1.0
C      1  0.4695540000000  0.4310220000000  0.4832800000000 1.0
C      1  0.4741240000000  0.5583230000000  0.4607660000000 1.0
C      1  0.4859110000000  0.6004390000000  0.4818140000000 1.0
C      1  0.5606450000000  0.4754650000000  0.5074310000000 1.0
C      1  0.5094530000000  0.6031180000000  0.4950970000000 1.0
C      1  0.4719920000000  0.5756900000000  0.4832550000000 1.0
C      1  0.4230320000000  0.5521310000000  0.5097590000000 1.0
C      1  0.4785860000000  0.4138450000000  0.4643570000000 1.0
C      1  0.5306750000000  0.5217600000000  0.4839340000000 1.0
C      1  0.5504530000000  0.4524900000000  0.4285040000000 1.0
C      1  0.5001200000000  0.5474090000000  0.4577380000000 1.0
C      1  0.5087150000000  0.5082380000000  0.4154260000000 1.0
C      1  0.5595980000000  0.5012130000000  0.5465200000000 1.0
C      1  0.4139030000000  0.5250960000000  0.4660100000000 1.0
C      1  0.5768950000000  0.5481700000000  0.4876540000000 1.0
C      1  0.5953300000000  0.3880430000000  0.5060350000000 1.0
C      1  0.5050540000000  0.5241530000000  0.4736090000000 1.0
C      1  0.4403060000000  0.5340010000000  0.5809860000000 1.0
C      1  0.5027220000000  0.4341420000000  0.5298390000000 1.0
C      1  0.4945740000000  0.4711300000000  0.4705160000000 1.0
C      1  0.4878660000000  0.5025340000000  0.4335200000000 1.0
C      1  0.4670110000000  0.5001570000000  0.5275300000000 1.0
C      1  0.5482400000000  0.5051010000000  0.4391760000000 1.0
C      1  0.5276700000000  0.3784100000000  0.4843870000000 1.0
C      1  0.5431350000000  0.4639060000000  0.5279740000000 1.0
C      1  0.3905840000000  0.5673430000000  0.5427420000000 1.0
C      1  0.4233140000000  0.5354020000000  0.6006940000000 1.0
C      1  0.5899600000000  0.3920210000000  0.5318040000000 1.0
C      1  0.4881470000000  0.4826390000000  0.5348350000000 1.0
C      1  0.5739220000000  0.4962520000000  0.5230960000000 1.0
C      1  0.5361480000000  0.4835720000000  0.5481900000000 1.0
C      1  0.4528040000000  0.5452710000000  0.4477150000000 1.0
C      1  0.4136000000000  0.5996280000000  0.5149050000000 1.0
C      1  0.5288780000000  0.5567450000000  0.5625840000000 1.0
C      1  0.5186620000000  0.3925910000000  0.5054170000000 1.0
C      1  0.5237610000000  0.4858510000000  0.4054650000000 1.0
C      1  0.4409230000000  0.4989680000000  0.4340990000000 1.0
C      1  0.4596740000000  0.5317690000000  0.5613440000000 1.0
END
