TITL C-627107-135-1794 722.500535087001 125000 -1069.30076218471 0 0 173 (C1) n - 1
REM
REM in /home/nfs/bkarasulu/CARBON/AIRSS/Generating-Clusters/LCBOP/Only-C1/SD-CG/FIRE-CG
REM
REM
REM
REM
REM
REM ./C.cell (11c1c37f851c82e70ff6c80c92926a4b)
REM AIRSS Version 0.9.1 bugfix July 2018 build 013d7b7c2542+ Fri, 06 Jul 2018 19:26:36 +0100
REM compiler GCC version 9.2.1 20190827 (Red Hat 9.2.1-1)
REM options -cpp -mtune=generic -march=x86-64 -g -O0 -fpre-include=/usr/include/finclude/math-vector-fortran.h
REM seed 231810573 1015112987 -726800238 -401966091 1545727470 468972510 -211257052 149510892 -660472890 -1080179763 -2090594977 -1231039600 -1310367601 -162381782 -597030615 -749355758 -1823294872 1978853717 -727556193 -1557481680 435495797 -1712424834 395208979 -1344128675 -221640223 -140338934 -319538621 1075767864 178928752 -1420894241 1552762550 899451375 -94527461
REM
CELL 1.54180   50.00000   50.00000   50.00000   90.00000   90.00000   90.00000
LATT -1
SFAC C  
C      1  0.4124300000000  0.4301080000000  0.5058120000000 1.0
C      1  0.4524680000000  0.5276950000000  0.4694460000000 1.0
C      1  0.5132020000000  0.5784960000000  0.6012000000000 1.0
C      1  0.5959270000000  0.4918900000000  0.5278640000000 1.0
C      1  0.5724120000000  0.5992950000000  0.4564380000000 1.0
C      1  0.4148930000000  0.4108100000000  0.4872620000000 1.0
C      1  0.5268850000000  0.5385880000000  0.6293450000000 1.0
C      1  0.5610550000000  0.4075160000000  0.4775440000000 1.0
C      1  0.4664510000000  0.5670700000000  0.4752450000000 1.0
C      1  0.5904340000000  0.4011120000000  0.5368970000000 1.0
C      1  0.5045020000000  0.4018420000000  0.5617540000000 1.0
C      1  0.5354750000000  0.4355800000000  0.4113550000000 1.0
C      1  0.4906160000000  0.5354490000000  0.4403470000000 1.0
C      1  0.5147210000000  0.3898770000000  0.5367730000000 1.0
C      1  0.5595280000000  0.5658800000000  0.5831530000000 1.0
C      1  0.4328470000000  0.5955440000000  0.4919230000000 1.0
C      1  0.4631270000000  0.4523880000000  0.5337250000000 1.0
C      1  0.5970570000000  0.4999320000000  0.5572960000000 1.0
C      1  0.5428760000000  0.3980270000000  0.5277910000000 1.0
C      1  0.4490100000000  0.5212540000000  0.5310420000000 1.0
C      1  0.4087930000000  0.4753800000000  0.4925440000000 1.0
C      1  0.4888810000000  0.5961610000000  0.5399710000000 1.0
C      1  0.5312630000000  0.6010330000000  0.5629080000000 1.0
C      1  0.5326890000000  0.5552260000000  0.3926840000000 1.0
C      1  0.4433310000000  0.5955190000000  0.5192240000000 1.0
C      1  0.5537620000000  0.4728410000000  0.5082150000000 1.0
C      1  0.4733830000000  0.5990160000000  0.4229040000000 1.0
C      1  0.5521370000000  0.4716130000000  0.4354430000000 1.0
C      1  0.4631040000000  0.5687510000000  0.6052100000000 1.0
C      1  0.4648840000000  0.4012490000000  0.5113320000000 1.0
C      1  0.6457660000000  0.6465920000000  0.5195260000000 1.0
C      1  0.5562300000000  0.6142940000000  0.4718800000000 1.0
C      1  0.4300960000000  0.4779460000000  0.5818310000000 1.0
C      1  0.5977710000000  0.5092760000000  0.5045520000000 1.0
C      1  0.4573840000000  0.6025580000000  0.4444980000000 1.0
C      1  0.4472110000000  0.4984870000000  0.4333210000000 1.0
C      1  0.4750940000000  0.5086980000000  0.4375040000000 1.0
C      1  0.3987670000000  0.5333650000000  0.5070940000000 1.0
C      1  0.4306660000000  0.5842920000000  0.5432050000000 1.0
C      1  0.4430470000000  0.4981980000000  0.5980010000000 1.0
C      1  0.5749450000000  0.4565980000000  0.5530820000000 1.0
C      1  0.5386140000000  0.5097400000000  0.5894160000000 1.0
C      1  0.5302890000000  0.5589640000000  0.4725040000000 1.0
C      1  0.4118720000000  0.5765470000000  0.4906560000000 1.0
C      1  0.5899210000000  0.5888170000000  0.5150510000000 1.0
C      1  0.5133430000000  0.4486780000000  0.5257280000000 1.0
C      1  0.4409720000000  0.4705720000000  0.4304210000000 1.0
C      1  0.5352070000000  0.5179750000000  0.6145310000000 1.0
C      1  0.4142730000000  0.5538160000000  0.5525580000000 1.0
C      1  0.5179650000000  0.5633660000000  0.6244820000000 1.0
C      1  0.4054710000000  0.5135930000000  0.4596680000000 1.0
C      1  0.5696980000000  0.5323610000000  0.5303280000000 1.0
C      1  0.5883420000000  0.4752870000000  0.5706370000000 1.0
C      1  0.5103770000000  0.6021960000000  0.4743770000000 1.0
C      1  0.4527880000000  0.4256310000000  0.5714580000000 1.0
C      1  0.6086610000000  0.3972800000000  0.5178090000000 1.0
C      1  0.4222870000000  0.5159490000000  0.4338700000000 1.0
C      1  0.4819030000000  0.4223550000000  0.5019670000000 1.0
C      1  0.3872830000000  0.5825280000000  0.4806830000000 1.0
C      1  0.4277410000000  0.4048070000000  0.4628890000000 1.0
C      1  0.5872090000000  0.4998970000000  0.4793740000000 1.0
C      1  0.3601350000000  0.5266430000000  0.4762480000000 1.0
C      1  0.4251790000000  0.5487160000000  0.5805980000000 1.0
C      1  0.5419360000000  0.4309710000000  0.5805200000000 1.0
C      1  0.4907480000000  0.4608840000000  0.4457870000000 1.0
C      1  0.4928870000000  0.5879230000000  0.4078720000000 1.0
C      1  0.5436600000000  0.5196880000000  0.5343660000000 1.0
C      1  0.4085260000000  0.4875300000000  0.5659040000000 1.0
C      1  0.5671410000000  0.5496410000000  0.4418920000000 1.0
C      1  0.4898710000000  0.5143250000000  0.3775450000000 1.0
C      1  0.4398940000000  0.4673300000000  0.5280530000000 1.0
C      1  0.4619180000000  0.4917330000000  0.4982180000000 1.0
C      1  0.5017670000000  0.5465290000000  0.5634420000000 1.0
C      1  0.4863100000000  0.4419530000000  0.5221160000000 1.0
C      1  0.5140620000000  0.3848160000000  0.4443100000000 1.0
C      1  0.5088670000000  0.5757770000000  0.4653400000000 1.0
C      1  0.5331050000000  0.4506400000000  0.5051340000000 1.0
C      1  0.4643660000000  0.4577500000000  0.3891880000000 1.0
C      1  0.4311990000000  0.4530170000000  0.4512100000000 1.0
C      1  0.3974190000000  0.5070140000000  0.5508600000000 1.0
C      1  0.5364670000000  0.6047650000000  0.5156640000000 1.0
C      1  0.4662820000000  0.4891130000000  0.6115270000000 1.0
C      1  0.4210180000000  0.4086470000000  0.3959220000000 1.0
C      1  0.6278870000000  0.6276530000000  0.5183840000000 1.0
C      1  0.4471700000000  0.4945420000000  0.5223200000000 1.0
C      1  0.4183290000000  0.4569570000000  0.5117570000000 1.0
C      1  0.5500830000000  0.5346030000000  0.3948500000000 1.0
C      1  0.4296880000000  0.4271660000000  0.4138570000000 1.0
C      1  0.4753890000000  0.3756470000000  0.5043220000000 1.0
C      1  0.5250780000000  0.5407770000000  0.4933900000000 1.0
C      1  0.5629480000000  0.5140480000000  0.4105580000000 1.0
C      1  0.4593730000000  0.4795180000000  0.3721050000000 1.0
C      1  0.4948380000000  0.4886610000000  0.4472390000000 1.0
C      1  0.4407070000000  0.5227000000000  0.3870670000000 1.0
C      1  0.5121950000000  0.5550170000000  0.5405930000000 1.0
C      1  0.4624530000000  0.5074010000000  0.3765910000000 1.0
C      1  0.4605560000000  0.3683810000000  0.4805910000000 1.0
C      1  0.4438810000000  0.4017610000000  0.5297890000000 1.0
C      1  0.5328830000000  0.6120160000000  0.4881710000000 1.0
C      1  0.5120270000000  0.4970690000000  0.5044820000000 1.0
C      1  0.5508350000000  0.4875970000000  0.4111030000000 1.0
C      1  0.5630820000000  0.5954510000000  0.5209430000000 1.0
C      1  0.4464990000000  0.5438820000000  0.5128470000000 1.0
C      1  0.5907860000000  0.5360800000000  0.5120600000000 1.0
C      1  0.5328620000000  0.4516090000000  0.5971190000000 1.0
C      1  0.4796920000000  0.4146180000000  0.5700630000000 1.0
C      1  0.4760320000000  0.5944130000000  0.5665060000000 1.0
C      1  0.5359960000000  0.5826080000000  0.5836970000000 1.0
C      1  0.5128420000000  0.5007780000000  0.3814180000000 1.0
C      1  0.5358120000000  0.4946190000000  0.5196720000000 1.0
C      1  0.5627710000000  0.4844780000000  0.4812930000000 1.0
C      1  0.6361810000000  0.3938020000000  0.4779960000000 1.0
C      1  0.4471990000000  0.5023860000000  0.4777710000000 1.0
C      1  0.4491930000000  0.3854550000000  0.4602120000000 1.0
C      1  0.4868180000000  0.4402460000000  0.4270420000000 1.0
C      1  0.5780150000000  0.5752950000000  0.4456460000000 1.0
C      1  0.5450730000000  0.4856870000000  0.4588240000000 1.0
C      1  0.6096690000000  0.6084580000000  0.5171540000000 1.0
C      1  0.5390530000000  0.5127310000000  0.5630140000000 1.0
C      1  0.6120290000000  0.3979280000000  0.4899130000000 1.0
C      1  0.4464750000000  0.5902280000000  0.5664120000000 1.0
C      1  0.5256840000000  0.4373910000000  0.4807960000000 1.0
C      1  0.4824210000000  0.5297350000000  0.5698520000000 1.0
C      1  0.5216790000000  0.3795430000000  0.4909720000000 1.0
C      1  0.5924200000000  0.5104590000000  0.4533750000000 1.0
C      1  0.5175780000000  0.6030000000000  0.5378670000000 1.0
C      1  0.4574880000000  0.5423110000000  0.6148470000000 1.0
C      1  0.4790400000000  0.4136860000000  0.4300800000000 1.0
C      1  0.5886530000000  0.4031630000000  0.4751980000000 1.0
C      1  0.3871610000000  0.5249610000000  0.4808420000000 1.0
C      1  0.4715320000000  0.5858320000000  0.5194360000000 1.0
C      1  0.4859620000000  0.5827620000000  0.5926070000000 1.0
C      1  0.5400780000000  0.5466750000000  0.4489600000000 1.0
C      1  0.4419800000000  0.4511500000000  0.5805670000000 1.0
C      1  0.5265990000000  0.5415010000000  0.5215960000000 1.0
C      1  0.5166170000000  0.5153260000000  0.4840290000000 1.0
C      1  0.4202950000000  0.4940610000000  0.4753660000000 1.0
C      1  0.5031060000000  0.3747340000000  0.5131670000000 1.0
C      1  0.5462960000000  0.3929380000000  0.4988410000000 1.0
C      1  0.5256070000000  0.4079660000000  0.5798040000000 1.0
C      1  0.5783640000000  0.5247340000000  0.4331140000000 1.0
C      1  0.5929120000000  0.5253400000000  0.5700910000000 1.0
C      1  0.4513660000000  0.5913740000000  0.4697920000000 1.0
C      1  0.4900510000000  0.4495830000000  0.3997240000000 1.0
C      1  0.4609020000000  0.5237820000000  0.5557970000000 1.0
C      1  0.4202370000000  0.5514990000000  0.5018190000000 1.0
C      1  0.5769680000000  0.4689000000000  0.5267150000000 1.0
C      1  0.5203250000000  0.5025210000000  0.4572670000000 1.0
C      1  0.3996080000000  0.5320830000000  0.5371660000000 1.0
C      1  0.4681170000000  0.5613320000000  0.5035950000000 1.0
C      1  0.4378610000000  0.5268960000000  0.5983970000000 1.0
C      1  0.5128210000000  0.4644730000000  0.6091420000000 1.0
C      1  0.4897760000000  0.4768430000000  0.6141920000000 1.0
C      1  0.5199960000000  0.5281000000000  0.4399250000000 1.0
C      1  0.4880120000000  0.4844530000000  0.5017800000000 1.0
C      1  0.4263600000000  0.4255900000000  0.4430080000000 1.0
C      1  0.5971430000000  0.5626660000000  0.5071360000000 1.0
C      1  0.4394120000000  0.5737840000000  0.5885250000000 1.0
C      1  0.4660780000000  0.3918930000000  0.4385110000000 1.0
C      1  0.5131120000000  0.5730000000000  0.3980790000000 1.0
C      1  0.5611180000000  0.4329180000000  0.5594880000000 1.0
C      1  0.5184270000000  0.4537170000000  0.3958500000000 1.0
C      1  0.5643230000000  0.4098830000000  0.5425580000000 1.0
C      1  0.5789510000000  0.5472860000000  0.5785670000000 1.0
C      1  0.5020880000000  0.4199890000000  0.4806030000000 1.0
C      1  0.4228900000000  0.5273650000000  0.4073530000000 1.0
C      1  0.5091920000000  0.3937220000000  0.4696190000000 1.0
C      1  0.5480820000000  0.4427230000000  0.4363510000000 1.0
C      1  0.5470080000000  0.4290630000000  0.4626210000000 1.0
C      1  0.4862610000000  0.5597710000000  0.4566250000000 1.0
C      1  0.4360610000000  0.4109170000000  0.5537950000000 1.0
C      1  0.4427270000000  0.4524200000000  0.4072320000000 1.0
C      1  0.5287610000000  0.4807060000000  0.3933300000000 1.0
END
