TITL C-627112-676-1346 -1.10499369974287e-07 125000 -713.894399253883 0 0 118 (C1) n - 1
REM
REM in /home/nfs/bkarasulu/CARBON/AIRSS/Generating-Clusters/LCBOP/Only-C1/SD-CG/FIRE-CG
REM
REM
REM
REM
REM
REM ./C.cell (11c1c37f851c82e70ff6c80c92926a4b)
REM AIRSS Version 0.9.1 bugfix July 2018 build 013d7b7c2542+ Fri, 06 Jul 2018 19:26:36 +0100
REM compiler GCC version 9.2.1 20190827 (Red Hat 9.2.1-1)
REM options -cpp -mtune=generic -march=x86-64 -g -O0 -fpre-include=/usr/include/finclude/math-vector-fortran.h
REM seed -1872405291 -195773206 2102630944 -1377383117 -1476350370 -401491880 -594930980 640333047 33115014 1388739794 909965947 -258369002 -601398542 -1849448754 -1926930859 1887208528 -1454406633 -770798771 -342640649 -1688996599 -1311637981 -1767009006 949890069 -1901667008 -1208767441 -659282902 306678914 -2080009953 -2090702035 1440539663 399393995 -397190185 -1395164284
REM
CELL 1.54180   50.00000   50.00000   50.00000   90.00000   90.00000   90.00000
LATT -1
SFAC C  
C      1  0.4733570000000  0.4864310000000  0.4580620000000 1.0
C      1  0.5709230000000  0.4657220000000  0.5591520000000 1.0
C      1  0.4844630000000  0.5605710000000  0.5865300000000 1.0
C      1  0.4957010000000  0.4563180000000  0.5895810000000 1.0
C      1  0.5842410000000  0.4551780000000  0.5123410000000 1.0
C      1  0.5452180000000  0.5469850000000  0.5567970000000 1.0
C      1  0.5154540000000  0.4082590000000  0.5073240000000 1.0
C      1  0.5665720000000  0.4968280000000  0.4276490000000 1.0
C      1  0.5210390000000  0.5802430000000  0.4678550000000 1.0
C      1  0.5190660000000  0.4846460000000  0.4304760000000 1.0
C      1  0.4924040000000  0.4218390000000  0.5182760000000 1.0
C      1  0.4713700000000  0.4300880000000  0.4996840000000 1.0
C      1  0.5662200000000  0.5158220000000  0.6053120000000 1.0
C      1  0.4548930000000  0.4735640000000  0.5225110000000 1.0
C      1  0.4981990000000  0.5737200000000  0.5646580000000 1.0
C      1  0.5396570000000  0.4105010000000  0.4950420000000 1.0
C      1  0.5712790000000  0.5499840000000  0.5154320000000 1.0
C      1  0.5782670000000  0.4995860000000  0.5083440000000 1.0
C      1  0.6155760000000  0.5263080000000  0.5255810000000 1.0
C      1  0.5184380000000  0.5494050000000  0.5051390000000 1.0
C      1  0.4937960000000  0.5281610000000  0.5986570000000 1.0
C      1  0.4928780000000  0.4907870000000  0.5507220000000 1.0
C      1  0.4684080000000  0.4590470000000  0.4061140000000 1.0
C      1  0.5097080000000  0.4680670000000  0.4855270000000 1.0
C      1  0.4132770000000  0.4997470000000  0.4226090000000 1.0
C      1  0.5267290000000  0.5329770000000  0.4490490000000 1.0
C      1  0.5190320000000  0.5563410000000  0.5541170000000 1.0
C      1  0.4738800000000  0.4367630000000  0.4213190000000 1.0
C      1  0.4806080000000  0.5396580000000  0.4547250000000 1.0
C      1  0.5056960000000  0.4784950000000  0.6021100000000 1.0
C      1  0.4870360000000  0.5882770000000  0.5396130000000 1.0
C      1  0.6185310000000  0.4987340000000  0.5269530000000 1.0
C      1  0.4140940000000  0.4589320000000  0.4481570000000 1.0
C      1  0.5144270000000  0.4283040000000  0.4499040000000 1.0
C      1  0.4101200000000  0.4626310000000  0.5706950000000 1.0
C      1  0.5993180000000  0.5438400000000  0.5088310000000 1.0
C      1  0.5350150000000  0.4914140000000  0.5221020000000 1.0
C      1  0.4972450000000  0.4353200000000  0.5439910000000 1.0
C      1  0.5806600000000  0.4762010000000  0.4142930000000 1.0
C      1  0.4857270000000  0.4247020000000  0.4445990000000 1.0
C      1  0.5684590000000  0.5666170000000  0.4522180000000 1.0
C      1  0.4847640000000  0.4377690000000  0.5699970000000 1.0
C      1  0.5367540000000  0.5337260000000  0.4230500000000 1.0
C      1  0.3853440000000  0.4874370000000  0.5372420000000 1.0
C      1  0.5985310000000  0.4808870000000  0.5164910000000 1.0
C      1  0.5780190000000  0.5484690000000  0.4341260000000 1.0
C      1  0.4482270000000  0.5334890000000  0.5994710000000 1.0
C      1  0.4390400000000  0.6056230000000  0.5029170000000 1.0
C      1  0.5456660000000  0.4353580000000  0.5369370000000 1.0
C      1  0.6042720000000  0.5395280000000  0.4810450000000 1.0
C      1  0.5756540000000  0.5003640000000  0.4801060000000 1.0
C      1  0.4563630000000  0.5436330000000  0.4698630000000 1.0
C      1  0.5485450000000  0.4820380000000  0.5674780000000 1.0
C      1  0.3683320000000  0.5377860000000  0.5458820000000 1.0
C      1  0.4705700000000  0.5146610000000  0.4011250000000 1.0
C      1  0.5210900000000  0.4969940000000  0.4033920000000 1.0
C      1  0.3774390000000  0.4479980000000  0.5057860000000 1.0
C      1  0.5449940000000  0.4849120000000  0.4449500000000 1.0
C      1  0.5057860000000  0.5757740000000  0.4932950000000 1.0
C      1  0.4798690000000  0.4892330000000  0.5243360000000 1.0
C      1  0.4840650000000  0.5596410000000  0.4320860000000 1.0
C      1  0.4103220000000  0.4792620000000  0.5481660000000 1.0
C      1  0.5488630000000  0.5711240000000  0.4722460000000 1.0
C      1  0.5578060000000  0.5078030000000  0.5258270000000 1.0
C      1  0.4836650000000  0.5864850000000  0.5090540000000 1.0
C      1  0.5550240000000  0.4260870000000  0.4761460000000 1.0
C      1  0.4006120000000  0.4392440000000  0.4927640000000 1.0
C      1  0.5491700000000  0.5563890000000  0.4978200000000 1.0
C      1  0.5058410000000  0.5254990000000  0.4918420000000 1.0
C      1  0.5644050000000  0.5255970000000  0.4232760000000 1.0
C      1  0.5435620000000  0.4245850000000  0.4485540000000 1.0
C      1  0.4714630000000  0.4230600000000  0.4708570000000 1.0
C      1  0.4534160000000  0.5728500000000  0.4699240000000 1.0
C      1  0.4874640000000  0.4839580000000  0.4815890000000 1.0
C      1  0.4350260000000  0.4881350000000  0.5378420000000 1.0
C      1  0.4478240000000  0.5101600000000  0.5505830000000 1.0
C      1  0.4903500000000  0.5354810000000  0.4066330000000 1.0
C      1  0.5227340000000  0.4797850000000  0.5480380000000 1.0
C      1  0.4410360000000  0.5203480000000  0.4717680000000 1.0
C      1  0.5044070000000  0.5292800000000  0.4643340000000 1.0
C      1  0.4246210000000  0.4383180000000  0.5071950000000 1.0
C      1  0.5100590000000  0.5055620000000  0.6059390000000 1.0
C      1  0.5125500000000  0.4444180000000  0.4732180000000 1.0
C      1  0.4509500000000  0.4477850000000  0.5101780000000 1.0
C      1  0.4748960000000  0.4869670000000  0.4104690000000 1.0
C      1  0.5601640000000  0.4309810000000  0.4267130000000 1.0
C      1  0.5780430000000  0.5314810000000  0.6224730000000 1.0
C      1  0.4546840000000  0.5582440000000  0.5858440000000 1.0
C      1  0.4631000000000  0.4222800000000  0.5764180000000 1.0
C      1  0.4585160000000  0.5883980000000  0.4939590000000 1.0
C      1  0.4686380000000  0.5144800000000  0.5929020000000 1.0
C      1  0.4901370000000  0.4857250000000  0.4352340000000 1.0
C      1  0.4700740000000  0.5014000000000  0.5677370000000 1.0
C      1  0.5326330000000  0.4806460000000  0.4952480000000 1.0
C      1  0.3715310000000  0.4684810000000  0.5218920000000 1.0
C      1  0.4071970000000  0.4493000000000  0.5928950000000 1.0
C      1  0.5057540000000  0.5459480000000  0.5314940000000 1.0
C      1  0.5935740000000  0.5181730000000  0.4680060000000 1.0
C      1  0.5754970000000  0.4496300000000  0.4148420000000 1.0
C      1  0.4029650000000  0.4416550000000  0.4650190000000 1.0
C      1  0.4205960000000  0.5148680000000  0.4018160000000 1.0
C      1  0.5554220000000  0.4786500000000  0.4742110000000 1.0
C      1  0.4608590000000  0.5790030000000  0.4413570000000 1.0
C      1  0.4890000000000  0.5040290000000  0.5016230000000 1.0
C      1  0.3754110000000  0.5130870000000  0.5415250000000 1.0
C      1  0.4776550000000  0.5413960000000  0.5310190000000 1.0
C      1  0.4519820000000  0.5372900000000  0.5421920000000 1.0
C      1  0.5082320000000  0.5768330000000  0.4421170000000 1.0
C      1  0.4447780000000  0.5213220000000  0.3922360000000 1.0
C      1  0.5709340000000  0.4475120000000  0.5369460000000 1.0
C      1  0.5218780000000  0.4492900000000  0.5433000000000 1.0
C      1  0.4432320000000  0.5581910000000  0.5596620000000 1.0
C      1  0.4245140000000  0.4842750000000  0.4432090000000 1.0
C      1  0.4458560000000  0.4954020000000  0.4585870000000 1.0
C      1  0.5606090000000  0.5338910000000  0.5370940000000 1.0
C      1  0.5689560000000  0.4510220000000  0.4853970000000 1.0
C      1  0.5173800000000  0.5259090000000  0.4037630000000 1.0
C      1  0.5538260000000  0.5006900000000  0.5873840000000 1.0
END
