TITL C-627110-360-137 603.368758807402 125000 -650.188066528812 0 0 109 (C1) n - 1
REM
REM in /home/nfs/bkarasulu/CARBON/AIRSS/Generating-Clusters/LCBOP/Only-C1/SD-CG/FIRE-CG
REM
REM
REM
REM
REM
REM ./C.cell (11c1c37f851c82e70ff6c80c92926a4b)
REM AIRSS Version 0.9.1 bugfix July 2018 build 013d7b7c2542+ Fri, 06 Jul 2018 19:26:36 +0100
REM compiler GCC version 9.2.1 20190827 (Red Hat 9.2.1-1)
REM options -cpp -mtune=generic -march=x86-64 -g -O0 -fpre-include=/usr/include/finclude/math-vector-fortran.h
REM seed -969520263 -1537528835 -584519897 652568247 876465206 -941845144 -1172385746 -182240493 -1583050736 -258023357 1443299911 463987676 1939086663 1759988044 -1451921751 2092751595 1914266838 -767772967 1434025609 1047731989 916494490 19511451 480290302 1670985557 -1161348675 -100587037 944662191 -815500045 658159124 1689217055 906258099 433794262 741560190
REM
CELL 1.54180   50.00000   50.00000   50.00000   90.00000   90.00000   90.00000
LATT -1
SFAC C  
C      1  0.4805080000000  0.5296820000000  0.5455450000000 1.0
C      1  0.4854970000000  0.5766090000000  0.4908670000000 1.0
C      1  0.5544510000000  0.4454610000000  0.5526060000000 1.0
C      1  0.5407770000000  0.4389500000000  0.5067680000000 1.0
C      1  0.5532970000000  0.4905890000000  0.5787430000000 1.0
C      1  0.4685140000000  0.4757210000000  0.4301210000000 1.0
C      1  0.5362300000000  0.4316040000000  0.5693230000000 1.0
C      1  0.5102810000000  0.4986970000000  0.5627760000000 1.0
C      1  0.4636970000000  0.5719410000000  0.5377250000000 1.0
C      1  0.5460690000000  0.5180910000000  0.4450400000000 1.0
C      1  0.4240530000000  0.5466920000000  0.5355610000000 1.0
C      1  0.5517890000000  0.5382560000000  0.5820650000000 1.0
C      1  0.6198040000000  0.5269080000000  0.4814120000000 1.0
C      1  0.4037260000000  0.5040960000000  0.4428320000000 1.0
C      1  0.5058020000000  0.5625780000000  0.4437300000000 1.0
C      1  0.4959230000000  0.4455760000000  0.6003020000000 1.0
C      1  0.5148790000000  0.4327000000000  0.5858400000000 1.0
C      1  0.4932380000000  0.4464640000000  0.4780340000000 1.0
C      1  0.5837650000000  0.4547350000000  0.5102250000000 1.0
C      1  0.4841500000000  0.5261370000000  0.4826650000000 1.0
C      1  0.3668100000000  0.3748120000000  0.5074060000000 1.0
C      1  0.4922580000000  0.4774320000000  0.5568140000000 1.0
C      1  0.5758990000000  0.4533250000000  0.4739690000000 1.0
C      1  0.5916090000000  0.5060800000000  0.5480520000000 1.0
C      1  0.6854260000000  0.5689140000000  0.4656150000000 1.0
C      1  0.4243360000000  0.4952160000000  0.4246320000000 1.0
C      1  0.4114880000000  0.4597420000000  0.5337160000000 1.0
C      1  0.4410830000000  0.4450210000000  0.4719370000000 1.0
C      1  0.5098800000000  0.5226970000000  0.5438490000000 1.0
C      1  0.4662000000000  0.4815090000000  0.4931500000000 1.0
C      1  0.4660710000000  0.4964420000000  0.4504040000000 1.0
C      1  0.5484140000000  0.5377030000000  0.5172970000000 1.0
C      1  0.5976440000000  0.5136110000000  0.4873650000000 1.0
C      1  0.4629330000000  0.5582320000000  0.4261660000000 1.0
C      1  0.5098460000000  0.5090620000000  0.5154640000000 1.0
C      1  0.5746330000000  0.4800730000000  0.4626670000000 1.0
C      1  0.4425570000000  0.5610190000000  0.5187520000000 1.0
C      1  0.5134980000000  0.4665050000000  0.4774650000000 1.0
C      1  0.4054170000000  0.5259340000000  0.4597670000000 1.0
C      1  0.3931690000000  0.4207310000000  0.5094560000000 1.0
C      1  0.5305810000000  0.5730010000000  0.5430720000000 1.0
C      1  0.5624600000000  0.4396790000000  0.5254630000000 1.0
C      1  0.4812050000000  0.5059770000000  0.5050180000000 1.0
C      1  0.5263510000000  0.4949520000000  0.5860040000000 1.0
C      1  0.4640560000000  0.5206740000000  0.4001940000000 1.0
C      1  0.4395160000000  0.5185230000000  0.4158850000000 1.0
C      1  0.4223200000000  0.4859940000000  0.5321480000000 1.0
C      1  0.5085340000000  0.5902790000000  0.5449420000000 1.0
C      1  0.5265860000000  0.5502280000000  0.5857750000000 1.0
C      1  0.5358530000000  0.4390250000000  0.4417790000000 1.0
C      1  0.4233850000000  0.5347400000000  0.5599930000000 1.0
C      1  0.4272790000000  0.5448240000000  0.4608530000000 1.0
C      1  0.5338340000000  0.4656400000000  0.4967380000000 1.0
C      1  0.5350900000000  0.4706840000000  0.4071610000000 1.0
C      1  0.5758890000000  0.4963020000000  0.4861370000000 1.0
C      1  0.4864960000000  0.5754450000000  0.5568980000000 1.0
C      1  0.4397780000000  0.5429840000000  0.4337180000000 1.0
C      1  0.4073410000000  0.4445830000000  0.5099120000000 1.0
C      1  0.4355960000000  0.4465420000000  0.4435660000000 1.0
C      1  0.4395180000000  0.4695870000000  0.4264650000000 1.0
C      1  0.4893620000000  0.4566650000000  0.4208880000000 1.0
C      1  0.5082350000000  0.5448680000000  0.4202780000000 1.0
C      1  0.4214190000000  0.4855350000000  0.4842500000000 1.0
C      1  0.5190980000000  0.5523270000000  0.4676360000000 1.0
C      1  0.5555410000000  0.4734400000000  0.5565220000000 1.0
C      1  0.4189760000000  0.4562750000000  0.4866640000000 1.0
C      1  0.5036880000000  0.6087680000000  0.5246840000000 1.0
C      1  0.4668440000000  0.4533880000000  0.4843570000000 1.0
C      1  0.5510990000000  0.4910060000000  0.5028170000000 1.0
C      1  0.4891550000000  0.4719700000000  0.6088460000000 1.0
C      1  0.4411800000000  0.5607090000000  0.4827770000000 1.0
C      1  0.4662310000000  0.4724900000000  0.5520210000000 1.0
C      1  0.5311780000000  0.5283000000000  0.4222030000000 1.0
C      1  0.4815640000000  0.5418750000000  0.4091350000000 1.0
C      1  0.5553270000000  0.4341850000000  0.4628530000000 1.0
C      1  0.5301310000000  0.5452310000000  0.5378780000000 1.0
C      1  0.4641620000000  0.5130650000000  0.5290760000000 1.0
C      1  0.5679330000000  0.5146060000000  0.5746670000000 1.0
C      1  0.6636040000000  0.5548170000000  0.4708760000000 1.0
C      1  0.3536620000000  0.3518200000000  0.5063540000000 1.0
C      1  0.5961130000000  0.4775750000000  0.5284540000000 1.0
C      1  0.5439620000000  0.4206040000000  0.4854450000000 1.0
C      1  0.5120870000000  0.4889620000000  0.6093720000000 1.0
C      1  0.4471370000000  0.4928530000000  0.4726670000000 1.0
C      1  0.7068750000000  0.5827950000000  0.4604250000000 1.0
C      1  0.6417450000000  0.5407760000000  0.4760930000000 1.0
C      1  0.5580260000000  0.4824020000000  0.4154400000000 1.0
C      1  0.5010680000000  0.5603480000000  0.5789870000000 1.0
C      1  0.4945030000000  0.6008990000000  0.5008090000000 1.0
C      1  0.3407350000000  0.3292040000000  0.5053200000000 1.0
C      1  0.4325490000000  0.5204050000000  0.5810430000000 1.0
C      1  0.5623600000000  0.4941870000000  0.4407510000000 1.0
C      1  0.5101190000000  0.4899480000000  0.4623480000000 1.0
C      1  0.4640510000000  0.5754970000000  0.4721250000000 1.0
C      1  0.4138080000000  0.4989820000000  0.5080830000000 1.0
C      1  0.5540140000000  0.4878130000000  0.5322180000000 1.0
C      1  0.3799670000000  0.3977900000000  0.5084570000000 1.0
C      1  0.5187120000000  0.4548030000000  0.4241550000000 1.0
C      1  0.4639330000000  0.4849980000000  0.6063230000000 1.0
C      1  0.4463930000000  0.5030650000000  0.5964780000000 1.0
C      1  0.4792150000000  0.4361670000000  0.4048600000000 1.0
C      1  0.5369620000000  0.5294630000000  0.4702790000000 1.0
C      1  0.4490180000000  0.4911890000000  0.5398150000000 1.0
C      1  0.5756770000000  0.5433550000000  0.5207040000000 1.0
C      1  0.4772970000000  0.5720440000000  0.4463510000000 1.0
C      1  0.5946770000000  0.5303020000000  0.5346720000000 1.0
C      1  0.4980200000000  0.5512170000000  0.4871510000000 1.0
C      1  0.4893290000000  0.5089410000000  0.4596550000000 1.0
C      1  0.5359640000000  0.5168650000000  0.4988920000000 1.0
END
