TITL C-627110-360-1230 0.254509224755036 125000 -260.046280493969 0 0 44 (C1) n - 1
REM
REM in /home/nfs/bkarasulu/CARBON/AIRSS/Generating-Clusters/LCBOP/Only-C1/SD-CG/FIRE-CG
REM
REM
REM
REM
REM
REM ./C.cell (11c1c37f851c82e70ff6c80c92926a4b)
REM AIRSS Version 0.9.1 bugfix July 2018 build 013d7b7c2542+ Fri, 06 Jul 2018 19:26:36 +0100
REM compiler GCC version 9.2.1 20190827 (Red Hat 9.2.1-1)
REM options -cpp -mtune=generic -march=x86-64 -g -O0 -fpre-include=/usr/include/finclude/math-vector-fortran.h
REM seed 171582963 -725640657 -695114406 -655552904 -408750273 1903425434 -1868114212 782637804 -1346217590 -27499696 -1789526770 -1313123816 1654988876 366254657 1374127952 1152054666 1965648720 -983538071 -239171600 -612640997 -177526031 1960048485 -136721236 1708784562 -424107338 -797118121 -1691397294 368196890 -906850654 1443398202 1408248542 1926776900 -792647991
REM
CELL 1.54180   50.00000   50.00000   50.00000   90.00000   90.00000   90.00000
LATT -1
SFAC C  
C      1  0.5866950000000  0.6217410000000  0.5672850000000 1.0
C      1  0.5254070000000  0.4711150000000  0.5779090000000 1.0
C      1  0.4692000000000  0.4943780000000  0.5320150000000 1.0
C      1  0.4559500000000  0.4991460000000  0.5826420000000 1.0
C      1  0.5601700000000  0.5366320000000  0.4819680000000 1.0
C      1  0.4458540000000  0.5189840000000  0.3970970000000 1.0
C      1  0.5066590000000  0.4569040000000  0.6253720000000 1.0
C      1  0.4857080000000  0.4438210000000  0.6722710000000 1.0
C      1  0.4645620000000  0.4522890000000  0.4412480000000 1.0
C      1  0.4899990000000  0.4475460000000  0.4843120000000 1.0
C      1  0.4975670000000  0.4696720000000  0.5002660000000 1.0
C      1  0.5252820000000  0.4739640000000  0.5053420000000 1.0
C      1  0.4962070000000  0.4503510000000  0.6488240000000 1.0
C      1  0.5434890000000  0.4689370000000  0.4845050000000 1.0
C      1  0.5167290000000  0.4636650000000  0.6018120000000 1.0
C      1  0.5186720000000  0.5067620000000  0.4380900000000 1.0
C      1  0.4550720000000  0.5504160000000  0.4635800000000 1.0
C      1  0.4618030000000  0.5344690000000  0.4842490000000 1.0
C      1  0.4701930000000  0.5075870000000  0.4847700000000 1.0
C      1  0.5315870000000  0.4795180000000  0.5535630000000 1.0
C      1  0.5720410000000  0.5798990000000  0.5390230000000 1.0
C      1  0.5513330000000  0.4811950000000  0.4620620000000 1.0
C      1  0.5443850000000  0.5051820000000  0.4491120000000 1.0
C      1  0.4541060000000  0.4696250000000  0.3952620000000 1.0
C      1  0.4497790000000  0.5404070000000  0.4128050000000 1.0
C      1  0.4753820000000  0.4373980000000  0.6953310000000 1.0
C      1  0.5593060000000  0.5286110000000  0.4550920000000 1.0
C      1  0.5646580000000  0.5588190000000  0.5247840000000 1.0
C      1  0.4176620000000  0.4880650000000  0.4197220000000 1.0
C      1  0.4620120000000  0.4970210000000  0.5573770000000 1.0
C      1  0.5342250000000  0.4892370000000  0.5275800000000 1.0
C      1  0.4789130000000  0.4908810000000  0.5061200000000 1.0
C      1  0.5794290000000  0.6009940000000  0.5532710000000 1.0
C      1  0.4711420000000  0.4959990000000  0.4588740000000 1.0
C      1  0.4801610000000  0.4391780000000  0.4606390000000 1.0
C      1  0.4641890000000  0.4514670000000  0.4129100000000 1.0
C      1  0.5723330000000  0.5425410000000  0.4355560000000 1.0
C      1  0.4255570000000  0.4818380000000  0.4449070000000 1.0
C      1  0.4926940000000  0.5027130000000  0.4421950000000 1.0
C      1  0.4516660000000  0.5516780000000  0.4370200000000 1.0
C      1  0.4372170000000  0.4922430000000  0.3993310000000 1.0
C      1  0.4523610000000  0.4762360000000  0.4515620000000 1.0
C      1  0.5568770000000  0.5365930000000  0.5097830000000 1.0
C      1  0.5457670000000  0.5142820000000  0.5225630000000 1.0
END
