TITL C-627111-6168-1801 -0.987106725770799 125000 -1193.37372925468 0 0 196 (C1) n - 1
REM
REM in /home/nfs/bkarasulu/CARBON/AIRSS/Generating-Clusters/LCBOP/Only-C1/SD-CG/FIRE-CG
REM
REM
REM
REM
REM
REM ./C.cell (11c1c37f851c82e70ff6c80c92926a4b)
REM AIRSS Version 0.9.1 bugfix July 2018 build 013d7b7c2542+ Fri, 06 Jul 2018 19:26:36 +0100
REM compiler GCC version 9.2.1 20190827 (Red Hat 9.2.1-1)
REM options -cpp -mtune=generic -march=x86-64 -g -O0 -fpre-include=/usr/include/finclude/math-vector-fortran.h
REM seed 1566484116 490411723 1045299812 -1971529594 1847383936 937802046 -305260180 715598215 -702917239 -227674161 414695668 172498891 -1302597253 -15254192 -661698243 588612360 -34141758 488435819 -73785077 -282310753 -85343286 -619603620 -1432970783 1917593462 -1669373361 -291590976 902361044 -2016108824 -314302929 -835332635 884842943 146291999 -718544543
REM
CELL 1.54180   50.00000   50.00000   50.00000   90.00000   90.00000   90.00000
LATT -1
SFAC C  
C      1  0.5085260000000  0.5144220000000  0.4517520000000 1.0
C      1  0.5655350000000  0.5552710000000  0.6145530000000 1.0
C      1  0.6108340000000  0.5650210000000  0.5102150000000 1.0
C      1  0.5670030000000  0.5082470000000  0.4349020000000 1.0
C      1  0.4490690000000  0.5139700000000  0.5143490000000 1.0
C      1  0.4306500000000  0.3856840000000  0.5111150000000 1.0
C      1  0.4407530000000  0.4073820000000  0.5659450000000 1.0
C      1  0.5389220000000  0.5644270000000  0.6105180000000 1.0
C      1  0.4975420000000  0.5847630000000  0.4179280000000 1.0
C      1  0.4321640000000  0.5009260000000  0.3859930000000 1.0
C      1  0.5797900000000  0.5376500000000  0.5965370000000 1.0
C      1  0.5846810000000  0.5547750000000  0.4427460000000 1.0
C      1  0.4033530000000  0.5277130000000  0.5178590000000 1.0
C      1  0.5241710000000  0.5861100000000  0.5979470000000 1.0
C      1  0.5570360000000  0.4534090000000  0.5091420000000 1.0
C      1  0.5027570000000  0.5890440000000  0.4843160000000 1.0
C      1  0.4888840000000  0.6074550000000  0.4670180000000 1.0
C      1  0.4968650000000  0.6034650000000  0.4398380000000 1.0
C      1  0.4911310000000  0.5124910000000  0.6601520000000 1.0
C      1  0.4562370000000  0.3850550000000  0.5223510000000 1.0
C      1  0.4174860000000  0.4224470000000  0.5564410000000 1.0
C      1  0.5477610000000  0.4362360000000  0.4881100000000 1.0
C      1  0.4429190000000  0.5491030000000  0.5462590000000 1.0
C      1  0.6101140000000  0.4314900000000  0.4999320000000 1.0
C      1  0.5724890000000  0.4998090000000  0.5148120000000 1.0
C      1  0.6315610000000  0.4956830000000  0.5346450000000 1.0
C      1  0.4754400000000  0.5345290000000  0.3882390000000 1.0
C      1  0.4677110000000  0.5379320000000  0.4366500000000 1.0
C      1  0.4994460000000  0.6091280000000  0.5286220000000 1.0
C      1  0.4311110000000  0.5326000000000  0.5259660000000 1.0
C      1  0.5286310000000  0.4492910000000  0.4717490000000 1.0
C      1  0.4084560000000  0.5746910000000  0.4405630000000 1.0
C      1  0.5799180000000  0.5085340000000  0.5982480000000 1.0
C      1  0.5260750000000  0.3974980000000  0.5234500000000 1.0
C      1  0.6273180000000  0.4672930000000  0.4682070000000 1.0
C      1  0.4717820000000  0.5834870000000  0.4048520000000 1.0
C      1  0.5401400000000  0.4813380000000  0.5483140000000 1.0
C      1  0.5300180000000  0.4239390000000  0.5771790000000 1.0
C      1  0.4416620000000  0.4870970000000  0.5737240000000 1.0
C      1  0.4473230000000  0.4128230000000  0.5931410000000 1.0
C      1  0.4788440000000  0.4548320000000  0.4848280000000 1.0
C      1  0.5235840000000  0.5335910000000  0.5781290000000 1.0
C      1  0.4585510000000  0.4344850000000  0.4878720000000 1.0
C      1  0.4861170000000  0.4966470000000  0.4171370000000 1.0
C      1  0.4980020000000  0.4717010000000  0.4962290000000 1.0
C      1  0.5859640000000  0.4495390000000  0.4588100000000 1.0
C      1  0.3931850000000  0.5782480000000  0.4644130000000 1.0
C      1  0.4962150000000  0.5132830000000  0.6334180000000 1.0
C      1  0.4401480000000  0.5384730000000  0.4739820000000 1.0
C      1  0.5627730000000  0.5613170000000  0.5553670000000 1.0
C      1  0.4107200000000  0.5493850000000  0.4258510000000 1.0
C      1  0.4898890000000  0.3922850000000  0.5562410000000 1.0
C      1  0.5008210000000  0.4902110000000  0.6177690000000 1.0
C      1  0.5839720000000  0.4795580000000  0.5977010000000 1.0
C      1  0.5786800000000  0.3923010000000  0.5167700000000 1.0
C      1  0.4444560000000  0.5775230000000  0.4082670000000 1.0
C      1  0.4947790000000  0.4700770000000  0.4188220000000 1.0
C      1  0.4817530000000  0.3829440000000  0.5086100000000 1.0
C      1  0.4148870000000  0.4542980000000  0.4249230000000 1.0
C      1  0.5963540000000  0.5207100000000  0.4747310000000 1.0
C      1  0.5288510000000  0.5496230000000  0.4919960000000 1.0
C      1  0.4476460000000  0.4546740000000  0.6241450000000 1.0
C      1  0.5009030000000  0.5826590000000  0.5832810000000 1.0
C      1  0.5078990000000  0.4355620000000  0.4565990000000 1.0
C      1  0.4887510000000  0.3930610000000  0.4825800000000 1.0
C      1  0.5221780000000  0.4773800000000  0.4792430000000 1.0
C      1  0.5710940000000  0.4757530000000  0.4989560000000 1.0
C      1  0.3968140000000  0.4142780000000  0.3937510000000 1.0
C      1  0.5643520000000  0.5382940000000  0.4288350000000 1.0
C      1  0.4433630000000  0.4981360000000  0.4402560000000 1.0
C      1  0.4137990000000  0.5853310000000  0.5735180000000 1.0
C      1  0.4634590000000  0.5108900000000  0.4274030000000 1.0
C      1  0.4068680000000  0.5256550000000  0.4402480000000 1.0
C      1  0.4079650000000  0.4985880000000  0.4802430000000 1.0
C      1  0.4628160000000  0.4922930000000  0.5553890000000 1.0
C      1  0.3370570000000  0.5570160000000  0.5204800000000 1.0
C      1  0.4899530000000  0.4554140000000  0.4428390000000 1.0
C      1  0.5252390000000  0.4913020000000  0.4532220000000 1.0
C      1  0.4196860000000  0.4705680000000  0.5716560000000 1.0
C      1  0.6154850000000  0.4838190000000  0.4461770000000 1.0
C      1  0.5652520000000  0.4464680000000  0.4127630000000 1.0
C      1  0.6104890000000  0.4433040000000  0.4736550000000 1.0
C      1  0.5529900000000  0.4102090000000  0.4781470000000 1.0
C      1  0.4495220000000  0.4832310000000  0.4622910000000 1.0
C      1  0.3622200000000  0.5541520000000  0.5143390000000 1.0
C      1  0.3968370000000  0.4995550000000  0.5080590000000 1.0
C      1  0.5903270000000  0.5834910000000  0.5191510000000 1.0
C      1  0.4492700000000  0.4420730000000  0.5146320000000 1.0
C      1  0.5862740000000  0.6031200000000  0.4967120000000 1.0
C      1  0.5007060000000  0.5384500000000  0.4039500000000 1.0
C      1  0.4464520000000  0.4993540000000  0.5992020000000 1.0
C      1  0.4175670000000  0.5022570000000  0.4294340000000 1.0
C      1  0.6219730000000  0.4695210000000  0.3983340000000 1.0
C      1  0.4289320000000  0.4645720000000  0.5075820000000 1.0
C      1  0.4869850000000  0.5436260000000  0.5227390000000 1.0
C      1  0.4455200000000  0.4812470000000  0.6207180000000 1.0
C      1  0.6248080000000  0.5466750000000  0.5259270000000 1.0
C      1  0.4359820000000  0.4789460000000  0.3366790000000 1.0
C      1  0.5367830000000  0.5638060000000  0.4710210000000 1.0
C      1  0.5022530000000  0.3826810000000  0.5300570000000 1.0
C      1  0.4603510000000  0.3929700000000  0.5504150000000 1.0
C      1  0.4279930000000  0.5915510000000  0.4276810000000 1.0
C      1  0.4724840000000  0.4481160000000  0.5341700000000 1.0
C      1  0.3891700000000  0.5509150000000  0.5075520000000 1.0
C      1  0.4594810000000  0.4179300000000  0.4378640000000 1.0
C      1  0.5572440000000  0.4374940000000  0.5788900000000 1.0
C      1  0.4492450000000  0.4301900000000  0.6134280000000 1.0
C      1  0.4968610000000  0.4340280000000  0.5406830000000 1.0
C      1  0.5070000000000  0.5116970000000  0.5697070000000 1.0
C      1  0.5335840000000  0.3960620000000  0.4652090000000 1.0
C      1  0.4769810000000  0.4762520000000  0.5382890000000 1.0
C      1  0.4814200000000  0.5619440000000  0.5784920000000 1.0
C      1  0.5873680000000  0.4508190000000  0.4299630000000 1.0
C      1  0.6401820000000  0.4760600000000  0.4917190000000 1.0
C      1  0.4248300000000  0.5848080000000  0.5011430000000 1.0
C      1  0.4718660000000  0.4671860000000  0.4604680000000 1.0
C      1  0.5841050000000  0.5513730000000  0.5716080000000 1.0
C      1  0.4481830000000  0.6340040000000  0.4770300000000 1.0
C      1  0.5879250000000  0.5190050000000  0.5016090000000 1.0
C      1  0.5698170000000  0.4427230000000  0.5538600000000 1.0
C      1  0.5604250000000  0.6139010000000  0.5011330000000 1.0
C      1  0.5771490000000  0.4748990000000  0.4712360000000 1.0
C      1  0.5400700000000  0.5442280000000  0.5576970000000 1.0
C      1  0.4314690000000  0.5508510000000  0.4043400000000 1.0
C      1  0.4048770000000  0.4337490000000  0.4090780000000 1.0
C      1  0.4710010000000  0.5673340000000  0.5068350000000 1.0
C      1  0.5454700000000  0.5555500000000  0.4114820000000 1.0
C      1  0.5018650000000  0.4276790000000  0.4053610000000 1.0
C      1  0.4179560000000  0.4852700000000  0.4073380000000 1.0
C      1  0.4027090000000  0.4220300000000  0.5316800000000 1.0
C      1  0.3677860000000  0.5898770000000  0.4619580000000 1.0
C      1  0.5451470000000  0.4879030000000  0.4324660000000 1.0
C      1  0.5424110000000  0.4636630000000  0.4151420000000 1.0
C      1  0.5589400000000  0.5676880000000  0.3901050000000 1.0
C      1  0.5164590000000  0.4248380000000  0.5217210000000 1.0
C      1  0.3997730000000  0.4698230000000  0.5169130000000 1.0
C      1  0.6102380000000  0.4709700000000  0.5980260000000 1.0
C      1  0.5156810000000  0.4541010000000  0.4068050000000 1.0
C      1  0.4214250000000  0.4483550000000  0.4544400000000 1.0
C      1  0.5186480000000  0.4781180000000  0.5995600000000 1.0
C      1  0.5988480000000  0.4062260000000  0.5057860000000 1.0
C      1  0.4021620000000  0.5711750000000  0.4911100000000 1.0
C      1  0.5894090000000  0.4987100000000  0.4558580000000 1.0
C      1  0.3866300000000  0.4454600000000  0.5248150000000 1.0
C      1  0.5220010000000  0.5421780000000  0.6049910000000 1.0
C      1  0.5402090000000  0.4656260000000  0.6121340000000 1.0
C      1  0.4628170000000  0.6110970000000  0.4811530000000 1.0
C      1  0.5643920000000  0.5796940000000  0.5330710000000 1.0
C      1  0.3440790000000  0.6004760000000  0.4597820000000 1.0
C      1  0.5955680000000  0.5907100000000  0.4725630000000 1.0
C      1  0.4788950000000  0.4177030000000  0.4180010000000 1.0
C      1  0.4977760000000  0.5375710000000  0.6186020000000 1.0
C      1  0.5516070000000  0.4566430000000  0.5369870000000 1.0
C      1  0.4749690000000  0.5450220000000  0.6027450000000 1.0
C      1  0.4456080000000  0.5289030000000  0.3905240000000 1.0
C      1  0.5970280000000  0.4440700000000  0.5454190000000 1.0
C      1  0.4444110000000  0.4287030000000  0.4610960000000 1.0
C      1  0.5499730000000  0.5829010000000  0.4575420000000 1.0
C      1  0.6142200000000  0.4491050000000  0.5230320000000 1.0
C      1  0.6302870000000  0.4727730000000  0.5184320000000 1.0
C      1  0.5335580000000  0.4989920000000  0.4957090000000 1.0
C      1  0.4897390000000  0.4894530000000  0.5163120000000 1.0
C      1  0.5159250000000  0.5618930000000  0.4114490000000 1.0
C      1  0.5363500000000  0.5293400000000  0.5342100000000 1.0
C      1  0.5510650000000  0.5047300000000  0.5338180000000 1.0
C      1  0.4155320000000  0.5239470000000  0.4678910000000 1.0
C      1  0.6112310000000  0.5666040000000  0.4810220000000 1.0
C      1  0.5060380000000  0.5171650000000  0.4220840000000 1.0
C      1  0.5035260000000  0.4175460000000  0.5645660000000 1.0
C      1  0.6030420000000  0.5453150000000  0.4633730000000 1.0
C      1  0.4415950000000  0.4886840000000  0.5194600000000 1.0
C      1  0.4734310000000  0.5445160000000  0.5518450000000 1.0
C      1  0.5774150000000  0.5817510000000  0.4517550000000 1.0
C      1  0.5068350000000  0.4067280000000  0.4645400000000 1.0
C      1  0.5659100000000  0.4263840000000  0.3941970000000 1.0
C      1  0.3592810000000  0.4441250000000  0.5258510000000 1.0
C      1  0.5632920000000  0.4586740000000  0.5981890000000 1.0
C      1  0.5528200000000  0.3894610000000  0.5233430000000 1.0
C      1  0.6309060000000  0.5224390000000  0.5354450000000 1.0
C      1  0.6094150000000  0.4681060000000  0.4223170000000 1.0
C      1  0.4780680000000  0.5161440000000  0.5635290000000 1.0
C      1  0.4883410000000  0.5201890000000  0.4744080000000 1.0
C      1  0.4283260000000  0.5678700000000  0.5607510000000 1.0
C      1  0.5157260000000  0.5968230000000  0.5098550000000 1.0
C      1  0.4250110000000  0.4720100000000  0.4755790000000 1.0
C      1  0.5179530000000  0.5421100000000  0.5168280000000 1.0
C      1  0.4114630000000  0.4453690000000  0.5716570000000 1.0
C      1  0.4526740000000  0.5899250000000  0.5005450000000 1.0
C      1  0.4847890000000  0.5656260000000  0.4812540000000 1.0
C      1  0.4087050000000  0.4008690000000  0.5141930000000 1.0
C      1  0.4789410000000  0.5165860000000  0.5061490000000 1.0
C      1  0.4598210000000  0.5230370000000  0.5963450000000 1.0
C      1  0.5436910000000  0.5960090000000  0.5171020000000 1.0
C      1  0.4338420000000  0.4898540000000  0.3602480000000 1.0
C      1  0.5210370000000  0.4864500000000  0.5712850000000 1.0
C      1  0.4699480000000  0.5439130000000  0.4657960000000 1.0
END
