TITL C-627112-676-678 -7.46306991930225e-07 125000 -912.700165226506 0 0 146 (C1) n - 1
REM
REM in /home/nfs/bkarasulu/CARBON/AIRSS/Generating-Clusters/LCBOP/Only-C1/SD-CG/FIRE-CG
REM
REM
REM
REM
REM
REM ./C.cell (11c1c37f851c82e70ff6c80c92926a4b)
REM AIRSS Version 0.9.1 bugfix July 2018 build 013d7b7c2542+ Fri, 06 Jul 2018 19:26:36 +0100
REM compiler GCC version 9.2.1 20190827 (Red Hat 9.2.1-1)
REM options -cpp -mtune=generic -march=x86-64 -g -O0 -fpre-include=/usr/include/finclude/math-vector-fortran.h
REM seed -2120053826 1508783030 1739163197 124570580 -1564440234 -2040145416 -494837162 493525504 720800059 301985376 -1333206086 -803515490 2055731163 -1950052826 -1646817767 -1952767692 -1840798877 -1889734764 -585843384 1356699413 1848412470 -1228110216 30494885 -1624793272 -1704625965 1348043347 -687629432 298193708 -943612010 1121795084 786276868 1600378662 -1914375185
REM
CELL 1.54180   50.00000   50.00000   50.00000   90.00000   90.00000   90.00000
LATT -1
SFAC C  
C      1  0.5808880000000  0.4322590000000  0.4327430000000 1.0
C      1  0.5264940000000  0.4450330000000  0.5689420000000 1.0
C      1  0.5620520000000  0.5748340000000  0.5653890000000 1.0
C      1  0.5274440000000  0.4693120000000  0.3939750000000 1.0
C      1  0.5425460000000  0.5538520000000  0.4020900000000 1.0
C      1  0.5131220000000  0.5176360000000  0.3873460000000 1.0
C      1  0.4284400000000  0.4308060000000  0.4412760000000 1.0
C      1  0.4746180000000  0.4791800000000  0.5558570000000 1.0
C      1  0.5382890000000  0.5931410000000  0.5084870000000 1.0
C      1  0.5801890000000  0.5619560000000  0.4432800000000 1.0
C      1  0.5516410000000  0.5798410000000  0.4079660000000 1.0
C      1  0.5814520000000  0.4370740000000  0.5788060000000 1.0
C      1  0.5937930000000  0.4851540000000  0.5072350000000 1.0
C      1  0.4765050000000  0.4343410000000  0.6286640000000 1.0
C      1  0.5013750000000  0.4648030000000  0.3801300000000 1.0
C      1  0.5647990000000  0.5082990000000  0.5895200000000 1.0
C      1  0.4680680000000  0.5057030000000  0.5126840000000 1.0
C      1  0.5617500000000  0.4135240000000  0.4373700000000 1.0
C      1  0.4535620000000  0.4477810000000  0.6311800000000 1.0
C      1  0.4765810000000  0.5340410000000  0.6019100000000 1.0
C      1  0.4975530000000  0.4966850000000  0.4712920000000 1.0
C      1  0.4327060000000  0.4562510000000  0.5521970000000 1.0
C      1  0.4810610000000  0.4982080000000  0.5363080000000 1.0
C      1  0.4676070000000  0.5874460000000  0.4490420000000 1.0
C      1  0.3983320000000  0.4700200000000  0.5228090000000 1.0
C      1  0.5855340000000  0.5671960000000  0.4700660000000 1.0
C      1  0.4484470000000  0.4898190000000  0.4705720000000 1.0
C      1  0.5597440000000  0.5087330000000  0.3946930000000 1.0
C      1  0.3758030000000  0.5146230000000  0.5277550000000 1.0
C      1  0.4686680000000  0.4861970000000  0.5831970000000 1.0
C      1  0.4259550000000  0.5676360000000  0.5086380000000 1.0
C      1  0.5120670000000  0.4358530000000  0.5910680000000 1.0
C      1  0.5375170000000  0.4902200000000  0.5080640000000 1.0
C      1  0.5433100000000  0.5634590000000  0.5804830000000 1.0
C      1  0.6202720000000  0.4351690000000  0.4933920000000 1.0
C      1  0.4821030000000  0.4450910000000  0.4946730000000 1.0
C      1  0.4879160000000  0.5689060000000  0.4370510000000 1.0
C      1  0.4440400000000  0.5209580000000  0.5144200000000 1.0
C      1  0.5709800000000  0.5237230000000  0.5261250000000 1.0
C      1  0.5394250000000  0.4641700000000  0.5178300000000 1.0
C      1  0.5226030000000  0.5446870000000  0.5821850000000 1.0
C      1  0.4415530000000  0.4090050000000  0.5110810000000 1.0
C      1  0.4101580000000  0.5272060000000  0.3798870000000 1.0
C      1  0.6438670000000  0.4218150000000  0.4975130000000 1.0
C      1  0.5248350000000  0.5208630000000  0.5660580000000 1.0
C      1  0.4854740000000  0.5092060000000  0.3916410000000 1.0
C      1  0.5621110000000  0.5332630000000  0.4082440000000 1.0
C      1  0.5859420000000  0.5328640000000  0.5039410000000 1.0
C      1  0.5478200000000  0.5024050000000  0.4591880000000 1.0
C      1  0.4219170000000  0.5266340000000  0.4513360000000 1.0
C      1  0.4939740000000  0.5565330000000  0.5106930000000 1.0
C      1  0.5906150000000  0.4814470000000  0.5609890000000 1.0
C      1  0.5072120000000  0.4551050000000  0.4867600000000 1.0
C      1  0.4182310000000  0.4263930000000  0.5156060000000 1.0
C      1  0.5198770000000  0.4610510000000  0.4221010000000 1.0
C      1  0.4978120000000  0.4014350000000  0.4854120000000 1.0
C      1  0.4975300000000  0.4308540000000  0.6127050000000 1.0
C      1  0.4593910000000  0.5596720000000  0.5422030000000 1.0
C      1  0.4935790000000  0.4008130000000  0.5155540000000 1.0
C      1  0.4611570000000  0.6014270000000  0.5041510000000 1.0
C      1  0.4162980000000  0.5331430000000  0.4784220000000 1.0
C      1  0.5467750000000  0.5101250000000  0.5263060000000 1.0
C      1  0.4430910000000  0.5477190000000  0.5218350000000 1.0
C      1  0.4353940000000  0.5940110000000  0.5172350000000 1.0
C      1  0.4504810000000  0.5444860000000  0.6000010000000 1.0
C      1  0.4752740000000  0.4268370000000  0.4465090000000 1.0
C      1  0.4106020000000  0.4390050000000  0.4891990000000 1.0
C      1  0.5252410000000  0.5247910000000  0.5377000000000 1.0
C      1  0.4869410000000  0.5662940000000  0.4844670000000 1.0
C      1  0.4051740000000  0.5308330000000  0.4052080000000 1.0
C      1  0.4731370000000  0.4949210000000  0.4867130000000 1.0
C      1  0.6199790000000  0.4573380000000  0.4754150000000 1.0
C      1  0.5265170000000  0.5490790000000  0.4669280000000 1.0
C      1  0.4827740000000  0.5713830000000  0.5322590000000 1.0
C      1  0.4673660000000  0.4124160000000  0.5236060000000 1.0
C      1  0.4901550000000  0.4959960000000  0.4435640000000 1.0
C      1  0.5146170000000  0.5384940000000  0.5143590000000 1.0
C      1  0.5960940000000  0.5005410000000  0.4631440000000 1.0
C      1  0.5747880000000  0.5351700000000  0.4337360000000 1.0
C      1  0.3693900000000  0.5365740000000  0.5135280000000 1.0
C      1  0.5789130000000  0.5601080000000  0.4962820000000 1.0
C      1  0.3780890000000  0.5538510000000  0.4927310000000 1.0
C      1  0.5140440000000  0.4065550000000  0.5348450000000 1.0
C      1  0.4606080000000  0.4567800000000  0.5443420000000 1.0
C      1  0.6128160000000  0.5195110000000  0.5842550000000 1.0
C      1  0.4313300000000  0.5945390000000  0.5467740000000 1.0
C      1  0.4464190000000  0.4110650000000  0.4820770000000 1.0
C      1  0.4747180000000  0.5278040000000  0.4115850000000 1.0
C      1  0.5347020000000  0.4158430000000  0.4459760000000 1.0
C      1  0.4229050000000  0.5129600000000  0.4972640000000 1.0
C      1  0.3931250000000  0.4944370000000  0.5375360000000 1.0
C      1  0.4396610000000  0.4656910000000  0.6169760000000 1.0
C      1  0.4857890000000  0.5989860000000  0.5219960000000 1.0
C      1  0.4318840000000  0.5494010000000  0.5790660000000 1.0
C      1  0.4246840000000  0.4769650000000  0.5707270000000 1.0
C      1  0.5298290000000  0.4277770000000  0.5454980000000 1.0
C      1  0.4245690000000  0.4867490000000  0.4861080000000 1.0
C      1  0.5566670000000  0.4577200000000  0.4783680000000 1.0
C      1  0.6052750000000  0.4730040000000  0.4563300000000 1.0
C      1  0.4100460000000  0.4999190000000  0.5607750000000 1.0
C      1  0.5136400000000  0.6039250000000  0.5146360000000 1.0
C      1  0.3665520000000  0.5530510000000  0.4667440000000 1.0
C      1  0.5726690000000  0.4269820000000  0.5190230000000 1.0
C      1  0.5265780000000  0.5316520000000  0.4890440000000 1.0
C      1  0.3776260000000  0.5447700000000  0.4434460000000 1.0
C      1  0.4535000000000  0.4313780000000  0.4308840000000 1.0
C      1  0.5404850000000  0.4981410000000  0.5772060000000 1.0
C      1  0.4748700000000  0.4205450000000  0.4757820000000 1.0
C      1  0.5299190000000  0.4543460000000  0.4699370000000 1.0
C      1  0.5722470000000  0.4611960000000  0.5695880000000 1.0
C      1  0.4997080000000  0.5491180000000  0.5976160000000 1.0
C      1  0.4447270000000  0.5092360000000  0.4488120000000 1.0
C      1  0.4945580000000  0.4756030000000  0.4245840000000 1.0
C      1  0.5024570000000  0.5611330000000  0.4608890000000 1.0
C      1  0.5766780000000  0.4669240000000  0.4936920000000 1.0
C      1  0.5999170000000  0.4823170000000  0.5345050000000 1.0
C      1  0.4836840000000  0.4810610000000  0.3970420000000 1.0
C      1  0.4675490000000  0.5879030000000  0.4788200000000 1.0
C      1  0.5969170000000  0.4264430000000  0.5072490000000 1.0
C      1  0.5628640000000  0.5781510000000  0.5133650000000 1.0
C      1  0.4801410000000  0.5064390000000  0.5982940000000 1.0
C      1  0.5346290000000  0.4973550000000  0.3893180000000 1.0
C      1  0.5481120000000  0.4388860000000  0.5266850000000 1.0
C      1  0.5707530000000  0.5791750000000  0.5405760000000 1.0
C      1  0.5710680000000  0.5830860000000  0.4266020000000 1.0
C      1  0.5906400000000  0.5038840000000  0.5786780000000 1.0
C      1  0.4402570000000  0.5705060000000  0.5611780000000 1.0
C      1  0.6331830000000  0.5352720000000  0.5882370000000 1.0
C      1  0.4016490000000  0.5339680000000  0.4326270000000 1.0
C      1  0.5732480000000  0.5119480000000  0.4501790000000 1.0
C      1  0.5267640000000  0.5024160000000  0.4815120000000 1.0
C      1  0.4065270000000  0.4670940000000  0.4946940000000 1.0
C      1  0.4246120000000  0.4253460000000  0.4685370000000 1.0
C      1  0.5437910000000  0.4686940000000  0.5715280000000 1.0
C      1  0.5160340000000  0.5447950000000  0.3987910000000 1.0
C      1  0.4915010000000  0.5520140000000  0.4140960000000 1.0
C      1  0.4126550000000  0.4471430000000  0.5349740000000 1.0
C      1  0.4687720000000  0.5140610000000  0.4354260000000 1.0
C      1  0.5198990000000  0.4006820000000  0.4662150000000 1.0
C      1  0.5266200000000  0.4437650000000  0.4434870000000 1.0
C      1  0.4067000000000  0.5567090000000  0.4912780000000 1.0
C      1  0.5978950000000  0.5092390000000  0.4911750000000 1.0
C      1  0.4426140000000  0.4783090000000  0.5922900000000 1.0
C      1  0.4714980000000  0.4419880000000  0.5224000000000 1.0
C      1  0.4161550000000  0.5266360000000  0.5701380000000 1.0
C      1  0.5926650000000  0.4562820000000  0.4368070000000 1.0
END
