TITL C-627106-156-1518 0.0395316426776115 125000 -547.480445741501 0 0 91 (C1) n - 1
REM
REM in /home/nfs/bkarasulu/CARBON/AIRSS/Generating-Clusters/LCBOP/Only-C1/SD-CG/FIRE-CG
REM
REM
REM
REM
REM
REM ./C.cell (11c1c37f851c82e70ff6c80c92926a4b)
REM AIRSS Version 0.9.1 bugfix July 2018 build 013d7b7c2542+ Fri, 06 Jul 2018 19:26:36 +0100
REM compiler GCC version 9.2.1 20190827 (Red Hat 9.2.1-1)
REM options -cpp -mtune=generic -march=x86-64 -g -O0 -fpre-include=/usr/include/finclude/math-vector-fortran.h
REM seed 614538372 614220545 -1010789808 879081585 -1066303944 796397185 -1337515636 -1605075510 -1462489833 -2140759486 974471376 1888933850 -1573380131 -508854070 -1444413662 -1874290776 1583249345 -1597478150 -21827950 -2068324690 31501050 -1938534417 1294686492 -1720024963 -177231715 -2006289824 41323830 134536629 1874167371 392985253 -79272560 910360596 -116271908
REM
CELL 1.54180   50.00000   50.00000   50.00000   90.00000   90.00000   90.00000
LATT -1
SFAC C  
C      1  0.5372210000000  0.5662760000000  0.4593040000000 1.0
C      1  0.5801810000000  0.4437240000000  0.4613760000000 1.0
C      1  0.5673430000000  0.5038090000000  0.4477090000000 1.0
C      1  0.5156040000000  0.5358360000000  0.4277670000000 1.0
C      1  0.4284070000000  0.4355100000000  0.4706080000000 1.0
C      1  0.5976860000000  0.4885220000000  0.4801220000000 1.0
C      1  0.5067660000000  0.5475510000000  0.5582500000000 1.0
C      1  0.5548550000000  0.5550370000000  0.5679740000000 1.0
C      1  0.4789450000000  0.5012360000000  0.4416420000000 1.0
C      1  0.5261580000000  0.4348090000000  0.4630710000000 1.0
C      1  0.5241990000000  0.4806000000000  0.4713860000000 1.0
C      1  0.5035050000000  0.4191650000000  0.4993660000000 1.0
C      1  0.4396810000000  0.5225960000000  0.5249470000000 1.0
C      1  0.4669210000000  0.4659730000000  0.4987420000000 1.0
C      1  0.4687750000000  0.4421230000000  0.4135090000000 1.0
C      1  0.4954070000000  0.5080520000000  0.5120940000000 1.0
C      1  0.5292980000000  0.5773780000000  0.5053820000000 1.0
C      1  0.5075600000000  0.4387990000000  0.5175700000000 1.0
C      1  0.4652640000000  0.4402310000000  0.5706320000000 1.0
C      1  0.5020880000000  0.4640070000000  0.5285310000000 1.0
C      1  0.4965290000000  0.4692740000000  0.5551390000000 1.0
C      1  0.3411650000000  0.6409990000000  0.4665810000000 1.0
C      1  0.5268060000000  0.4876570000000  0.4216390000000 1.0
C      1  0.5337190000000  0.5527140000000  0.5497400000000 1.0
C      1  0.5743120000000  0.4187410000000  0.4757440000000 1.0
C      1  0.5246620000000  0.4401080000000  0.4133430000000 1.0
C      1  0.5550500000000  0.4378570000000  0.5231940000000 1.0
C      1  0.5164480000000  0.5061410000000  0.5854760000000 1.0
C      1  0.5024740000000  0.4219990000000  0.4712600000000 1.0
C      1  0.4723580000000  0.5731650000000  0.4964710000000 1.0
C      1  0.5175690000000  0.5189270000000  0.4984980000000 1.0
C      1  0.5343850000000  0.4565230000000  0.4811530000000 1.0
C      1  0.4457720000000  0.5626790000000  0.4952870000000 1.0
C      1  0.4697860000000  0.4680450000000  0.5656120000000 1.0
C      1  0.4693650000000  0.4747910000000  0.4502080000000 1.0
C      1  0.4902760000000  0.5741800000000  0.4734390000000 1.0
C      1  0.5416700000000  0.5320580000000  0.5064590000000 1.0
C      1  0.4613940000000  0.4369450000000  0.5045380000000 1.0
C      1  0.5956660000000  0.5375560000000  0.5892010000000 1.0
C      1  0.5751980000000  0.5351800000000  0.5712560000000 1.0
C      1  0.3208440000000  0.6562380000000  0.4607080000000 1.0
C      1  0.5787510000000  0.5085360000000  0.4733320000000 1.0
C      1  0.4593070000000  0.5487250000000  0.4435730000000 1.0
C      1  0.4869550000000  0.4809600000000  0.5116810000000 1.0
C      1  0.5265240000000  0.4546090000000  0.5898130000000 1.0
C      1  0.5255420000000  0.4815270000000  0.5917840000000 1.0
C      1  0.5536800000000  0.4827880000000  0.4343600000000 1.0
C      1  0.4200090000000  0.4796320000000  0.5263370000000 1.0
C      1  0.4879870000000  0.5648790000000  0.5462310000000 1.0
C      1  0.5980940000000  0.4624630000000  0.4729260000000 1.0
C      1  0.5187680000000  0.4655050000000  0.4054160000000 1.0
C      1  0.5584270000000  0.5774680000000  0.5853670000000 1.0
C      1  0.4812900000000  0.5663330000000  0.4466850000000 1.0
C      1  0.4130540000000  0.4714220000000  0.5014330000000 1.0
C      1  0.4533740000000  0.4741240000000  0.4746030000000 1.0
C      1  0.5790590000000  0.5794510000000  0.6031740000000 1.0
C      1  0.5489580000000  0.4101510000000  0.5209590000000 1.0
C      1  0.4257610000000  0.4636250000000  0.4771810000000 1.0
C      1  0.5495850000000  0.4592140000000  0.5058890000000 1.0
C      1  0.5621690000000  0.4035430000000  0.4955660000000 1.0
C      1  0.5198360000000  0.4308020000000  0.5789480000000 1.0
C      1  0.5200910000000  0.5065140000000  0.4738240000000 1.0
C      1  0.4766390000000  0.4274600000000  0.4597870000000 1.0
C      1  0.5378680000000  0.5556780000000  0.5216060000000 1.0
C      1  0.4785110000000  0.4207020000000  0.5533630000000 1.0
C      1  0.4372300000000  0.4981160000000  0.5394010000000 1.0
C      1  0.3618260000000  0.6255050000000  0.4725510000000 1.0
C      1  0.4559460000000  0.4929350000000  0.5610860000000 1.0
C      1  0.4712680000000  0.5153120000000  0.5705960000000 1.0
C      1  0.5385840000000  0.5461100000000  0.4412640000000 1.0
C      1  0.4031380000000  0.5945260000000  0.4844870000000 1.0
C      1  0.4429180000000  0.5346180000000  0.4997280000000 1.0
C      1  0.5656620000000  0.5250490000000  0.4924900000000 1.0
C      1  0.4541680000000  0.4252300000000  0.4783940000000 1.0
C      1  0.4984760000000  0.5586250000000  0.4251180000000 1.0
C      1  0.4607590000000  0.5219790000000  0.4520680000000 1.0
C      1  0.4659380000000  0.4209340000000  0.5275560000000 1.0
C      1  0.5977450000000  0.5596050000000  0.6052230000000 1.0
C      1  0.4983990000000  0.5241240000000  0.5726820000000 1.0
C      1  0.4812870000000  0.5764360000000  0.5230520000000 1.0
C      1  0.5567130000000  0.4835170000000  0.5162850000000 1.0
C      1  0.4735780000000  0.4482820000000  0.4397130000000 1.0
C      1  0.5615300000000  0.4542490000000  0.4408660000000 1.0
C      1  0.4238180000000  0.5790430000000  0.4903200000000 1.0
C      1  0.5063390000000  0.5080090000000  0.4289610000000 1.0
C      1  0.3824820000000  0.6100150000000  0.4785210000000 1.0
C      1  0.5275770000000  0.4024510000000  0.5394730000000 1.0
C      1  0.5189610000000  0.5760170000000  0.4788010000000 1.0
C      1  0.5078370000000  0.4148460000000  0.5580190000000 1.0
C      1  0.5385870000000  0.4365330000000  0.4376290000000 1.0
C      1  0.4476810000000  0.5188120000000  0.4769490000000 1.0
END
