TITL C-627106-156-634 2077.17852111834 125000 -449.06462627148 0 0 75 (C1) n - 1
REM
REM in /home/nfs/bkarasulu/CARBON/AIRSS/Generating-Clusters/LCBOP/Only-C1/SD-CG/FIRE-CG
REM
REM
REM
REM
REM
REM ./C.cell (11c1c37f851c82e70ff6c80c92926a4b)
REM AIRSS Version 0.9.1 bugfix July 2018 build 013d7b7c2542+ Fri, 06 Jul 2018 19:26:36 +0100
REM compiler GCC version 9.2.1 20190827 (Red Hat 9.2.1-1)
REM options -cpp -mtune=generic -march=x86-64 -g -O0 -fpre-include=/usr/include/finclude/math-vector-fortran.h
REM seed -79129768 539845815 -1679158846 -1398897002 152329357 -784567984 -242455705 2093296282 383795079 15646579 -718322073 2041733208 -1946635578 1967732921 1509427593 -1007017661 544589647 1002919193 -1076254083 -1060982220 785673576 852604137 1194607958 503044356 73555346 254624733 -1473590681 -1475764681 501617650 -1554287529 -1577041366 -1788933430 -2101307104
REM
CELL 1.54180   50.00000   50.00000   50.00000   90.00000   90.00000   90.00000
LATT -1
SFAC C  
C      1  0.5253810000000  0.5485060000000  0.5253150000000 1.0
C      1  0.4944430000000  0.4785410000000  0.4761200000000 1.0
C      1  0.6146600000000  0.5460190000000  0.4123910000000 1.0
C      1  0.4689000000000  0.4767370000000  0.4846550000000 1.0
C      1  0.5026610000000  0.5403910000000  0.4425120000000 1.0
C      1  0.5203200000000  0.5098600000000  0.4122160000000 1.0
C      1  0.4206890000000  0.4547210000000  0.5571780000000 1.0
C      1  0.5326680000000  0.4930390000000  0.3925670000000 1.0
C      1  0.5030130000000  0.4386810000000  0.5549370000000 1.0
C      1  0.5592930000000  0.4998720000000  0.3892040000000 1.0
C      1  0.5149890000000  0.4792130000000  0.5359150000000 1.0
C      1  0.4547050000000  0.5590350000000  0.5283160000000 1.0
C      1  0.4265640000000  0.5053640000000  0.5468350000000 1.0
C      1  0.4975580000000  0.4276180000000  0.5272590000000 1.0
C      1  0.4800110000000  0.4557360000000  0.5628830000000 1.0
C      1  0.5459740000000  0.5711100000000  0.4842310000000 1.0
C      1  0.4092260000000  0.4662110000000  0.4853500000000 1.0
C      1  0.5112560000000  0.5282960000000  0.5107900000000 1.0
C      1  0.4964820000000  0.5157460000000  0.4273520000000 1.0
C      1  0.5596620000000  0.5329510000000  0.5556170000000 1.0
C      1  0.5580090000000  0.4880930000000  0.5423730000000 1.0
C      1  0.5953510000000  0.5068680000000  0.5258590000000 1.0
C      1  0.4564640000000  0.4345460000000  0.4690850000000 1.0
C      1  0.4601770000000  0.4486240000000  0.4462270000000 1.0
C      1  0.6608930000000  0.5697840000000  0.4202630000000 1.0
C      1  0.5653780000000  0.4090850000000  0.5210790000000 1.0
C      1  0.4815070000000  0.5272670000000  0.5661020000000 1.0
C      1  0.4609150000000  0.5622920000000  0.4988030000000 1.0
C      1  0.5490780000000  0.4267190000000  0.5076500000000 1.0
C      1  0.4712860000000  0.4641060000000  0.5354440000000 1.0
C      1  0.5514270000000  0.4658580000000  0.5591270000000 1.0
C      1  0.4885780000000  0.4867140000000  0.5301010000000 1.0
C      1  0.5544380000000  0.4470010000000  0.4641830000000 1.0
C      1  0.4190890000000  0.5390430000000  0.5005720000000 1.0
C      1  0.5913290000000  0.5340020000000  0.4088050000000 1.0
C      1  0.3995940000000  0.5143110000000  0.5464060000000 1.0
C      1  0.4391420000000  0.4981060000000  0.5715920000000 1.0
C      1  0.5424450000000  0.5284150000000  0.4209250000000 1.0
C      1  0.5244670000000  0.4577340000000  0.5543650000000 1.0
C      1  0.5822090000000  0.4640860000000  0.4994260000000 1.0
C      1  0.5174520000000  0.4921370000000  0.4790090000000 1.0
C      1  0.4787630000000  0.5712360000000  0.4793080000000 1.0
C      1  0.4507500000000  0.4915730000000  0.5010180000000 1.0
C      1  0.5666280000000  0.5219500000000  0.4065150000000 1.0
C      1  0.4245210000000  0.4489750000000  0.5033960000000 1.0
C      1  0.4240230000000  0.4605200000000  0.5295920000000 1.0
C      1  0.5208920000000  0.4240350000000  0.5112490000000 1.0
C      1  0.5955240000000  0.4858290000000  0.5084000000000 1.0
C      1  0.5616650000000  0.4463330000000  0.4907050000000 1.0
C      1  0.5743670000000  0.5110370000000  0.5447940000000 1.0
C      1  0.5443340000000  0.5620540000000  0.4591520000000 1.0
C      1  0.4507100000000  0.4368400000000  0.4970410000000 1.0
C      1  0.4616650000000  0.5173310000000  0.4989310000000 1.0
C      1  0.4252240000000  0.5541570000000  0.5260200000000 1.0
C      1  0.5321790000000  0.5410920000000  0.5525020000000 1.0
C      1  0.6379630000000  0.5580210000000  0.4163260000000 1.0
C      1  0.5382830000000  0.5678740000000  0.5096790000000 1.0
C      1  0.5369500000000  0.4914790000000  0.5227020000000 1.0
C      1  0.3849640000000  0.5163590000000  0.5235890000000 1.0
C      1  0.4660640000000  0.4714190000000  0.4329510000000 1.0
C      1  0.5275520000000  0.5066720000000  0.5009370000000 1.0
C      1  0.4714940000000  0.5382590000000  0.5408190000000 1.0
C      1  0.4340370000000  0.4878190000000  0.5247970000000 1.0
C      1  0.5097150000000  0.5336610000000  0.5693570000000 1.0
C      1  0.5314470000000  0.5457660000000  0.4405720000000 1.0
C      1  0.4017020000000  0.4927580000000  0.4846270000000 1.0
C      1  0.3994000000000  0.5178920000000  0.4989700000000 1.0
C      1  0.4806240000000  0.4779690000000  0.5809820000000 1.0
C      1  0.4457480000000  0.5386660000000  0.4891280000000 1.0
C      1  0.4836080000000  0.5198660000000  0.5190700000000 1.0
C      1  0.4672560000000  0.5032970000000  0.5765860000000 1.0
C      1  0.4764390000000  0.4960280000000  0.4290710000000 1.0
C      1  0.4720310000000  0.4400570000000  0.5174840000000 1.0
C      1  0.4280600000000  0.4717300000000  0.5776120000000 1.0
C      1  0.4877330000000  0.5590080000000  0.4570750000000 1.0
END
