TITL C-627106-156-807 -1.773610115036e-07 125000 -318.187640515453 0 0 54 (C1) n - 1
REM
REM in /home/nfs/bkarasulu/CARBON/AIRSS/Generating-Clusters/LCBOP/Only-C1/SD-CG/FIRE-CG
REM
REM
REM
REM
REM
REM ./C.cell (11c1c37f851c82e70ff6c80c92926a4b)
REM AIRSS Version 0.9.1 bugfix July 2018 build 013d7b7c2542+ Fri, 06 Jul 2018 19:26:36 +0100
REM compiler GCC version 9.2.1 20190827 (Red Hat 9.2.1-1)
REM options -cpp -mtune=generic -march=x86-64 -g -O0 -fpre-include=/usr/include/finclude/math-vector-fortran.h
REM seed 1585615528 1667612565 1755815529 -1234625629 1879977255 -1741519529 662770758 1807764797 -395244407 -603014239 -220287912 -1972928705 2038274810 1926503067 -1007010171 1328572305 1255368814 -162322057 -386514208 1849012207 -437492401 887547685 602827914 -930667613 774144120 26426280 1363871707 -404346980 80923381 -1200612815 -237675663 463748826 -789278096
REM
CELL 1.54180   50.00000   50.00000   50.00000   90.00000   90.00000   90.00000
LATT -1
SFAC C  
C      1  0.4775330000000  0.4407620000000  0.5191110000000 1.0
C      1  0.5640740000000  0.5462200000000  0.4841490000000 1.0
C      1  0.4880480000000  0.5941340000000  0.4575540000000 1.0
C      1  0.5154090000000  0.4978290000000  0.4879680000000 1.0
C      1  0.4275600000000  0.4905180000000  0.4795580000000 1.0
C      1  0.4924490000000  0.5463760000000  0.4488690000000 1.0
C      1  0.5034730000000  0.4346240000000  0.4727120000000 1.0
C      1  0.4377510000000  0.4641600000000  0.4821840000000 1.0
C      1  0.4426440000000  0.5483580000000  0.5530070000000 1.0
C      1  0.4768490000000  0.5001270000000  0.4510000000000 1.0
C      1  0.4991190000000  0.5625550000000  0.5433170000000 1.0
C      1  0.4613780000000  0.5287750000000  0.4873890000000 1.0
C      1  0.5264590000000  0.4563910000000  0.5411000000000 1.0
C      1  0.4809630000000  0.4953570000000  0.5785980000000 1.0
C      1  0.5475500000000  0.4932720000000  0.4425900000000 1.0
C      1  0.5280070000000  0.5143430000000  0.4413880000000 1.0
C      1  0.5115510000000  0.5346520000000  0.4301750000000 1.0
C      1  0.5281880000000  0.5337540000000  0.5167160000000 1.0
C      1  0.5667460000000  0.4837550000000  0.4848860000000 1.0
C      1  0.5502530000000  0.4431210000000  0.4983850000000 1.0
C      1  0.5088760000000  0.4582350000000  0.4552080000000 1.0
C      1  0.5207830000000  0.5677550000000  0.4818630000000 1.0
C      1  0.4825270000000  0.4727700000000  0.4552860000000 1.0
C      1  0.5755310000000  0.5280770000000  0.4678940000000 1.0
C      1  0.4805380000000  0.4400040000000  0.4897580000000 1.0
C      1  0.5218650000000  0.4799580000000  0.5578410000000 1.0
C      1  0.4412070000000  0.4997250000000  0.5467200000000 1.0
C      1  0.4998550000000  0.5409820000000  0.5243860000000 1.0
C      1  0.4557290000000  0.5695600000000  0.5631880000000 1.0
C      1  0.4641520000000  0.4583160000000  0.4729220000000 1.0
C      1  0.4511100000000  0.5259270000000  0.5376500000000 1.0
C      1  0.4816640000000  0.5755650000000  0.5590320000000 1.0
C      1  0.4944460000000  0.4880610000000  0.5561540000000 1.0
C      1  0.5086400000000  0.4872830000000  0.5107170000000 1.0
C      1  0.5451640000000  0.5109210000000  0.5272500000000 1.0
C      1  0.4757460000000  0.5268350000000  0.4621490000000 1.0
C      1  0.5389920000000  0.5512620000000  0.4960350000000 1.0
C      1  0.5543800000000  0.4583250000000  0.4744870000000 1.0
C      1  0.4313450000000  0.4492670000000  0.5058030000000 1.0
C      1  0.5366570000000  0.4664790000000  0.4522870000000 1.0
C      1  0.4717490000000  0.5324460000000  0.5153800000000 1.0
C      1  0.4432270000000  0.4720660000000  0.5463280000000 1.0
C      1  0.4873300000000  0.4886260000000  0.5284580000000 1.0
C      1  0.5475080000000  0.4600900000000  0.5217240000000 1.0
C      1  0.5023590000000  0.4410970000000  0.5342770000000 1.0
C      1  0.4500430000000  0.4501440000000  0.5280120000000 1.0
C      1  0.4651670000000  0.4887290000000  0.5128460000000 1.0
C      1  0.5001530000000  0.5702050000000  0.4626500000000 1.0
C      1  0.5572580000000  0.4879150000000  0.5125720000000 1.0
C      1  0.5688860000000  0.5013390000000  0.4621650000000 1.0
C      1  0.5204410000000  0.5150340000000  0.4690560000000 1.0
C      1  0.5398050000000  0.5019780000000  0.5542290000000 1.0
C      1  0.4357000000000  0.5157870000000  0.4850440000000 1.0
C      1  0.5151650000000  0.4101550000000  0.4699760000000 1.0
END
