TITL C-627113-6568-1193 -21.8005167832104 125000 -771.753387642168 0 0 128 (C1) n - 1
REM
REM in /home/nfs/bkarasulu/CARBON/AIRSS/Generating-Clusters/LCBOP/Only-C1/SD-CG/FIRE-CG
REM
REM
REM
REM
REM
REM ./C.cell (11c1c37f851c82e70ff6c80c92926a4b)
REM AIRSS Version 0.9.1 bugfix July 2018 build 013d7b7c2542+ Fri, 06 Jul 2018 19:26:36 +0100
REM compiler GCC version 9.2.1 20190827 (Red Hat 9.2.1-1)
REM options -cpp -mtune=generic -march=x86-64 -g -O0 -fpre-include=/usr/include/finclude/math-vector-fortran.h
REM seed 1046800783 21520814 -1310850394 1164451652 1428955648 1367751790 -191280230 1147238053 -2002779096 -10720431 -1357392044 1538732154 -1381893774 1563591233 -858231099 -693804400 -1332882122 235949027 -1112614122 1630350723 1749121876 -195403583 -1930939082 1982384434 1403150327 2123794740 681158595 -1116435286 135721579 1454751842 -1358798089 512101609 -1731609800
REM
CELL 1.54180   50.00000   50.00000   50.00000   90.00000   90.00000   90.00000
LATT -1
SFAC C  
C      1  0.5555810000000  0.5762610000000  0.5741190000000 1.0
C      1  0.5359260000000  0.4408280000000  0.4982080000000 1.0
C      1  0.4548040000000  0.4500870000000  0.5805020000000 1.0
C      1  0.4710160000000  0.5936360000000  0.5300180000000 1.0
C      1  0.4528980000000  0.5036930000000  0.4950480000000 1.0
C      1  0.5207970000000  0.6245250000000  0.5003850000000 1.0
C      1  0.5666580000000  0.4192880000000  0.5286910000000 1.0
C      1  0.5751030000000  0.5585320000000  0.4671720000000 1.0
C      1  0.4877080000000  0.5620560000000  0.4659130000000 1.0
C      1  0.5547980000000  0.4422330000000  0.5190580000000 1.0
C      1  0.4683890000000  0.4606800000000  0.6009770000000 1.0
C      1  0.6031480000000  0.4305550000000  0.4194620000000 1.0
C      1  0.4713660000000  0.4408930000000  0.4908140000000 1.0
C      1  0.5563060000000  0.4996910000000  0.4275050000000 1.0
C      1  0.4430450000000  0.5261460000000  0.4795100000000 1.0
C      1  0.4929350000000  0.5405000000000  0.5115300000000 1.0
C      1  0.5189810000000  0.6761920000000  0.4909200000000 1.0
C      1  0.5417940000000  0.5708890000000  0.4216840000000 1.0
C      1  0.5322120000000  0.4686980000000  0.5596970000000 1.0
C      1  0.4539440000000  0.4127570000000  0.5243660000000 1.0
C      1  0.4418010000000  0.4827440000000  0.5112260000000 1.0
C      1  0.5526920000000  0.4409390000000  0.4091710000000 1.0
C      1  0.5865970000000  0.4835980000000  0.5591590000000 1.0
C      1  0.5187690000000  0.4752070000000  0.4021640000000 1.0
C      1  0.5743210000000  0.4699410000000  0.5794180000000 1.0
C      1  0.6280560000000  0.4503970000000  0.5190800000000 1.0
C      1  0.4482190000000  0.5895520000000  0.4614910000000 1.0
C      1  0.4502130000000  0.5233530000000  0.4513080000000 1.0
C      1  0.4891090000000  0.5063860000000  0.6147270000000 1.0
C      1  0.4573410000000  0.5868470000000  0.5545920000000 1.0
C      1  0.5645160000000  0.5519360000000  0.5669990000000 1.0
C      1  0.5254650000000  0.4475580000000  0.4076340000000 1.0
C      1  0.4726900000000  0.5817880000000  0.4521310000000 1.0
C      1  0.5055690000000  0.4980210000000  0.4862430000000 1.0
C      1  0.4925310000000  0.4047070000000  0.4545830000000 1.0
C      1  0.4936550000000  0.5317970000000  0.6031670000000 1.0
C      1  0.5542060000000  0.4076810000000  0.4707900000000 1.0
C      1  0.3954510000000  0.4952620000000  0.4336090000000 1.0
C      1  0.4399830000000  0.4548810000000  0.5548550000000 1.0
C      1  0.4660120000000  0.4139630000000  0.4984580000000 1.0
C      1  0.5316560000000  0.4987440000000  0.4134150000000 1.0
C      1  0.4782420000000  0.5108450000000  0.5628110000000 1.0
C      1  0.4049320000000  0.4470340000000  0.5073180000000 1.0
C      1  0.4197100000000  0.4713190000000  0.4687200000000 1.0
C      1  0.4849910000000  0.4481610000000  0.4669600000000 1.0
C      1  0.4780010000000  0.5532460000000  0.4916270000000 1.0
C      1  0.6287180000000  0.4237570000000  0.5225880000000 1.0
C      1  0.3756610000000  0.5063840000000  0.3913610000000 1.0
C      1  0.4948130000000  0.4063320000000  0.4259890000000 1.0
C      1  0.4397480000000  0.4599140000000  0.4525800000000 1.0
C      1  0.5180340000000  0.5243690000000  0.4139190000000 1.0
C      1  0.5492180000000  0.4641090000000  0.5362610000000 1.0
C      1  0.4678810000000  0.4622210000000  0.4487270000000 1.0
C      1  0.4418750000000  0.5803060000000  0.4878130000000 1.0
C      1  0.5359720000000  0.5220660000000  0.5336710000000 1.0
C      1  0.3863940000000  0.5116800000000  0.5074860000000 1.0
C      1  0.4612500000000  0.6015970000000  0.5773140000000 1.0
C      1  0.4218580000000  0.4669260000000  0.4969290000000 1.0
C      1  0.4001750000000  0.4905330000000  0.4606830000000 1.0
C      1  0.5039770000000  0.5501610000000  0.5563730000000 1.0
C      1  0.5448190000000  0.6171120000000  0.4372340000000 1.0
C      1  0.5199540000000  0.6505790000000  0.4956770000000 1.0
C      1  0.5376930000000  0.5795870000000  0.4916710000000 1.0
C      1  0.4712980000000  0.4833010000000  0.3784270000000 1.0
C      1  0.3879130000000  0.5054420000000  0.4814250000000 1.0
C      1  0.4386700000000  0.5656180000000  0.5541920000000 1.0
C      1  0.4107440000000  0.5193350000000  0.5532450000000 1.0
C      1  0.5442870000000  0.5010250000000  0.5160550000000 1.0
C      1  0.5426910000000  0.6423010000000  0.4308990000000 1.0
C      1  0.5915080000000  0.4871980000000  0.5310060000000 1.0
C      1  0.5494570000000  0.4551590000000  0.5794820000000 1.0
C      1  0.6137690000000  0.4729410000000  0.5208810000000 1.0
C      1  0.5002220000000  0.5535030000000  0.6183250000000 1.0
C      1  0.5263530000000  0.5368690000000  0.4716310000000 1.0
C      1  0.4452510000000  0.4874200000000  0.3818970000000 1.0
C      1  0.3930730000000  0.4780840000000  0.5433690000000 1.0
C      1  0.4349020000000  0.4287960000000  0.5390880000000 1.0
C      1  0.5786610000000  0.5300520000000  0.4665760000000 1.0
C      1  0.4804430000000  0.4811330000000  0.6132740000000 1.0
C      1  0.4092830000000  0.4289530000000  0.5267410000000 1.0
C      1  0.4196450000000  0.4995540000000  0.5729510000000 1.0
C      1  0.5756230000000  0.3998650000000  0.4857920000000 1.0
C      1  0.5108900000000  0.5356390000000  0.5325370000000 1.0
C      1  0.5496780000000  0.4261290000000  0.5733590000000 1.0
C      1  0.5327910000000  0.4260530000000  0.4748560000000 1.0
C      1  0.4751670000000  0.4851370000000  0.4347250000000 1.0
C      1  0.3932600000000  0.5057460000000  0.5339260000000 1.0
C      1  0.5326470000000  0.5485860000000  0.4095570000000 1.0
C      1  0.5732040000000  0.5001960000000  0.5122090000000 1.0
C      1  0.5713570000000  0.4157500000000  0.5574610000000 1.0
C      1  0.4968180000000  0.4795060000000  0.3849250000000 1.0
C      1  0.5071400000000  0.4233470000000  0.5445680000000 1.0
C      1  0.5050090000000  0.5433970000000  0.4547000000000 1.0
C      1  0.5003650000000  0.5906860000000  0.5292430000000 1.0
C      1  0.5159280000000  0.4582260000000  0.5078460000000 1.0
C      1  0.6091300000000  0.4046000000000  0.5292640000000 1.0
C      1  0.3973220000000  0.4978860000000  0.4057700000000 1.0
C      1  0.5474170000000  0.5898030000000  0.4422650000000 1.0
C      1  0.5234690000000  0.4857260000000  0.5032180000000 1.0
C      1  0.4150480000000  0.4725610000000  0.5615630000000 1.0
C      1  0.5035720000000  0.4700840000000  0.5516990000000 1.0
C      1  0.4220260000000  0.5448690000000  0.5519140000000 1.0
C      1  0.5560690000000  0.5806060000000  0.4681190000000 1.0
C      1  0.5196800000000  0.5971410000000  0.5072180000000 1.0
C      1  0.4752000000000  0.3963530000000  0.4767150000000 1.0
C      1  0.5551290000000  0.5318570000000  0.5520450000000 1.0
C      1  0.5105270000000  0.5779540000000  0.5533750000000 1.0
C      1  0.4726870000000  0.5130960000000  0.4363180000000 1.0
C      1  0.4213640000000  0.4918290000000  0.3926600000000 1.0
C      1  0.4795550000000  0.4860050000000  0.5498930000000 1.0
C      1  0.4969570000000  0.5276030000000  0.4328540000000 1.0
C      1  0.4263990000000  0.5051520000000  0.5986980000000 1.0
C      1  0.5320920000000  0.5880590000000  0.5682660000000 1.0
C      1  0.5718950000000  0.5143730000000  0.4438320000000 1.0
C      1  0.5829750000000  0.5157130000000  0.4906220000000 1.0
C      1  0.5066880000000  0.4260750000000  0.4111370000000 1.0
C      1  0.5336910000000  0.5514170000000  0.4932190000000 1.0
C      1  0.4530750000000  0.5965120000000  0.5083570000000 1.0
C      1  0.4554610000000  0.4751430000000  0.5366090000000 1.0
C      1  0.5851580000000  0.4045980000000  0.5119440000000 1.0
C      1  0.5239070000000  0.4160990000000  0.5648970000000 1.0
C      1  0.5031240000000  0.4487070000000  0.5319580000000 1.0
C      1  0.5982430000000  0.4049660000000  0.5568440000000 1.0
C      1  0.4906420000000  0.5333140000000  0.5749510000000 1.0
C      1  0.5782530000000  0.4354830000000  0.4135020000000 1.0
C      1  0.4793600000000  0.4986060000000  0.4879090000000 1.0
C      1  0.4486340000000  0.5520640000000  0.4908070000000 1.0
C      1  0.5070260000000  0.4291230000000  0.4628770000000 1.0
END
