TITL C-627109-622-1083 32228.1744758872 125000 -895.904936938485 0 0 145 (C1) n - 1
REM
REM in /home/nfs/bkarasulu/CARBON/AIRSS/Generating-Clusters/LCBOP/Only-C1/SD-CG/FIRE-CG
REM
REM
REM
REM
REM
REM ./C.cell (11c1c37f851c82e70ff6c80c92926a4b)
REM AIRSS Version 0.9.1 bugfix July 2018 build 013d7b7c2542+ Fri, 06 Jul 2018 19:26:36 +0100
REM compiler GCC version 9.2.1 20190827 (Red Hat 9.2.1-1)
REM options -cpp -mtune=generic -march=x86-64 -g -O0 -fpre-include=/usr/include/finclude/math-vector-fortran.h
REM seed -1495146039 -1421843672 -443305628 1685130719 -2070306984 -538803718 -2034089233 48045543 215113785 2052107253 -1976602789 -1093122588 1353236827 -711712647 -1239315476 271968252 1536072734 -812722538 -1842923753 135803959 403139446 1013457972 350948850 -131855289 -446135898 -570325715 -1201901326 934911513 -1155428247 -524989890 -577708657 984917155 -1176839332
REM
CELL 1.54180   50.00000   50.00000   50.00000   90.00000   90.00000   90.00000
LATT -1
SFAC C  
C      1  0.5260510000000  0.6048310000000  0.5349400000000 1.0
C      1  0.4557070000000  0.4349080000000  0.4639830000000 1.0
C      1  0.6452590000000  0.5707720000000  0.3836930000000 1.0
C      1  0.5143950000000  0.4111410000000  0.4434670000000 1.0
C      1  0.4919990000000  0.5253770000000  0.4073460000000 1.0
C      1  0.5237820000000  0.5389160000000  0.4394980000000 1.0
C      1  0.4429590000000  0.5789430000000  0.4522950000000 1.0
C      1  0.5303180000000  0.5099620000000  0.4407630000000 1.0
C      1  0.5668050000000  0.4815460000000  0.5837200000000 1.0
C      1  0.5564500000000  0.5469160000000  0.5578990000000 1.0
C      1  0.5566610000000  0.4519920000000  0.4864520000000 1.0
C      1  0.4621380000000  0.3840090000000  0.5145130000000 1.0
C      1  0.4148090000000  0.4316650000000  0.5436230000000 1.0
C      1  0.4015820000000  0.5155070000000  0.4861970000000 1.0
C      1  0.4188390000000  0.5215950000000  0.5724850000000 1.0
C      1  0.5771110000000  0.5009550000000  0.5665360000000 1.0
C      1  0.5202840000000  0.5827870000000  0.4693100000000 1.0
C      1  0.4302050000000  0.4691310000000  0.5196220000000 1.0
C      1  0.5401460000000  0.4676500000000  0.3998440000000 1.0
C      1  0.4738870000000  0.5180090000000  0.4281580000000 1.0
C      1  0.4522720000000  0.4953630000000  0.5593640000000 1.0
C      1  0.6007620000000  0.5189900000000  0.5304160000000 1.0
C      1  0.5282240000000  0.4604970000000  0.5284780000000 1.0
C      1  0.5037460000000  0.5049690000000  0.3913410000000 1.0
C      1  0.4883380000000  0.6138050000000  0.5920470000000 1.0
C      1  0.4856860000000  0.5400700000000  0.4839630000000 1.0
C      1  0.4472450000000  0.5500380000000  0.4545750000000 1.0
C      1  0.5000990000000  0.4151510000000  0.5197080000000 1.0
C      1  0.6217870000000  0.5763470000000  0.4308520000000 1.0
C      1  0.5939850000000  0.4858060000000  0.4860110000000 1.0
C      1  0.4793730000000  0.4483960000000  0.5992730000000 1.0
C      1  0.4924830000000  0.4750920000000  0.5524020000000 1.0
C      1  0.5493540000000  0.5447100000000  0.4839370000000 1.0
C      1  0.4594450000000  0.5498890000000  0.4814460000000 1.0
C      1  0.4809890000000  0.4571650000000  0.5325710000000 1.0
C      1  0.4869780000000  0.4953990000000  0.4966250000000 1.0
C      1  0.4907870000000  0.4184910000000  0.5662610000000 1.0
C      1  0.4474740000000  0.5273240000000  0.4349830000000 1.0
C      1  0.5091220000000  0.4092270000000  0.5461690000000 1.0
C      1  0.4521320000000  0.5572630000000  0.5506750000000 1.0
C      1  0.5547250000000  0.4545150000000  0.5391750000000 1.0
C      1  0.5476270000000  0.4350860000000  0.5598190000000 1.0
C      1  0.5879290000000  0.4930870000000  0.5400190000000 1.0
C      1  0.4682560000000  0.5929070000000  0.4568200000000 1.0
C      1  0.5305930000000  0.5566240000000  0.4618100000000 1.0
C      1  0.4514650000000  0.5045300000000  0.5333270000000 1.0
C      1  0.4859200000000  0.3942630000000  0.5081170000000 1.0
C      1  0.4531670000000  0.4453490000000  0.5853560000000 1.0
C      1  0.4192420000000  0.5870330000000  0.4663320000000 1.0
C      1  0.6036850000000  0.4388670000000  0.4979380000000 1.0
C      1  0.5288760000000  0.4966530000000  0.6054770000000 1.0
C      1  0.4949130000000  0.4509330000000  0.4838630000000 1.0
C      1  0.4219450000000  0.4289840000000  0.4353020000000 1.0
C      1  0.4254690000000  0.4801170000000  0.4198880000000 1.0
C      1  0.5400910000000  0.4183140000000  0.4560190000000 1.0
C      1  0.4323850000000  0.4665530000000  0.5870690000000 1.0
C      1  0.5557950000000  0.4330150000000  0.4364500000000 1.0
C      1  0.5470860000000  0.4109980000000  0.5131180000000 1.0
C      1  0.5410870000000  0.4735320000000  0.5931680000000 1.0
C      1  0.4862170000000  0.5033790000000  0.4489190000000 1.0
C      1  0.4380320000000  0.4147880000000  0.5449200000000 1.0
C      1  0.4707630000000  0.4705380000000  0.4901930000000 1.0
C      1  0.5095250000000  0.5464390000000  0.4159510000000 1.0
C      1  0.5309860000000  0.4472240000000  0.5827090000000 1.0
C      1  0.5418480000000  0.5015570000000  0.5128170000000 1.0
C      1  0.5038650000000  0.4449520000000  0.5142760000000 1.0
C      1  0.5119330000000  0.5708690000000  0.4031100000000 1.0
C      1  0.4916880000000  0.5926800000000  0.4734820000000 1.0
C      1  0.5137440000000  0.5947670000000  0.3928810000000 1.0
C      1  0.5777270000000  0.5304900000000  0.5679200000000 1.0
C      1  0.4074580000000  0.4038450000000  0.4769030000000 1.0
C      1  0.4055440000000  0.5804610000000  0.4889110000000 1.0
C      1  0.5115970000000  0.5454990000000  0.5932210000000 1.0
C      1  0.5101020000000  0.4883840000000  0.4448580000000 1.0
C      1  0.4457250000000  0.4152600000000  0.4448670000000 1.0
C      1  0.4882440000000  0.5335010000000  0.5304830000000 1.0
C      1  0.5012750000000  0.5950140000000  0.5768660000000 1.0
C      1  0.5531360000000  0.4507160000000  0.4162240000000 1.0
C      1  0.4255670000000  0.5432730000000  0.5525560000000 1.0
C      1  0.5133990000000  0.4646490000000  0.4623570000000 1.0
C      1  0.4026610000000  0.5660390000000  0.5117370000000 1.0
C      1  0.4800260000000  0.5942560000000  0.5280460000000 1.0
C      1  0.4886190000000  0.5349810000000  0.5803110000000 1.0
C      1  0.5833040000000  0.4611540000000  0.4992290000000 1.0
C      1  0.4323300000000  0.4518880000000  0.4185150000000 1.0
C      1  0.6560160000000  0.5665150000000  0.3603300000000 1.0
C      1  0.4506590000000  0.5655240000000  0.5031380000000 1.0
C      1  0.4838780000000  0.4362640000000  0.4080100000000 1.0
C      1  0.5380160000000  0.5358530000000  0.5392270000000 1.0
C      1  0.4484050000000  0.4622160000000  0.4706510000000 1.0
C      1  0.5014380000000  0.5976500000000  0.5485570000000 1.0
C      1  0.5303040000000  0.5449470000000  0.5112910000000 1.0
C      1  0.5565760000000  0.5065680000000  0.4493790000000 1.0
C      1  0.5484090000000  0.4235050000000  0.4852810000000 1.0
C      1  0.4382570000000  0.3966830000000  0.5217480000000 1.0
C      1  0.4665380000000  0.3953270000000  0.4442500000000 1.0
C      1  0.5220820000000  0.4852250000000  0.3904340000000 1.0
C      1  0.4042910000000  0.4265760000000  0.4591180000000 1.0
C      1  0.5876040000000  0.5131290000000  0.4858300000000 1.0
C      1  0.4101850000000  0.5181520000000  0.5127510000000 1.0
C      1  0.4093320000000  0.4507880000000  0.5236440000000 1.0
C      1  0.5646510000000  0.5208520000000  0.4717910000000 1.0
C      1  0.5266850000000  0.5240670000000  0.6052710000000 1.0
C      1  0.5597770000000  0.5747950000000  0.5556790000000 1.0
C      1  0.4274100000000  0.4974720000000  0.5208210000000 1.0
C      1  0.5381150000000  0.4123370000000  0.5431790000000 1.0
C      1  0.4859800000000  0.5138770000000  0.4746160000000 1.0
C      1  0.5934200000000  0.5710190000000  0.4750740000000 1.0
C      1  0.4011530000000  0.4504620000000  0.4743450000000 1.0
C      1  0.5359380000000  0.4702580000000  0.4794060000000 1.0
C      1  0.5184220000000  0.4835590000000  0.5450800000000 1.0
C      1  0.4910160000000  0.4046340000000  0.4579180000000 1.0
C      1  0.4593680000000  0.4230260000000  0.5644310000000 1.0
C      1  0.5330030000000  0.5074770000000  0.5391560000000 1.0
C      1  0.6339620000000  0.5744290000000  0.4073920000000 1.0
C      1  0.4106460000000  0.4968940000000  0.4691900000000 1.0
C      1  0.4577610000000  0.4616500000000  0.5165240000000 1.0
C      1  0.5374090000000  0.5966650000000  0.4893290000000 1.0
C      1  0.5934470000000  0.5310860000000  0.5062490000000 1.0
C      1  0.3921110000000  0.4484930000000  0.5013280000000 1.0
C      1  0.5589940000000  0.5852410000000  0.5068040000000 1.0
C      1  0.5018020000000  0.5449400000000  0.5078480000000 1.0
C      1  0.4839110000000  0.5084990000000  0.5885440000000 1.0
C      1  0.5030960000000  0.4373980000000  0.5862250000000 1.0
C      1  0.4182800000000  0.3970890000000  0.5009700000000 1.0
C      1  0.6083770000000  0.5755450000000  0.4536940000000 1.0
C      1  0.6027650000000  0.5361580000000  0.5537080000000 1.0
C      1  0.4586230000000  0.4461360000000  0.4071940000000 1.0
C      1  0.5190890000000  0.6107340000000  0.5072850000000 1.0
C      1  0.5516010000000  0.5912170000000  0.5345940000000 1.0
C      1  0.4209250000000  0.4708520000000  0.4694960000000 1.0
C      1  0.4101420000000  0.5430990000000  0.5271900000000 1.0
C      1  0.4294640000000  0.4941370000000  0.5762960000000 1.0
C      1  0.4768510000000  0.4893840000000  0.5700540000000 1.0
C      1  0.5742560000000  0.5612890000000  0.4951250000000 1.0
C      1  0.4774100000000  0.5434750000000  0.5554600000000 1.0
C      1  0.5055460000000  0.4235840000000  0.4185950000000 1.0
C      1  0.4761130000000  0.5094260000000  0.5210930000000 1.0
C      1  0.5774640000000  0.4685450000000  0.5284990000000 1.0
C      1  0.5245990000000  0.4901570000000  0.4956370000000 1.0
C      1  0.4288170000000  0.5067650000000  0.4260340000000 1.0
C      1  0.5141910000000  0.5732200000000  0.5897850000000 1.0
C      1  0.4576090000000  0.5760560000000  0.5285790000000 1.0
C      1  0.4814640000000  0.4273740000000  0.4725870000000 1.0
C      1  0.4911090000000  0.6031380000000  0.5015180000000 1.0
END
