TITL C-627112-676-1082 192.97209384341 125000 -814.552334325885 0 0 134 (C1) n - 1
REM
REM in /home/nfs/bkarasulu/CARBON/AIRSS/Generating-Clusters/LCBOP/Only-C1/SD-CG/FIRE-CG
REM
REM
REM
REM
REM
REM ./C.cell (11c1c37f851c82e70ff6c80c92926a4b)
REM AIRSS Version 0.9.1 bugfix July 2018 build 013d7b7c2542+ Fri, 06 Jul 2018 19:26:36 +0100
REM compiler GCC version 9.2.1 20190827 (Red Hat 9.2.1-1)
REM options -cpp -mtune=generic -march=x86-64 -g -O0 -fpre-include=/usr/include/finclude/math-vector-fortran.h
REM seed -159114897 1650274014 -1222903155 -1206763315 859379488 -1647004863 -282478074 -982943677 135431254 -640809641 1095154442 -1958950889 -613102079 657533079 1470452277 1914399837 1603039320 -897985896 -1574094344 -506712290 1211653521 1547978096 -697475430 1871970402 -678843059 922124821 757506426 -470197523 -1768153831 1738348531 987519644 415172422 949388173
REM
CELL 1.54180   50.00000   50.00000   50.00000   90.00000   90.00000   90.00000
LATT -1
SFAC C  
C      1  0.4672270000000  0.4721140000000  0.3928230000000 1.0
C      1  0.4425770000000  0.4465520000000  0.4366300000000 1.0
C      1  0.5690850000000  0.4916940000000  0.4790370000000 1.0
C      1  0.5038210000000  0.4974380000000  0.5211990000000 1.0
C      1  0.5829260000000  0.4650260000000  0.5422730000000 1.0
C      1  0.5262530000000  0.5315130000000  0.4840930000000 1.0
C      1  0.5872340000000  0.5368130000000  0.4386780000000 1.0
C      1  0.5377760000000  0.4104240000000  0.5395210000000 1.0
C      1  0.4849180000000  0.4531300000000  0.4723840000000 1.0
C      1  0.5175800000000  0.5762800000000  0.4132540000000 1.0
C      1  0.3968790000000  0.5312930000000  0.5251180000000 1.0
C      1  0.4875030000000  0.4055810000000  0.4691000000000 1.0
C      1  0.5704310000000  0.5710990000000  0.5057130000000 1.0
C      1  0.5428360000000  0.5201890000000  0.4418480000000 1.0
C      1  0.4489030000000  0.5034010000000  0.5738870000000 1.0
C      1  0.4253760000000  0.4861660000000  0.4639150000000 1.0
C      1  0.5114510000000  0.4501110000000  0.4797130000000 1.0
C      1  0.4822580000000  0.4559200000000  0.4098980000000 1.0
C      1  0.5739220000000  0.4855120000000  0.4443180000000 1.0
C      1  0.5613720000000  0.5234550000000  0.5681880000000 1.0
C      1  0.4901490000000  0.5177960000000  0.4311490000000 1.0
C      1  0.4605570000000  0.5280370000000  0.5290280000000 1.0
C      1  0.5014490000000  0.4138100000000  0.5782510000000 1.0
C      1  0.5333900000000  0.5601410000000  0.5917250000000 1.0
C      1  0.5136090000000  0.5299870000000  0.3913380000000 1.0
C      1  0.4254690000000  0.4935340000000  0.5102960000000 1.0
C      1  0.5081820000000  0.3963910000000  0.4881360000000 1.0
C      1  0.6252370000000  0.5751650000000  0.4334710000000 1.0
C      1  0.4636950000000  0.5573090000000  0.5868330000000 1.0
C      1  0.5153170000000  0.5644860000000  0.5459910000000 1.0
C      1  0.4804560000000  0.5343400000000  0.5891300000000 1.0
C      1  0.5154480000000  0.4360160000000  0.4358750000000 1.0
C      1  0.6071360000000  0.5559160000000  0.4353920000000 1.0
C      1  0.4281130000000  0.5272000000000  0.5704770000000 1.0
C      1  0.4896150000000  0.4204560000000  0.4423040000000 1.0
C      1  0.5425850000000  0.4659650000000  0.5109300000000 1.0
C      1  0.4863400000000  0.5716740000000  0.5451600000000 1.0
C      1  0.4295480000000  0.4652580000000  0.5995700000000 1.0
C      1  0.5595160000000  0.5437340000000  0.4431000000000 1.0
C      1  0.4709250000000  0.5074640000000  0.5960980000000 1.0
C      1  0.5144880000000  0.6031700000000  0.4937080000000 1.0
C      1  0.4940670000000  0.4899240000000  0.6001900000000 1.0
C      1  0.4677360000000  0.5065210000000  0.5490500000000 1.0
C      1  0.5191840000000  0.5828780000000  0.4404170000000 1.0
C      1  0.4225470000000  0.4429510000000  0.5115590000000 1.0
C      1  0.4952440000000  0.4085550000000  0.5309110000000 1.0
C      1  0.5574870000000  0.4677820000000  0.4867150000000 1.0
C      1  0.4604010000000  0.4439600000000  0.4777310000000 1.0
C      1  0.5236300000000  0.5160150000000  0.4617870000000 1.0
C      1  0.4409910000000  0.4199750000000  0.5122160000000 1.0
C      1  0.4644060000000  0.4363420000000  0.5543130000000 1.0
C      1  0.4326730000000  0.5105880000000  0.3971600000000 1.0
C      1  0.4756540000000  0.4510290000000  0.5317720000000 1.0
C      1  0.4857370000000  0.4897560000000  0.5007430000000 1.0
C      1  0.5480560000000  0.4942620000000  0.4290850000000 1.0
C      1  0.3957430000000  0.4578850000000  0.4384290000000 1.0
C      1  0.4745580000000  0.5779550000000  0.5706040000000 1.0
C      1  0.5477050000000  0.5021410000000  0.5834940000000 1.0
C      1  0.4082220000000  0.5287270000000  0.5497660000000 1.0
C      1  0.4447040000000  0.5166790000000  0.5080780000000 1.0
C      1  0.5107940000000  0.5546790000000  0.4848470000000 1.0
C      1  0.4082060000000  0.5001140000000  0.4865340000000 1.0
C      1  0.4611010000000  0.5861200000000  0.4462970000000 1.0
C      1  0.4203900000000  0.4699270000000  0.5520200000000 1.0
C      1  0.4301920000000  0.5753890000000  0.4888960000000 1.0
C      1  0.4664350000000  0.5579350000000  0.5268530000000 1.0
C      1  0.4685760000000  0.4375070000000  0.4282780000000 1.0
C      1  0.4939100000000  0.4634870000000  0.5858680000000 1.0
C      1  0.5392370000000  0.5664290000000  0.5635070000000 1.0
C      1  0.5613640000000  0.4206340000000  0.4919660000000 1.0
C      1  0.4466460000000  0.5230500000000  0.4792120000000 1.0
C      1  0.4385860000000  0.5904730000000  0.4645140000000 1.0
C      1  0.5245140000000  0.5088140000000  0.6000810000000 1.0
C      1  0.4362790000000  0.5506730000000  0.5844350000000 1.0
C      1  0.5558730000000  0.4753420000000  0.5785720000000 1.0
C      1  0.4526410000000  0.5765220000000  0.5081040000000 1.0
C      1  0.5257260000000  0.5778090000000  0.4923730000000 1.0
C      1  0.4988410000000  0.5048020000000  0.4552830000000 1.0
C      1  0.4983570000000  0.4366250000000  0.5228540000000 1.0
C      1  0.5126840000000  0.4052060000000  0.5529420000000 1.0
C      1  0.3993800000000  0.5291160000000  0.4959600000000 1.0
C      1  0.5061890000000  0.5088720000000  0.4087000000000 1.0
C      1  0.4261820000000  0.5301090000000  0.4141510000000 1.0
C      1  0.4484350000000  0.4906560000000  0.3891300000000 1.0
C      1  0.4214240000000  0.4635890000000  0.4464490000000 1.0
C      1  0.5099390000000  0.4701250000000  0.5620660000000 1.0
C      1  0.5752800000000  0.5516660000000  0.5267950000000 1.0
C      1  0.5604720000000  0.4781080000000  0.5294430000000 1.0
C      1  0.5509020000000  0.4334110000000  0.5492050000000 1.0
C      1  0.5616610000000  0.5490870000000  0.5532790000000 1.0
C      1  0.5828000000000  0.4713950000000  0.5698200000000 1.0
C      1  0.4885700000000  0.5954370000000  0.4542700000000 1.0
C      1  0.4583930000000  0.4180560000000  0.4879520000000 1.0
C      1  0.4210410000000  0.4688850000000  0.5239310000000 1.0
C      1  0.5771850000000  0.4373920000000  0.5362010000000 1.0
C      1  0.4903130000000  0.5522760000000  0.4660550000000 1.0
C      1  0.6429300000000  0.5942310000000  0.4317280000000 1.0
C      1  0.4349490000000  0.5455250000000  0.4357560000000 1.0
C      1  0.5582980000000  0.4426680000000  0.4691720000000 1.0
C      1  0.5853700000000  0.5271900000000  0.5148250000000 1.0
C      1  0.5406000000000  0.5210660000000  0.5048940000000 1.0
C      1  0.6086080000000  0.4158310000000  0.5053450000000 1.0
C      1  0.5170020000000  0.5564950000000  0.3950780000000 1.0
C      1  0.5297630000000  0.4415120000000  0.4597150000000 1.0
C      1  0.4826060000000  0.4366140000000  0.5777500000000 1.0
C      1  0.4681360000000  0.4712430000000  0.5142070000000 1.0
C      1  0.5262330000000  0.5375110000000  0.6061400000000 1.0
C      1  0.5078000000000  0.4013150000000  0.6017670000000 1.0
C      1  0.5756950000000  0.4545950000000  0.4464270000000 1.0
C      1  0.4527050000000  0.4978670000000  0.4664820000000 1.0
C      1  0.5673660000000  0.5127970000000  0.4982110000000 1.0
C      1  0.4933420000000  0.4898430000000  0.5469610000000 1.0
C      1  0.5928110000000  0.5084330000000  0.4381380000000 1.0
C      1  0.4330230000000  0.4781890000000  0.5757290000000 1.0
C      1  0.5182130000000  0.4508400000000  0.5073310000000 1.0
C      1  0.5385180000000  0.4068510000000  0.5035620000000 1.0
C      1  0.5001650000000  0.5301640000000  0.5689950000000 1.0
C      1  0.4483080000000  0.4160920000000  0.5404580000000 1.0
C      1  0.4802880000000  0.4952210000000  0.4734990000000 1.0
C      1  0.4892660000000  0.6053490000000  0.4817730000000 1.0
C      1  0.5226920000000  0.5174200000000  0.5257560000000 1.0
C      1  0.4132090000000  0.5521790000000  0.4827720000000 1.0
C      1  0.5105060000000  0.4588170000000  0.4171450000000 1.0
C      1  0.5528740000000  0.5753510000000  0.4834580000000 1.0
C      1  0.5237320000000  0.4850440000000  0.4150610000000 1.0
C      1  0.4593550000000  0.5602890000000  0.4329840000000 1.0
C      1  0.5486920000000  0.5689970000000  0.4544730000000 1.0
C      1  0.5371140000000  0.4578250000000  0.5635880000000 1.0
C      1  0.4296530000000  0.5392220000000  0.4628260000000 1.0
C      1  0.5137100000000  0.5355540000000  0.5448470000000 1.0
C      1  0.5832930000000  0.4244560000000  0.5111780000000 1.0
C      1  0.4684450000000  0.5995560000000  0.5002590000000 1.0
C      1  0.4943700000000  0.3885530000000  0.5115740000000 1.0
C      1  0.4815450000000  0.5440890000000  0.4397200000000 1.0
END
