TITL C-627112-676-33 0.0311724154029727 125000 -267.804800640764 0 0 45 (C1) n - 1
REM
REM in /home/nfs/bkarasulu/CARBON/AIRSS/Generating-Clusters/LCBOP/Only-C1/SD-CG/FIRE-CG
REM
REM
REM
REM
REM
REM ./C.cell (11c1c37f851c82e70ff6c80c92926a4b)
REM AIRSS Version 0.9.1 bugfix July 2018 build 013d7b7c2542+ Fri, 06 Jul 2018 19:26:36 +0100
REM compiler GCC version 9.2.1 20190827 (Red Hat 9.2.1-1)
REM options -cpp -mtune=generic -march=x86-64 -g -O0 -fpre-include=/usr/include/finclude/math-vector-fortran.h
REM seed -948858532 -506834647 1114087843 -409328418 -499815331 443300291 -1795977783 -184181022 -922721694 -1220545826 1509851318 -824448025 -934465090 -1412015755 1018995120 1051372165 1749806679 -1501519523 -60246878 -1944074911 -813688637 -1141104947 2092953551 2089184140 2084614374 -375882730 468673068 1813048423 -1586514495 1348970604 -270638223 -136550012 954945710
REM
CELL 1.54180   50.00000   50.00000   50.00000   90.00000   90.00000   90.00000
LATT -1
SFAC C  
C      1  0.4628860000000  0.5120640000000  0.4536120000000 1.0
C      1  0.5049630000000  0.5266390000000  0.4354720000000 1.0
C      1  0.5087370000000  0.4687740000000  0.5195650000000 1.0
C      1  0.4423710000000  0.4594790000000  0.5302310000000 1.0
C      1  0.4268990000000  0.4158980000000  0.5023190000000 1.0
C      1  0.4122070000000  0.5056360000000  0.5457420000000 1.0
C      1  0.5662190000000  0.4882760000000  0.4762080000000 1.0
C      1  0.5054540000000  0.5006470000000  0.4240890000000 1.0
C      1  0.5448670000000  0.5701730000000  0.4870620000000 1.0
C      1  0.5544370000000  0.4630310000000  0.4731290000000 1.0
C      1  0.5559700000000  0.4877430000000  0.5245130000000 1.0
C      1  0.4290040000000  0.5151730000000  0.5272390000000 1.0
C      1  0.4597680000000  0.4781140000000  0.5174540000000 1.0
C      1  0.5058780000000  0.4753700000000  0.4332210000000 1.0
C      1  0.5175880000000  0.5763130000000  0.4899060000000 1.0
C      1  0.5587020000000  0.5464410000000  0.4810040000000 1.0
C      1  0.5022130000000  0.5614550000000  0.5101190000000 1.0
C      1  0.4835150000000  0.4693140000000  0.4755500000000 1.0
C      1  0.5700720000000  0.5293260000000  0.5008470000000 1.0
C      1  0.3899510000000  0.4760920000000  0.5770990000000 1.0
C      1  0.4643560000000  0.4868550000000  0.4633510000000 1.0
C      1  0.5276650000000  0.4896990000000  0.5257630000000 1.0
C      1  0.5709680000000  0.4742420000000  0.5436030000000 1.0
C      1  0.4807910000000  0.5339430000000  0.4496360000000 1.0
C      1  0.5166870000000  0.5152080000000  0.5198200000000 1.0
C      1  0.4969770000000  0.5117250000000  0.4998190000000 1.0
C      1  0.4771030000000  0.5510160000000  0.4965990000000 1.0
C      1  0.5002260000000  0.5774590000000  0.4667680000000 1.0
C      1  0.5163770000000  0.5427670000000  0.5270880000000 1.0
C      1  0.5301320000000  0.5379430000000  0.4411400000000 1.0
C      1  0.5652200000000  0.5069350000000  0.4547330000000 1.0
C      1  0.4108820000000  0.4817900000000  0.5605570000000 1.0
C      1  0.4326850000000  0.4637090000000  0.5567520000000 1.0
C      1  0.4340340000000  0.4367460000000  0.5162290000000 1.0
C      1  0.4839970000000  0.4683990000000  0.5045860000000 1.0
C      1  0.5679080000000  0.5008270000000  0.5021050000000 1.0
C      1  0.5301770000000  0.4528950000000  0.4679350000000 1.0
C      1  0.4802210000000  0.5565110000000  0.4673870000000 1.0
C      1  0.4444870000000  0.4511680000000  0.5780170000000 1.0
C      1  0.5993060000000  0.4479200000000  0.5791960000000 1.0
C      1  0.5532970000000  0.5327660000000  0.4561740000000 1.0
C      1  0.4526200000000  0.5063830000000  0.5150910000000 1.0
C      1  0.4713980000000  0.5236990000000  0.5031950000000 1.0
C      1  0.5055380000000  0.4624460000000  0.4585120000000 1.0
C      1  0.5852470000000  0.4609930000000  0.5615600000000 1.0
END
