TITL C-627113-6568-1821 -8.16499186667402e-07 125000 -259.895521362754 0 0 43 (C1) n - 1
REM
REM in /home/nfs/bkarasulu/CARBON/AIRSS/Generating-Clusters/LCBOP/Only-C1/SD-CG/FIRE-CG
REM
REM
REM
REM
REM
REM ./C.cell (11c1c37f851c82e70ff6c80c92926a4b)
REM AIRSS Version 0.9.1 bugfix July 2018 build 013d7b7c2542+ Fri, 06 Jul 2018 19:26:36 +0100
REM compiler GCC version 9.2.1 20190827 (Red Hat 9.2.1-1)
REM options -cpp -mtune=generic -march=x86-64 -g -O0 -fpre-include=/usr/include/finclude/math-vector-fortran.h
REM seed 65076568 -1312297179 -1588273555 442931203 178162451 1873173671 476895828 855048069 1531890125 1271836669 -151390650 1096143179 -1130388531 808638749 1859189720 -1553298497 -451961606 -1841370548 -1383419372 1681193731 -1785235232 -192750169 -240900504 2139843935 2133561164 -124372844 -118609796 -1994293744 1050513180 -752918136 976108006 -1497952815 1252313352
REM
CELL 1.54180   50.00000   50.00000   50.00000   90.00000   90.00000   90.00000
LATT -1
SFAC C  
C      1  0.5630430000000  0.4506090000000  0.5043290000000 1.0
C      1  0.5119460000000  0.5802000000000  0.4889980000000 1.0
C      1  0.4368820000000  0.5006680000000  0.4764430000000 1.0
C      1  0.5034250000000  0.4944880000000  0.5034980000000 1.0
C      1  0.4676610000000  0.5203350000000  0.5258130000000 1.0
C      1  0.4716620000000  0.4513060000000  0.4377840000000 1.0
C      1  0.4971180000000  0.4941030000000  0.4382920000000 1.0
C      1  0.5317600000000  0.6148920000000  0.5163300000000 1.0
C      1  0.5413700000000  0.5200460000000  0.4817380000000 1.0
C      1  0.4535480000000  0.4870710000000  0.4945390000000 1.0
C      1  0.4726220000000  0.4388090000000  0.5523280000000 1.0
C      1  0.5007510000000  0.5379240000000  0.5573870000000 1.0
C      1  0.5023820000000  0.5657540000000  0.4687030000000 1.0
C      1  0.4921220000000  0.4425330000000  0.5318460000000 1.0
C      1  0.5181080000000  0.4551070000000  0.4600690000000 1.0
C      1  0.5171380000000  0.4417400000000  0.4855900000000 1.0
C      1  0.4683340000000  0.4388700000000  0.4871390000000 1.0
C      1  0.4737970000000  0.4788150000000  0.4315910000000 1.0
C      1  0.5397410000000  0.5010450000000  0.4607620000000 1.0
C      1  0.4967230000000  0.5462910000000  0.4513280000000 1.0
C      1  0.4681410000000  0.4351660000000  0.4590740000000 1.0
C      1  0.5062880000000  0.4865060000000  0.5587500000000 1.0
C      1  0.5166350000000  0.5137070000000  0.5522880000000 1.0
C      1  0.5365260000000  0.4550780000000  0.5020480000000 1.0
C      1  0.4703770000000  0.4566160000000  0.5731030000000 1.0
C      1  0.4952930000000  0.5223420000000  0.4395880000000 1.0
C      1  0.4752760000000  0.5003170000000  0.5072380000000 1.0
C      1  0.5255390000000  0.5885990000000  0.5122840000000 1.0
C      1  0.4342690000000  0.5027850000000  0.4498270000000 1.0
C      1  0.5201330000000  0.4822280000000  0.4508140000000 1.0
C      1  0.5575290000000  0.5407060000000  0.4948560000000 1.0
C      1  0.5095850000000  0.4651410000000  0.5393350000000 1.0
C      1  0.4746170000000  0.5353510000000  0.5469970000000 1.0
C      1  0.5327140000000  0.5687320000000  0.5313890000000 1.0
C      1  0.4856720000000  0.4790580000000  0.5771230000000 1.0
C      1  0.5199660000000  0.4737210000000  0.5151130000000 1.0
C      1  0.4494580000000  0.4931730000000  0.4297910000000 1.0
C      1  0.4512750000000  0.4591610000000  0.4966820000000 1.0
C      1  0.4927900000000  0.4357370000000  0.5019970000000 1.0
C      1  0.5327660000000  0.5214830000000  0.5289480000000 1.0
C      1  0.5150890000000  0.5624080000000  0.5532290000000 1.0
C      1  0.5219280000000  0.5152390000000  0.5025190000000 1.0
C      1  0.5480010000000  0.5461420000000  0.5225020000000 1.0
END
