TITL C-627108-131-697 5.72558901199454e-06 125000 -139.333534618526 0 0 24 (C1) n - 1
REM
REM in /home/nfs/bkarasulu/CARBON/AIRSS/Generating-Clusters/LCBOP/Only-C1/SD-CG/FIRE-CG
REM
REM
REM
REM
REM
REM ./C.cell (11c1c37f851c82e70ff6c80c92926a4b)
REM AIRSS Version 0.9.1 bugfix July 2018 build 013d7b7c2542+ Fri, 06 Jul 2018 19:26:36 +0100
REM compiler GCC version 9.2.1 20190827 (Red Hat 9.2.1-1)
REM options -cpp -mtune=generic -march=x86-64 -g -O0 -fpre-include=/usr/include/finclude/math-vector-fortran.h
REM seed 703000419 -801604096 -1779332728 138409781 -1737715027 1854469378 124362640 1817268989 -1412836383 -49229145 1177270031 1285675582 -16548792 -551692412 -1778665615 592985083 -407994302 -1655555235 2077100916 1057559880 580124614 -613826566 1511018382 380734634 1720037060 1400922682 683016832 921191928 2123566718 1489774876 44061375 381377806 186312555
REM
CELL 1.54180   50.00000   50.00000   50.00000   90.00000   90.00000   90.00000
LATT -1
SFAC C  
C      1  0.5023960000000  0.5776800000000  0.4914460000000 1.0
C      1  0.4420030000000  0.4767240000000  0.4932830000000 1.0
C      1  0.4897930000000  0.4771880000000  0.5140270000000 1.0
C      1  0.5655400000000  0.5388960000000  0.5119660000000 1.0
C      1  0.4449780000000  0.4533570000000  0.4778720000000 1.0
C      1  0.5492130000000  0.5585710000000  0.5049640000000 1.0
C      1  0.4898320000000  0.4305650000000  0.4812460000000 1.0
C      1  0.5381630000000  0.4750110000000  0.5144090000000 1.0
C      1  0.3941050000000  0.4828200000000  0.4964100000000 1.0
C      1  0.4765060000000  0.5745530000000  0.4865940000000 1.0
C      1  0.4643310000000  0.4833350000000  0.5090820000000 1.0
C      1  0.6024400000000  0.5106510000000  0.5257750000000 1.0
C      1  0.5587070000000  0.4914640000000  0.5174420000000 1.0
C      1  0.5323930000000  0.4189960000000  0.5005490000000 1.0
C      1  0.6274240000000  0.5078370000000  0.5326370000000 1.0
C      1  0.4528230000000  0.5629000000000  0.4839650000000 1.0
C      1  0.5275150000000  0.5720580000000  0.4978450000000 1.0
C      1  0.5756820000000  0.5136580000000  0.5184270000000 1.0
C      1  0.5123020000000  0.4371790000000  0.4967760000000 1.0
C      1  0.4224630000000  0.5204290000000  0.4866110000000 1.0
C      1  0.5135170000000  0.4630870000000  0.5088460000000 1.0
C      1  0.4190260000000  0.4931900000000  0.4920620000000 1.0
C      1  0.4341100000000  0.5441000000000  0.4839510000000 1.0
C      1  0.4647370000000  0.4357500000000  0.4738140000000 1.0
END
