TITL C-627109-622-857 -1.9916308599031e-08 125000 -396.236553203494 0 0 65 (C1) n - 1
REM
REM in /home/nfs/bkarasulu/CARBON/AIRSS/Generating-Clusters/LCBOP/Only-C1/SD-CG/FIRE-CG
REM
REM
REM
REM
REM
REM ./C.cell (11c1c37f851c82e70ff6c80c92926a4b)
REM AIRSS Version 0.9.1 bugfix July 2018 build 013d7b7c2542+ Fri, 06 Jul 2018 19:26:36 +0100
REM compiler GCC version 9.2.1 20190827 (Red Hat 9.2.1-1)
REM options -cpp -mtune=generic -march=x86-64 -g -O0 -fpre-include=/usr/include/finclude/math-vector-fortran.h
REM seed 1072482036 -608597557 1669362143 288824000 -746785120 -1100114029 -652228297 -808799514 206822255 1945780643 -1736748993 -451623501 182177520 411738351 -27810810 -1008200151 2097102465 857258835 817457129 -1250142897 -2036885847 -1697761027 1896973367 -181053806 -1564787971 1151856234 -1760774558 -1968105484 146543077 -1685552975 -1582153049 -907952586 -1565888849
REM
CELL 1.54180   50.00000   50.00000   50.00000   90.00000   90.00000   90.00000
LATT -1
SFAC C  
C      1  0.5053780000000  0.5295270000000  0.5548320000000 1.0
C      1  0.4584730000000  0.4206010000000  0.4752880000000 1.0
C      1  0.4794430000000  0.3992730000000  0.5574730000000 1.0
C      1  0.4273070000000  0.6155450000000  0.4820140000000 1.0
C      1  0.4452370000000  0.5074890000000  0.5317760000000 1.0
C      1  0.5578120000000  0.4819320000000  0.5302950000000 1.0
C      1  0.5814190000000  0.5065120000000  0.4961190000000 1.0
C      1  0.5298740000000  0.3897340000000  0.5184550000000 1.0
C      1  0.5042110000000  0.5734720000000  0.4634390000000 1.0
C      1  0.5315200000000  0.4779950000000  0.5321140000000 1.0
C      1  0.4357760000000  0.4911380000000  0.5102170000000 1.0
C      1  0.5781870000000  0.5247580000000  0.5413370000000 1.0
C      1  0.5492380000000  0.4957810000000  0.4464850000000 1.0
C      1  0.4878740000000  0.5735400000000  0.5308600000000 1.0
C      1  0.4546400000000  0.3937660000000  0.5155920000000 1.0
C      1  0.6129950000000  0.5618370000000  0.4888800000000 1.0
C      1  0.4354770000000  0.5588750000000  0.5247850000000 1.0
C      1  0.5315550000000  0.5286000000000  0.5650450000000 1.0
C      1  0.4162240000000  0.5692650000000  0.4706770000000 1.0
C      1  0.4640740000000  0.4494480000000  0.5706630000000 1.0
C      1  0.5976290000000  0.5441270000000  0.5357150000000 1.0
C      1  0.6100580000000  0.5579880000000  0.5165980000000 1.0
C      1  0.4233300000000  0.4672870000000  0.5154300000000 1.0
C      1  0.5979460000000  0.5446080000000  0.4724610000000 1.0
C      1  0.4463520000000  0.5776840000000  0.5069130000000 1.0
C      1  0.4938370000000  0.4549820000000  0.4659760000000 1.0
C      1  0.5026270000000  0.3983590000000  0.5137960000000 1.0
C      1  0.4874750000000  0.3791290000000  0.5741220000000 1.0
C      1  0.4886230000000  0.5121660000000  0.4278660000000 1.0
C      1  0.5148840000000  0.5532560000000  0.4473340000000 1.0
C      1  0.4256850000000  0.6412690000000  0.4781650000000 1.0
C      1  0.5377970000000  0.4360960000000  0.4612850000000 1.0
C      1  0.4298750000000  0.5881760000000  0.4862860000000 1.0
C      1  0.4746900000000  0.5804600000000  0.5070800000000 1.0
C      1  0.4386310000000  0.5000020000000  0.4831780000000 1.0
C      1  0.4927620000000  0.5059440000000  0.5450170000000 1.0
C      1  0.5327820000000  0.4161240000000  0.4802440000000 1.0
C      1  0.4710430000000  0.4239800000000  0.5677640000000 1.0
C      1  0.4792480000000  0.3955580000000  0.5293100000000 1.0
C      1  0.5272630000000  0.4798690000000  0.4390190000000 1.0
C      1  0.5406870000000  0.5429380000000  0.4516050000000 1.0
C      1  0.5749510000000  0.5028870000000  0.5231170000000 1.0
C      1  0.5470210000000  0.3998560000000  0.4991840000000 1.0
C      1  0.4656750000000  0.4979370000000  0.5493120000000 1.0
C      1  0.5199400000000  0.4567070000000  0.4536010000000 1.0
C      1  0.4959080000000  0.4873210000000  0.5009250000000 1.0
C      1  0.4656380000000  0.5042030000000  0.4419730000000 1.0
C      1  0.4359810000000  0.5338310000000  0.5337490000000 1.0
C      1  0.4951120000000  0.5546970000000  0.5481360000000 1.0
C      1  0.5577920000000  0.5288320000000  0.5601890000000 1.0
C      1  0.4850750000000  0.4295060000000  0.4751800000000 1.0
C      1  0.4828020000000  0.4780490000000  0.4782010000000 1.0
C      1  0.5575920000000  0.5208820000000  0.4561760000000 1.0
C      1  0.6293700000000  0.5810340000000  0.4785580000000 1.0
C      1  0.5798590000000  0.5231730000000  0.4735570000000 1.0
C      1  0.4612460000000  0.4753430000000  0.5653130000000 1.0
C      1  0.4126780000000  0.5431460000000  0.4668110000000 1.0
C      1  0.5069240000000  0.4897950000000  0.5263200000000 1.0
C      1  0.4978390000000  0.5385700000000  0.4303890000000 1.0
C      1  0.4611730000000  0.4928610000000  0.4673760000000 1.0
C      1  0.4201730000000  0.5182930000000  0.4726190000000 1.0
C      1  0.5044980000000  0.4140090000000  0.4889160000000 1.0
C      1  0.4894430000000  0.5829280000000  0.4834360000000 1.0
C      1  0.4455200000000  0.4048680000000  0.4928600000000 1.0
C      1  0.5078520000000  0.4921840000000  0.4225930000000 1.0
END
