TITL C-627112-676-778 1.43469112277055 125000 -283.600826398247 0 0 48 (C1) n - 1
REM
REM in /home/nfs/bkarasulu/CARBON/AIRSS/Generating-Clusters/LCBOP/Only-C1/SD-CG/FIRE-CG
REM
REM
REM
REM
REM
REM ./C.cell (11c1c37f851c82e70ff6c80c92926a4b)
REM AIRSS Version 0.9.1 bugfix July 2018 build 013d7b7c2542+ Fri, 06 Jul 2018 19:26:36 +0100
REM compiler GCC version 9.2.1 20190827 (Red Hat 9.2.1-1)
REM options -cpp -mtune=generic -march=x86-64 -g -O0 -fpre-include=/usr/include/finclude/math-vector-fortran.h
REM seed 1910954089 -1496531163 1614427128 86949256 1068254905 -2028166744 -1581076200 1036643538 1573475536 -1723598723 2145073459 -659579096 -1618678037 1082833457 677072649 -1210886134 600846845 1138062520 149781711 -1360042401 -120399673 -647901451 -1221964923 857561897 39506813 -2002599082 402319038 -152942952 -1423741261 864910609 559867348 251011693 -448778808
REM
CELL 1.54180   50.00000   50.00000   50.00000   90.00000   90.00000   90.00000
LATT -1
SFAC C  
C      1  0.4565120000000  0.5238660000000  0.5235270000000 1.0
C      1  0.5333970000000  0.4756780000000  0.4357940000000 1.0
C      1  0.4292910000000  0.5175920000000  0.5292340000000 1.0
C      1  0.5038350000000  0.4887870000000  0.3945770000000 1.0
C      1  0.4380300000000  0.4525800000000  0.5392380000000 1.0
C      1  0.5134500000000  0.5119050000000  0.6100510000000 1.0
C      1  0.4423390000000  0.5254460000000  0.6202280000000 1.0
C      1  0.4931110000000  0.5194210000000  0.6254020000000 1.0
C      1  0.4684370000000  0.5155630000000  0.4990110000000 1.0
C      1  0.4673290000000  0.5246060000000  0.6292600000000 1.0
C      1  0.5155370000000  0.5052410000000  0.5089080000000 1.0
C      1  0.4902580000000  0.4972090000000  0.4986690000000 1.0
C      1  0.4910940000000  0.4653580000000  0.4607610000000 1.0
C      1  0.5247280000000  0.4849600000000  0.4108300000000 1.0
C      1  0.6021180000000  0.4203720000000  0.4575880000000 1.0
C      1  0.4573090000000  0.4443100000000  0.5228890000000 1.0
C      1  0.4250670000000  0.4735420000000  0.5491930000000 1.0
C      1  0.4514490000000  0.5359540000000  0.4514870000000 1.0
C      1  0.5628400000000  0.5074830000000  0.4575600000000 1.0
C      1  0.4438000000000  0.5446980000000  0.4281510000000 1.0
C      1  0.3902080000000  0.5369560000000  0.4974390000000 1.0
C      1  0.5592850000000  0.4824370000000  0.4458290000000 1.0
C      1  0.5287070000000  0.4334780000000  0.4588890000000 1.0
C      1  0.5790110000000  0.4346180000000  0.4555830000000 1.0
C      1  0.5227300000000  0.4989160000000  0.5351690000000 1.0
C      1  0.4178080000000  0.5129000000000  0.5766210000000 1.0
C      1  0.5169920000000  0.4580420000000  0.4515700000000 1.0
C      1  0.4245850000000  0.5212710000000  0.6008960000000 1.0
C      1  0.5540050000000  0.5268170000000  0.4757170000000 1.0
C      1  0.4699300000000  0.4676300000000  0.4424180000000 1.0
C      1  0.4773780000000  0.4847030000000  0.3968310000000 1.0
C      1  0.5658870000000  0.5525430000000  0.4765840000000 1.0
C      1  0.5562960000000  0.5727000000000  0.4607680000000 1.0
C      1  0.5783190000000  0.4618980000000  0.4484240000000 1.0
C      1  0.5535630000000  0.4234580000000  0.4604700000000 1.0
C      1  0.5874580000000  0.5569750000000  0.4938040000000 1.0
C      1  0.5331260000000  0.5200430000000  0.4930320000000 1.0
C      1  0.6277500000000  0.5637410000000  0.5268750000000 1.0
C      1  0.4632510000000  0.4753180000000  0.4176720000000 1.0
C      1  0.6077690000000  0.5604150000000  0.5104630000000 1.0
C      1  0.4709230000000  0.5388850000000  0.5413690000000 1.0
C      1  0.4754050000000  0.4513350000000  0.5047390000000 1.0
C      1  0.4088050000000  0.5276470000000  0.5131430000000 1.0
C      1  0.4229340000000  0.5013160000000  0.5517290000000 1.0
C      1  0.4864890000000  0.4709750000000  0.4881850000000 1.0
C      1  0.4593830000000  0.5263760000000  0.4748760000000 1.0
C      1  0.5248740000000  0.5045250000000  0.5872500000000 1.0
C      1  0.5271990000000  0.4995120000000  0.5612970000000 1.0
END
