TITL C-627112-676-1654 7.95173957905558e-06 125000 -601.415424469399 0 0 99 (C1) n - 1
REM
REM in /home/nfs/bkarasulu/CARBON/AIRSS/Generating-Clusters/LCBOP/Only-C1/SD-CG/FIRE-CG
REM
REM
REM
REM
REM
REM ./C.cell (11c1c37f851c82e70ff6c80c92926a4b)
REM AIRSS Version 0.9.1 bugfix July 2018 build 013d7b7c2542+ Fri, 06 Jul 2018 19:26:36 +0100
REM compiler GCC version 9.2.1 20190827 (Red Hat 9.2.1-1)
REM options -cpp -mtune=generic -march=x86-64 -g -O0 -fpre-include=/usr/include/finclude/math-vector-fortran.h
REM seed 473093802 1202254210 1121102532 -1918160089 933022724 -461846406 -632312879 836341124 216356620 -627885169 -1291492067 -1212293084 1699006291 -1849445997 -750703070 -2145166131 1039744896 1414159284 -260277539 1227539240 -1138342205 1521448254 709809234 1357391049 2086658782 -683599607 -1412779718 925634733 1268206846 -1656682217 570680157 -745086518 836796078
REM
CELL 1.54180   50.00000   50.00000   50.00000   90.00000   90.00000   90.00000
LATT -1
SFAC C  
C      1  0.5619230000000  0.5534470000000  0.5067350000000 1.0
C      1  0.4369590000000  0.4461160000000  0.5445220000000 1.0
C      1  0.4531420000000  0.4471760000000  0.5675850000000 1.0
C      1  0.5117700000000  0.4871840000000  0.5745650000000 1.0
C      1  0.5335120000000  0.4173210000000  0.5420190000000 1.0
C      1  0.4279140000000  0.4973420000000  0.5232270000000 1.0
C      1  0.5528430000000  0.5514410000000  0.5832230000000 1.0
C      1  0.4008030000000  0.5038000000000  0.4702550000000 1.0
C      1  0.5925850000000  0.4998440000000  0.5019120000000 1.0
C      1  0.4527390000000  0.4697600000000  0.5844690000000 1.0
C      1  0.5723360000000  0.5312590000000  0.5868770000000 1.0
C      1  0.4253960000000  0.5459150000000  0.4765210000000 1.0
C      1  0.5587100000000  0.5488140000000  0.4097100000000 1.0
C      1  0.5488380000000  0.4021570000000  0.5230890000000 1.0
C      1  0.5846310000000  0.5465900000000  0.4914480000000 1.0
C      1  0.5234240000000  0.4222150000000  0.5874970000000 1.0
C      1  0.4964650000000  0.4393530000000  0.4817010000000 1.0
C      1  0.5278790000000  0.5743320000000  0.4723830000000 1.0
C      1  0.4016570000000  0.4291580000000  0.5158060000000 1.0
C      1  0.4456080000000  0.5483520000000  0.4268540000000 1.0
C      1  0.4606590000000  0.5691930000000  0.5022160000000 1.0
C      1  0.4134860000000  0.4376650000000  0.4464420000000 1.0
C      1  0.3695630000000  0.3910030000000  0.4991910000000 1.0
C      1  0.5304620000000  0.4668870000000  0.5330120000000 1.0
C      1  0.4169500000000  0.5248950000000  0.4593860000000 1.0
C      1  0.3730070000000  0.5075130000000  0.4704130000000 1.0
C      1  0.5155210000000  0.5465120000000  0.5088400000000 1.0
C      1  0.5437210000000  0.4219540000000  0.5680890000000 1.0
C      1  0.4308630000000  0.5249990000000  0.4342010000000 1.0
C      1  0.5388390000000  0.5839570000000  0.6165160000000 1.0
C      1  0.5349770000000  0.5342380000000  0.4158700000000 1.0
C      1  0.5647070000000  0.5725190000000  0.4231830000000 1.0
C      1  0.5406730000000  0.4819770000000  0.4880930000000 1.0
C      1  0.4189660000000  0.4499190000000  0.5228600000000 1.0
C      1  0.3467350000000  0.5108040000000  0.4712530000000 1.0
C      1  0.5159310000000  0.4325170000000  0.5014180000000 1.0
C      1  0.5509160000000  0.4918030000000  0.4323540000000 1.0
C      1  0.5171100000000  0.5153740000000  0.4590210000000 1.0
C      1  0.4176940000000  0.4750230000000  0.5088980000000 1.0
C      1  0.5180160000000  0.5403190000000  0.6142890000000 1.0
C      1  0.4848850000000  0.5766410000000  0.4417030000000 1.0
C      1  0.4700280000000  0.4335130000000  0.4821790000000 1.0
C      1  0.5071620000000  0.5805920000000  0.4563340000000 1.0
C      1  0.4108940000000  0.4789760000000  0.4811450000000 1.0
C      1  0.4730530000000  0.4283070000000  0.5744500000000 1.0
C      1  0.5975330000000  0.5230130000000  0.4888420000000 1.0
C      1  0.4910670000000  0.5261420000000  0.4588260000000 1.0
C      1  0.5146750000000  0.4859180000000  0.5468290000000 1.0
C      1  0.4959280000000  0.4959470000000  0.5961380000000 1.0
C      1  0.4871610000000  0.5501280000000  0.4024570000000 1.0
C      1  0.3208820000000  0.5140350000000  0.4721570000000 1.0
C      1  0.5734980000000  0.5948920000000  0.4332630000000 1.0
C      1  0.5626260000000  0.4196240000000  0.5041460000000 1.0
C      1  0.4708130000000  0.5605870000000  0.4229050000000 1.0
C      1  0.5365290000000  0.5592960000000  0.6050620000000 1.0
C      1  0.5724580000000  0.4958010000000  0.5216080000000 1.0
C      1  0.5912740000000  0.5200920000000  0.3793860000000 1.0
C      1  0.4576080000000  0.5452320000000  0.5753590000000 1.0
C      1  0.5208200000000  0.5686810000000  0.5498060000000 1.0
C      1  0.5847830000000  0.4314180000000  0.5179890000000 1.0
C      1  0.4965190000000  0.4226820000000  0.5861720000000 1.0
C      1  0.5432160000000  0.4339480000000  0.4883830000000 1.0
C      1  0.5459290000000  0.5569980000000  0.5558420000000 1.0
C      1  0.5709410000000  0.4302510000000  0.5669680000000 1.0
C      1  0.4631330000000  0.5048750000000  0.4912190000000 1.0
C      1  0.5245760000000  0.5050400000000  0.4846210000000 1.0
C      1  0.4120880000000  0.5121400000000  0.5397900000000 1.0
C      1  0.4994030000000  0.4610440000000  0.4369680000000 1.0
C      1  0.4549380000000  0.5032830000000  0.5180120000000 1.0
C      1  0.4564660000000  0.4825480000000  0.4169750000000 1.0
C      1  0.5794400000000  0.5138980000000  0.5674530000000 1.0
C      1  0.5116970000000  0.5397440000000  0.4012770000000 1.0
C      1  0.5872710000000  0.4760110000000  0.4006450000000 1.0
C      1  0.4670350000000  0.5279140000000  0.5582930000000 1.0
C      1  0.4741380000000  0.5114100000000  0.5369750000000 1.0
C      1  0.5035480000000  0.5634750000000  0.5283100000000 1.0
C      1  0.5966250000000  0.4941340000000  0.3832320000000 1.0
C      1  0.4791920000000  0.4697220000000  0.4220460000000 1.0
C      1  0.5136720000000  0.5181910000000  0.5082160000000 1.0
C      1  0.4786600000000  0.5740610000000  0.5214130000000 1.0
C      1  0.4693060000000  0.5279980000000  0.4763780000000 1.0
C      1  0.5502690000000  0.4789440000000  0.5152630000000 1.0
C      1  0.5708530000000  0.5168570000000  0.5407380000000 1.0
C      1  0.4524160000000  0.5501950000000  0.4834720000000 1.0
C      1  0.4137230000000  0.4574530000000  0.4634040000000 1.0
C      1  0.5762230000000  0.5394180000000  0.3899220000000 1.0
C      1  0.3854050000000  0.4098050000000  0.5078560000000 1.0
C      1  0.5046970000000  0.5174520000000  0.6116330000000 1.0
C      1  0.5689900000000  0.4765330000000  0.4201510000000 1.0
C      1  0.5383920000000  0.4580970000000  0.4723190000000 1.0
C      1  0.5867970000000  0.4344870000000  0.5451210000000 1.0
C      1  0.5606520000000  0.5435320000000  0.5343220000000 1.0
C      1  0.5209030000000  0.4395690000000  0.5288070000000 1.0
C      1  0.5367190000000  0.5590880000000  0.4943810000000 1.0
C      1  0.5343370000000  0.5141460000000  0.4362780000000 1.0
C      1  0.4698420000000  0.4856570000000  0.5975240000000 1.0
C      1  0.5112290000000  0.4536510000000  0.4609210000000 1.0
C      1  0.4378740000000  0.5010400000000  0.4215000000000 1.0
C      1  0.5012830000000  0.5052230000000  0.5306680000000 1.0
END
