TITL C-627110-360-1426 4.63836363662591e-05 125000 -338.69554805027 0 0 57 (C1) n - 1
REM
REM in /home/nfs/bkarasulu/CARBON/AIRSS/Generating-Clusters/LCBOP/Only-C1/SD-CG/FIRE-CG
REM
REM
REM
REM
REM
REM ./C.cell (11c1c37f851c82e70ff6c80c92926a4b)
REM AIRSS Version 0.9.1 bugfix July 2018 build 013d7b7c2542+ Fri, 06 Jul 2018 19:26:36 +0100
REM compiler GCC version 9.2.1 20190827 (Red Hat 9.2.1-1)
REM options -cpp -mtune=generic -march=x86-64 -g -O0 -fpre-include=/usr/include/finclude/math-vector-fortran.h
REM seed 34056689 1959653787 -1582381111 754620811 -1413859450 -2000903389 -441748509 2107057831 2002310199 -468141049 436156746 572751807 -354537240 -1519339358 -440029031 1872426464 161596212 1218024388 2056342179 227128204 1934740765 -282313750 703457227 1702175732 712421157 903561325 1983963697 -888075066 -865057132 -1464107938 -1594542600 -511653618 -1587657470
REM
CELL 1.54180   50.00000   50.00000   50.00000   90.00000   90.00000   90.00000
LATT -1
SFAC C  
C      1  0.5584430000000  0.5354190000000  0.5276850000000 1.0
C      1  0.4535120000000  0.5637640000000  0.4606780000000 1.0
C      1  0.4588140000000  0.5629830000000  0.4893010000000 1.0
C      1  0.5033940000000  0.5194870000000  0.5238840000000 1.0
C      1  0.4320720000000  0.4601600000000  0.4889620000000 1.0
C      1  0.5855420000000  0.4675480000000  0.5455190000000 1.0
C      1  0.4346870000000  0.4962100000000  0.4513870000000 1.0
C      1  0.5150400000000  0.5291500000000  0.5002960000000 1.0
C      1  0.4595430000000  0.5167230000000  0.5084240000000 1.0
C      1  0.5622440000000  0.4483410000000  0.5041760000000 1.0
C      1  0.4705790000000  0.4557690000000  0.5193730000000 1.0
C      1  0.4684970000000  0.5737750000000  0.5148830000000 1.0
C      1  0.5623180000000  0.5168710000000  0.5061640000000 1.0
C      1  0.5485680000000  0.5277660000000  0.5534770000000 1.0
C      1  0.5116640000000  0.4903330000000  0.4645920000000 1.0
C      1  0.4756870000000  0.4096370000000  0.4678950000000 1.0
C      1  0.5009210000000  0.5403580000000  0.5437460000000 1.0
C      1  0.5550600000000  0.5072150000000  0.4804250000000 1.0
C      1  0.4629830000000  0.4571270000000  0.5945570000000 1.0
C      1  0.4755130000000  0.4683360000000  0.5728630000000 1.0
C      1  0.4933220000000  0.3621900000000  0.4522120000000 1.0
C      1  0.5292080000000  0.5591980000000  0.4396410000000 1.0
C      1  0.4716900000000  0.4563900000000  0.5474430000000 1.0
C      1  0.5552780000000  0.5233940000000  0.4573290000000 1.0
C      1  0.4574090000000  0.5391460000000  0.4443440000000 1.0
C      1  0.5202140000000  0.5318130000000  0.5629900000000 1.0
C      1  0.4087300000000  0.5124060000000  0.5252290000000 1.0
C      1  0.5779610000000  0.4517680000000  0.5254290000000 1.0
C      1  0.5593390000000  0.5626700000000  0.5205000000000 1.0
C      1  0.4700010000000  0.4611110000000  0.4634520000000 1.0
C      1  0.4333360000000  0.5137380000000  0.5167590000000 1.0
C      1  0.5801400000000  0.4886580000000  0.5608720000000 1.0
C      1  0.5316090000000  0.5314120000000  0.4437000000000 1.0
C      1  0.4344860000000  0.5222020000000  0.4403020000000 1.0
C      1  0.4130770000000  0.5310870000000  0.4257800000000 1.0
C      1  0.4672270000000  0.4344720000000  0.4762470000000 1.0
C      1  0.5395420000000  0.4979280000000  0.5876110000000 1.0
C      1  0.5136630000000  0.5084630000000  0.5802130000000 1.0
C      1  0.5376230000000  0.4847200000000  0.4766190000000 1.0
C      1  0.4692220000000  0.5364040000000  0.4908180000000 1.0
C      1  0.4853830000000  0.4769400000000  0.5061920000000 1.0
C      1  0.4818560000000  0.5020610000000  0.5184440000000 1.0
C      1  0.5348020000000  0.5808130000000  0.4545220000000 1.0
C      1  0.5083050000000  0.5139290000000  0.4464990000000 1.0
C      1  0.4828730000000  0.5260550000000  0.4397830000000 1.0
C      1  0.4844680000000  0.3859130000000  0.4600490000000 1.0
C      1  0.4843980000000  0.5627370000000  0.5350900000000 1.0
C      1  0.5442580000000  0.5883920000000  0.4783490000000 1.0
C      1  0.4527460000000  0.4426360000000  0.5009910000000 1.0
C      1  0.5461370000000  0.4599510000000  0.4863690000000 1.0
C      1  0.5535410000000  0.5813880000000  0.5023740000000 1.0
C      1  0.4900190000000  0.4765060000000  0.4770600000000 1.0
C      1  0.5020310000000  0.3388570000000  0.4445050000000 1.0
C      1  0.5602210000000  0.5060960000000  0.5693140000000 1.0
C      1  0.4427460000000  0.4732960000000  0.4649760000000 1.0
C      1  0.4916210000000  0.4913100000000  0.5769960000000 1.0
C      1  0.4964320000000  0.5369800000000  0.4827120000000 1.0
END
