TITL C-627108-131-1999 648.980095642585 125000 -531.214280587097 0 0 89 (C1) n - 1
REM
REM in /home/nfs/bkarasulu/CARBON/AIRSS/Generating-Clusters/LCBOP/Only-C1/SD-CG/FIRE-CG
REM
REM
REM
REM
REM
REM ./C.cell (11c1c37f851c82e70ff6c80c92926a4b)
REM AIRSS Version 0.9.1 bugfix July 2018 build 013d7b7c2542+ Fri, 06 Jul 2018 19:26:36 +0100
REM compiler GCC version 9.2.1 20190827 (Red Hat 9.2.1-1)
REM options -cpp -mtune=generic -march=x86-64 -g -O0 -fpre-include=/usr/include/finclude/math-vector-fortran.h
REM seed 1764607440 1562820004 574062622 -1736876819 1574653491 -1354389764 738600914 -1175870685 -871288205 -1603875693 -1063441798 1734411370 1830748801 1084659125 175159367 -1429884255 1364731434 1857482203 524217316 1587093064 -657895276 946711715 -2106714139 895575329 -863658120 429440461 152066195 -2068823881 -1320622870 -2041047375 -1648836198 -1836778963 -1544832040
REM
CELL 1.54180   50.00000   50.00000   50.00000   90.00000   90.00000   90.00000
LATT -1
SFAC C  
C      1  0.5782050000000  0.4265980000000  0.4936050000000 1.0
C      1  0.5080920000000  0.5085760000000  0.4935230000000 1.0
C      1  0.5239660000000  0.5715720000000  0.5254590000000 1.0
C      1  0.5208920000000  0.5079480000000  0.5230180000000 1.0
C      1  0.5306880000000  0.3925740000000  0.6065520000000 1.0
C      1  0.5662620000000  0.4296600000000  0.4677740000000 1.0
C      1  0.4340140000000  0.5049800000000  0.4335800000000 1.0
C      1  0.4291220000000  0.5465940000000  0.5236020000000 1.0
C      1  0.5720710000000  0.4765880000000  0.4647630000000 1.0
C      1  0.5510550000000  0.4832680000000  0.4818830000000 1.0
C      1  0.5327900000000  0.5796990000000  0.4996990000000 1.0
C      1  0.4458990000000  0.4979160000000  0.5536210000000 1.0
C      1  0.5321020000000  0.5119470000000  0.5863850000000 1.0
C      1  0.5182470000000  0.5008240000000  0.4178180000000 1.0
C      1  0.5371210000000  0.4843890000000  0.5276730000000 1.0
C      1  0.4908200000000  0.4788510000000  0.5744700000000 1.0
C      1  0.4964970000000  0.5540120000000  0.5771320000000 1.0
C      1  0.4663260000000  0.5573130000000  0.4943670000000 1.0
C      1  0.5207770000000  0.5307900000000  0.4173300000000 1.0
C      1  0.4957680000000  0.5719500000000  0.5329240000000 1.0
C      1  0.4970290000000  0.4926050000000  0.4380700000000 1.0
C      1  0.4383160000000  0.5792840000000  0.4210280000000 1.0
C      1  0.5294660000000  0.5721570000000  0.4504950000000 1.0
C      1  0.4592560000000  0.4986110000000  0.5023130000000 1.0
C      1  0.4847140000000  0.5065240000000  0.5796190000000 1.0
C      1  0.4402080000000  0.4542560000000  0.4685390000000 1.0
C      1  0.3901670000000  0.4831380000000  0.5244920000000 1.0
C      1  0.5021920000000  0.4582270000000  0.5899720000000 1.0
C      1  0.5417580000000  0.4729900000000  0.5534460000000 1.0
C      1  0.5286130000000  0.4317620000000  0.5303800000000 1.0
C      1  0.4169470000000  0.4845210000000  0.4394720000000 1.0
C      1  0.4953370000000  0.4658130000000  0.4463790000000 1.0
C      1  0.4640630000000  0.4256680000000  0.4981430000000 1.0
C      1  0.5323250000000  0.4228290000000  0.4323360000000 1.0
C      1  0.4895260000000  0.4726820000000  0.5471560000000 1.0
C      1  0.4844580000000  0.4858210000000  0.5000660000000 1.0
C      1  0.5065810000000  0.6148270000000  0.4431090000000 1.0
C      1  0.5123160000000  0.4818320000000  0.3946370000000 1.0
C      1  0.5777010000000  0.4521890000000  0.4546100000000 1.0
C      1  0.5944710000000  0.4689200000000  0.5206760000000 1.0
C      1  0.5205730000000  0.5275680000000  0.5433920000000 1.0
C      1  0.5896160000000  0.4441020000000  0.5110770000000 1.0
C      1  0.5335430000000  0.5043120000000  0.4773020000000 1.0
C      1  0.4522330000000  0.5131680000000  0.4538350000000 1.0
C      1  0.4923060000000  0.4450740000000  0.4653110000000 1.0
C      1  0.4931790000000  0.5271060000000  0.4719900000000 1.0
C      1  0.4261650000000  0.4784730000000  0.5565190000000 1.0
C      1  0.5653400000000  0.5409670000000  0.5336260000000 1.0
C      1  0.5450100000000  0.5752190000000  0.4743570000000 1.0
C      1  0.5059930000000  0.5880710000000  0.4481610000000 1.0
C      1  0.4004760000000  0.5041290000000  0.5087000000000 1.0
C      1  0.4856970000000  0.4648100000000  0.5207140000000 1.0
C      1  0.4818470000000  0.5692280000000  0.5582390000000 1.0
C      1  0.5083590000000  0.5259960000000  0.5730230000000 1.0
C      1  0.5285800000000  0.4431240000000  0.5039220000000 1.0
C      1  0.5246660000000  0.4340880000000  0.4091980000000 1.0
C      1  0.4026300000000  0.4718010000000  0.5455180000000 1.0
C      1  0.4569070000000  0.5073470000000  0.5293350000000 1.0
C      1  0.4750680000000  0.4387400000000  0.5187510000000 1.0
C      1  0.4414510000000  0.5436920000000  0.4966040000000 1.0
C      1  0.5474430000000  0.4933300000000  0.4228990000000 1.0
C      1  0.4821750000000  0.5732200000000  0.4517320000000 1.0
C      1  0.5257270000000  0.4149160000000  0.5940870000000 1.0
C      1  0.5723550000000  0.4930110000000  0.4150230000000 1.0
C      1  0.5421900000000  0.4684970000000  0.5043400000000 1.0
C      1  0.4807930000000  0.5536810000000  0.5176310000000 1.0
C      1  0.5205030000000  0.4385140000000  0.5804260000000 1.0
C      1  0.5331060000000  0.4452420000000  0.5555930000000 1.0
C      1  0.5311570000000  0.5513500000000  0.4313620000000 1.0
C      1  0.4161260000000  0.4971140000000  0.4854130000000 1.0
C      1  0.4415430000000  0.5144020000000  0.4829060000000 1.0
C      1  0.5723540000000  0.5738900000000  0.4727790000000 1.0
C      1  0.4478250000000  0.5568840000000  0.5527360000000 1.0
C      1  0.4645820000000  0.4394250000000  0.4735090000000 1.0
C      1  0.5823130000000  0.5202660000000  0.5297260000000 1.0
C      1  0.5450850000000  0.4904150000000  0.5757160000000 1.0
C      1  0.5385760000000  0.4250530000000  0.4599020000000 1.0
C      1  0.5177450000000  0.4350340000000  0.4779100000000 1.0
C      1  0.4748440000000  0.5293780000000  0.5307910000000 1.0
C      1  0.4824080000000  0.5535830000000  0.4720360000000 1.0
C      1  0.4598240000000  0.5772210000000  0.4355960000000 1.0
C      1  0.4061630000000  0.5290840000000  0.5226760000000 1.0
C      1  0.4806620000000  0.5114440000000  0.4515670000000 1.0
C      1  0.5918780000000  0.4953060000000  0.5258810000000 1.0
C      1  0.4567720000000  0.5134190000000  0.5753480000000 1.0
C      1  0.5383750000000  0.5493810000000  0.5370190000000 1.0
C      1  0.4195710000000  0.4745900000000  0.4662730000000 1.0
C      1  0.5166460000000  0.4550580000000  0.3944090000000 1.0
C      1  0.4454630000000  0.5395710000000  0.5750220000000 1.0
END
