TITL C-627106-156-975 -2.98003660983699e-07 125000 -537.190065818129 0 0 89 (C1) n - 1
REM
REM in /home/nfs/bkarasulu/CARBON/AIRSS/Generating-Clusters/LCBOP/Only-C1/SD-CG/FIRE-CG
REM
REM
REM
REM
REM
REM ./C.cell (11c1c37f851c82e70ff6c80c92926a4b)
REM AIRSS Version 0.9.1 bugfix July 2018 build 013d7b7c2542+ Fri, 06 Jul 2018 19:26:36 +0100
REM compiler GCC version 9.2.1 20190827 (Red Hat 9.2.1-1)
REM options -cpp -mtune=generic -march=x86-64 -g -O0 -fpre-include=/usr/include/finclude/math-vector-fortran.h
REM seed 1044496193 -1322266609 1609582165 -755629699 -506951119 -1205894424 543554147 -426778866 -1659826249 225466945 436540243 2118393565 1278850372 700305247 -1005221322 752342342 -267429138 -1149496810 -665439005 -1015685901 401132343 -1736375580 1271367374 271548503 1344605895 1612308101 369606305 815152490 436097275 1258563589 -2134124121 -404304248 353519229
REM
CELL 1.54180   50.00000   50.00000   50.00000   90.00000   90.00000   90.00000
LATT -1
SFAC C  
C      1  0.4606320000000  0.5161140000000  0.5857900000000 1.0
C      1  0.6272040000000  0.5281550000000  0.4959470000000 1.0
C      1  0.5110080000000  0.4477340000000  0.4440230000000 1.0
C      1  0.5783450000000  0.4860400000000  0.5436910000000 1.0
C      1  0.5043730000000  0.4712910000000  0.4030360000000 1.0
C      1  0.5280470000000  0.4685600000000  0.4991010000000 1.0
C      1  0.4625580000000  0.5385040000000  0.5426430000000 1.0
C      1  0.4840490000000  0.4223170000000  0.5026330000000 1.0
C      1  0.5134220000000  0.5177910000000  0.4167120000000 1.0
C      1  0.4448310000000  0.4705910000000  0.5106570000000 1.0
C      1  0.5952850000000  0.4669100000000  0.5325100000000 1.0
C      1  0.5453610000000  0.4537230000000  0.5148620000000 1.0
C      1  0.4372100000000  0.4933690000000  0.5308060000000 1.0
C      1  0.4180650000000  0.5515830000000  0.5051290000000 1.0
C      1  0.5393520000000  0.5165440000000  0.4922970000000 1.0
C      1  0.5820860000000  0.5136280000000  0.5386410000000 1.0
C      1  0.4796560000000  0.5742020000000  0.4782070000000 1.0
C      1  0.3944600000000  0.5205710000000  0.5357590000000 1.0
C      1  0.5416100000000  0.5172590000000  0.4234220000000 1.0
C      1  0.4270740000000  0.4341740000000  0.5464100000000 1.0
C      1  0.4160610000000  0.4092300000000  0.5479240000000 1.0
C      1  0.5641000000000  0.5478960000000  0.4611560000000 1.0
C      1  0.6264080000000  0.4796080000000  0.4796310000000 1.0
C      1  0.5123270000000  0.5638430000000  0.5719960000000 1.0
C      1  0.4676120000000  0.5393480000000  0.5707900000000 1.0
C      1  0.4918770000000  0.5377230000000  0.4523700000000 1.0
C      1  0.4315250000000  0.4495680000000  0.5696330000000 1.0
C      1  0.5231570000000  0.5377960000000  0.4938440000000 1.0
C      1  0.4583690000000  0.5125110000000  0.5317350000000 1.0
C      1  0.5679650000000  0.4400130000000  0.5043850000000 1.0
C      1  0.6104750000000  0.5410980000000  0.5122950000000 1.0
C      1  0.4591130000000  0.4026500000000  0.4114180000000 1.0
C      1  0.5575030000000  0.5315670000000  0.4404710000000 1.0
C      1  0.5377410000000  0.5592480000000  0.5299800000000 1.0
C      1  0.5530510000000  0.4781200000000  0.5557480000000 1.0
C      1  0.4771200000000  0.4723110000000  0.5080550000000 1.0
C      1  0.6325860000000  0.5053320000000  0.4831990000000 1.0
C      1  0.5635840000000  0.5545560000000  0.5153070000000 1.0
C      1  0.4999350000000  0.4618090000000  0.4927770000000 1.0
C      1  0.5383620000000  0.4558130000000  0.5426060000000 1.0
C      1  0.4735220000000  0.5132210000000  0.4875500000000 1.0
C      1  0.4938140000000  0.4952950000000  0.4142470000000 1.0
C      1  0.4344480000000  0.4453140000000  0.5215270000000 1.0
C      1  0.5931150000000  0.4527370000000  0.5082800000000 1.0
C      1  0.4644270000000  0.4388450000000  0.4515640000000 1.0
C      1  0.4269230000000  0.5325210000000  0.4862390000000 1.0
C      1  0.4382210000000  0.5688430000000  0.5149710000000 1.0
C      1  0.4488200000000  0.5417880000000  0.4428130000000 1.0
C      1  0.4890000000000  0.4790270000000  0.5737750000000 1.0
C      1  0.5015080000000  0.4653350000000  0.4637330000000 1.0
C      1  0.4971130000000  0.4524390000000  0.5690330000000 1.0
C      1  0.5656110000000  0.4160080000000  0.4916230000000 1.0
C      1  0.4512270000000  0.5167470000000  0.4310060000000 1.0
C      1  0.4360210000000  0.4838370000000  0.4842210000000 1.0
C      1  0.4317240000000  0.4720310000000  0.4590640000000 1.0
C      1  0.4430260000000  0.4691970000000  0.5836910000000 1.0
C      1  0.5442790000000  0.5003130000000  0.5714270000000 1.0
C      1  0.5333810000000  0.5517240000000  0.5575760000000 1.0
C      1  0.5026270000000  0.4979080000000  0.5580600000000 1.0
C      1  0.5097080000000  0.5697250000000  0.4229070000000 1.0
C      1  0.4719120000000  0.4280150000000  0.4782220000000 1.0
C      1  0.5039810000000  0.5056290000000  0.5323520000000 1.0
C      1  0.4670390000000  0.4918720000000  0.4284910000000 1.0
C      1  0.4563240000000  0.4670160000000  0.4442250000000 1.0
C      1  0.5037150000000  0.5424420000000  0.4274680000000 1.0
C      1  0.5142240000000  0.5579470000000  0.5117380000000 1.0
C      1  0.4812230000000  0.5023930000000  0.5143730000000 1.0
C      1  0.4070990000000  0.4658030000000  0.4491730000000 1.0
C      1  0.4640180000000  0.4878460000000  0.5844320000000 1.0
C      1  0.5648270000000  0.5583400000000  0.4863180000000 1.0
C      1  0.5129550000000  0.4500180000000  0.4172580000000 1.0
C      1  0.3967160000000  0.5434660000000  0.5216930000000 1.0
C      1  0.5427440000000  0.5272330000000  0.5687300000000 1.0
C      1  0.4111780000000  0.4997590000000  0.5389000000000 1.0
C      1  0.5111130000000  0.4927920000000  0.4631710000000 1.0
C      1  0.4617820000000  0.4197350000000  0.4309130000000 1.0
C      1  0.4872300000000  0.5576330000000  0.5791920000000 1.0
C      1  0.4693210000000  0.5542880000000  0.4592910000000 1.0
C      1  0.6114890000000  0.4591260000000  0.4881520000000 1.0
C      1  0.4450040000000  0.5112920000000  0.4832660000000 1.0
C      1  0.5123580000000  0.4423390000000  0.5472780000000 1.0
C      1  0.4983720000000  0.4272180000000  0.5259720000000 1.0
C      1  0.5330900000000  0.4916240000000  0.4825380000000 1.0
C      1  0.4866530000000  0.5667300000000  0.5064300000000 1.0
C      1  0.4947790000000  0.5939900000000  0.4640860000000 1.0
C      1  0.5853470000000  0.5380540000000  0.5249430000000 1.0
C      1  0.4928500000000  0.5140630000000  0.4668810000000 1.0
C      1  0.4640260000000  0.5605290000000  0.5238540000000 1.0
C      1  0.5066170000000  0.5908520000000  0.4397560000000 1.0
END
