TITL C-627109-622-1062 3545.38813471303 125000 -966.309007215875 0 0 160 (C1) n - 1
REM
REM in /home/nfs/bkarasulu/CARBON/AIRSS/Generating-Clusters/LCBOP/Only-C1/SD-CG/FIRE-CG
REM
REM
REM
REM
REM
REM ./C.cell (11c1c37f851c82e70ff6c80c92926a4b)
REM AIRSS Version 0.9.1 bugfix July 2018 build 013d7b7c2542+ Fri, 06 Jul 2018 19:26:36 +0100
REM compiler GCC version 9.2.1 20190827 (Red Hat 9.2.1-1)
REM options -cpp -mtune=generic -march=x86-64 -g -O0 -fpre-include=/usr/include/finclude/math-vector-fortran.h
REM seed 2049175741 -525254172 146381076 -1590896490 -1805038631 1699857666 1617305670 -1348792543 -1965059186 -1694325652 -644515525 927908086 -2107132814 688780743 3813761 -1426747730 1253760713 -663929321 1838223990 1410114288 956170476 920110086 2104867689 1882496990 2108923627 1499714591 -268944577 1011981622 -681253455 -896732264 813675589 1723455510 -491512043
REM
CELL 1.54180   50.00000   50.00000   50.00000   90.00000   90.00000   90.00000
LATT -1
SFAC C  
C      1  0.5327150000000  0.6049980000000  0.4647880000000 1.0
C      1  0.5269410000000  0.4016900000000  0.4663720000000 1.0
C      1  0.5355780000000  0.4574580000000  0.4970250000000 1.0
C      1  0.5408140000000  0.4391630000000  0.5988310000000 1.0
C      1  0.5804990000000  0.4794970000000  0.4422300000000 1.0
C      1  0.5785550000000  0.5380650000000  0.4741900000000 1.0
C      1  0.6231250000000  0.4582370000000  0.5237880000000 1.0
C      1  0.5218510000000  0.4951090000000  0.4440330000000 1.0
C      1  0.4398920000000  0.5136580000000  0.4996260000000 1.0
C      1  0.5407140000000  0.4724420000000  0.3971610000000 1.0
C      1  0.5122580000000  0.4418820000000  0.6039910000000 1.0
C      1  0.5471010000000  0.4142590000000  0.4852480000000 1.0
C      1  0.4993490000000  0.4174950000000  0.4261650000000 1.0
C      1  0.4625060000000  0.4436810000000  0.4648380000000 1.0
C      1  0.4108870000000  0.5018420000000  0.5358240000000 1.0
C      1  0.5249390000000  0.4675770000000  0.5470750000000 1.0
C      1  0.4741100000000  0.5173750000000  0.3963950000000 1.0
C      1  0.5523130000000  0.4198200000000  0.5805080000000 1.0
C      1  0.4680650000000  0.5382760000000  0.4666060000000 1.0
C      1  0.6062420000000  0.4728170000000  0.4527540000000 1.0
C      1  0.5528570000000  0.3928650000000  0.5835650000000 1.0
C      1  0.4826450000000  0.4631330000000  0.4007740000000 1.0
C      1  0.4073270000000  0.4933840000000  0.5836280000000 1.0
C      1  0.4162800000000  0.5257990000000  0.4903180000000 1.0
C      1  0.4547260000000  0.3822680000000  0.4780720000000 1.0
C      1  0.5314730000000  0.5880810000000  0.4415450000000 1.0
C      1  0.4425360000000  0.6111570000000  0.4645000000000 1.0
C      1  0.5693880000000  0.4235770000000  0.4414330000000 1.0
C      1  0.4478670000000  0.6309070000000  0.4483550000000 1.0
C      1  0.5797320000000  0.5713880000000  0.5124000000000 1.0
C      1  0.5246350000000  0.4123640000000  0.4391540000000 1.0
C      1  0.4692080000000  0.4736910000000  0.5925040000000 1.0
C      1  0.5103850000000  0.6165540000000  0.4786990000000 1.0
C      1  0.4845730000000  0.4356650000000  0.4797650000000 1.0
C      1  0.5404400000000  0.5387220000000  0.5160690000000 1.0
C      1  0.5022220000000  0.4418870000000  0.4081870000000 1.0
C      1  0.4182690000000  0.4686000000000  0.5725940000000 1.0
C      1  0.5393220000000  0.4877220000000  0.5883620000000 1.0
C      1  0.4560890000000  0.4363710000000  0.5307800000000 1.0
C      1  0.5734630000000  0.5937240000000  0.4965270000000 1.0
C      1  0.5568090000000  0.5060130000000  0.5738520000000 1.0
C      1  0.4060080000000  0.4819690000000  0.4591960000000 1.0
C      1  0.5392340000000  0.5120010000000  0.4609160000000 1.0
C      1  0.3967850000000  0.5231760000000  0.5487650000000 1.0
C      1  0.4071850000000  0.5215260000000  0.5756350000000 1.0
C      1  0.4123220000000  0.5580250000000  0.4493400000000 1.0
C      1  0.4426960000000  0.5848690000000  0.5499470000000 1.0
C      1  0.3925180000000  0.5129770000000  0.4893120000000 1.0
C      1  0.4962150000000  0.4624860000000  0.5907330000000 1.0
C      1  0.4653580000000  0.5446100000000  0.5288310000000 1.0
C      1  0.4494670000000  0.4812280000000  0.4303690000000 1.0
C      1  0.4820860000000  0.6109710000000  0.5249180000000 1.0
C      1  0.4827230000000  0.5490430000000  0.5520850000000 1.0
C      1  0.5789350000000  0.5031920000000  0.4266770000000 1.0
C      1  0.5693750000000  0.5697530000000  0.5396330000000 1.0
C      1  0.4282280000000  0.4370870000000  0.5359530000000 1.0
C      1  0.4555780000000  0.4608030000000  0.4113780000000 1.0
C      1  0.4927860000000  0.6188070000000  0.4992290000000 1.0
C      1  0.4110870000000  0.4579990000000  0.5446000000000 1.0
C      1  0.5456470000000  0.4274810000000  0.4261850000000 1.0
C      1  0.5268480000000  0.4699740000000  0.4559790000000 1.0
C      1  0.4441070000000  0.4611760000000  0.5846770000000 1.0
C      1  0.4979100000000  0.4961480000000  0.4292890000000 1.0
C      1  0.4131270000000  0.5733690000000  0.4731290000000 1.0
C      1  0.5527360000000  0.5449160000000  0.4276710000000 1.0
C      1  0.4973910000000  0.5718960000000  0.4706030000000 1.0
C      1  0.4518480000000  0.5248180000000  0.5935330000000 1.0
C      1  0.6289230000000  0.4767340000000  0.4379470000000 1.0
C      1  0.4337330000000  0.5648290000000  0.5670080000000 1.0
C      1  0.5721730000000  0.5507410000000  0.4491930000000 1.0
C      1  0.5476370000000  0.5475990000000  0.6001220000000 1.0
C      1  0.4972770000000  0.5687560000000  0.6008980000000 1.0
C      1  0.4302300000000  0.5389250000000  0.5808380000000 1.0
C      1  0.5571830000000  0.6051920000000  0.4788330000000 1.0
C      1  0.5892030000000  0.4253390000000  0.5439680000000 1.0
C      1  0.4490940000000  0.5225880000000  0.5250970000000 1.0
C      1  0.4573130000000  0.3862930000000  0.5283050000000 1.0
C      1  0.4846360000000  0.5560750000000  0.4505360000000 1.0
C      1  0.3928230000000  0.5717680000000  0.4926680000000 1.0
C      1  0.4978760000000  0.4234140000000  0.4990480000000 1.0
C      1  0.4688130000000  0.4622160000000  0.5259970000000 1.0
C      1  0.5711540000000  0.4994880000000  0.5262060000000 1.0
C      1  0.4231660000000  0.4923300000000  0.4370360000000 1.0
C      1  0.6180480000000  0.5042980000000  0.5062960000000 1.0
C      1  0.5396310000000  0.4320610000000  0.5097630000000 1.0
C      1  0.5034490000000  0.5098230000000  0.5353860000000 1.0
C      1  0.5234870000000  0.5587280000000  0.6061480000000 1.0
C      1  0.4363050000000  0.5886890000000  0.4799030000000 1.0
C      1  0.5604290000000  0.4692240000000  0.4934230000000 1.0
C      1  0.5264080000000  0.4937390000000  0.5348550000000 1.0
C      1  0.5163380000000  0.4753610000000  0.5744010000000 1.0
C      1  0.4693690000000  0.5581010000000  0.5031220000000 1.0
C      1  0.4303090000000  0.3962350000000  0.4735950000000 1.0
C      1  0.4441480000000  0.4623000000000  0.4774850000000 1.0
C      1  0.3956620000000  0.4846410000000  0.4878360000000 1.0
C      1  0.5245260000000  0.5604240000000  0.5098710000000 1.0
C      1  0.6183350000000  0.4755730000000  0.5018940000000 1.0
C      1  0.4455490000000  0.5194270000000  0.4022900000000 1.0
C      1  0.4566410000000  0.5963260000000  0.5265160000000 1.0
C      1  0.5019480000000  0.6081950000000  0.5447780000000 1.0
C      1  0.5647110000000  0.5128040000000  0.4764230000000 1.0
C      1  0.5312900000000  0.5471900000000  0.5568550000000 1.0
C      1  0.4569870000000  0.3728840000000  0.5047670000000 1.0
C      1  0.4661340000000  0.5101370000000  0.4637020000000 1.0
C      1  0.3835530000000  0.5621290000000  0.5158250000000 1.0
C      1  0.5718910000000  0.4939170000000  0.4975190000000 1.0
C      1  0.5909130000000  0.5476520000000  0.4987760000000 1.0
C      1  0.5943930000000  0.4360540000000  0.4812070000000 1.0
C      1  0.4659040000000  0.5019660000000  0.5973810000000 1.0
C      1  0.4564330000000  0.4261510000000  0.4427830000000 1.0
C      1  0.4397310000000  0.5022350000000  0.5416400000000 1.0
C      1  0.5417840000000  0.5738260000000  0.5484040000000 1.0
C      1  0.5065570000000  0.5339260000000  0.5500470000000 1.0
C      1  0.4782380000000  0.3870350000000  0.4615400000000 1.0
C      1  0.5441850000000  0.4996490000000  0.3976200000000 1.0
C      1  0.5050620000000  0.3838890000000  0.4717190000000 1.0
C      1  0.5556350000000  0.4665260000000  0.4496250000000 1.0
C      1  0.5461040000000  0.5130010000000  0.5268730000000 1.0
C      1  0.4720980000000  0.4953200000000  0.4414680000000 1.0
C      1  0.4582600000000  0.4815070000000  0.5435290000000 1.0
C      1  0.4218530000000  0.4454800000000  0.4840740000000 1.0
C      1  0.5556280000000  0.5357290000000  0.5734350000000 1.0
C      1  0.5724330000000  0.4627810000000  0.5684070000000 1.0
C      1  0.4981240000000  0.5578760000000  0.4969150000000 1.0
C      1  0.6067590000000  0.5293440000000  0.5157460000000 1.0
C      1  0.6119870000000  0.4370510000000  0.5358620000000 1.0
C      1  0.5005130000000  0.5531370000000  0.4263320000000 1.0
C      1  0.6020100000000  0.5342290000000  0.5440120000000 1.0
C      1  0.4069500000000  0.5400320000000  0.4281350000000 1.0
C      1  0.3844280000000  0.5440990000000  0.4129640000000 1.0
C      1  0.4899260000000  0.4921580000000  0.4010690000000 1.0
C      1  0.5321140000000  0.4471600000000  0.4077360000000 1.0
C      1  0.5640060000000  0.4348790000000  0.5562360000000 1.0
C      1  0.5797530000000  0.5475360000000  0.5563780000000 1.0
C      1  0.5580000000000  0.5188280000000  0.4143200000000 1.0
C      1  0.4554860000000  0.4919200000000  0.4849860000000 1.0
C      1  0.5004770000000  0.5283630000000  0.4913240000000 1.0
C      1  0.5400380000000  0.4415660000000  0.5382440000000 1.0
C      1  0.4174960000000  0.4191080000000  0.4798290000000 1.0
C      1  0.3844190000000  0.5444580000000  0.5358650000000 1.0
C      1  0.5140160000000  0.4676120000000  0.4823190000000 1.0
C      1  0.4023680000000  0.4774990000000  0.5233330000000 1.0
C      1  0.4452450000000  0.4360600000000  0.4191360000000 1.0
C      1  0.4955510000000  0.4127860000000  0.5234620000000 1.0
C      1  0.5721380000000  0.4219270000000  0.4704360000000 1.0
C      1  0.5558130000000  0.4639590000000  0.5940400000000 1.0
C      1  0.5735600000000  0.4892460000000  0.5544290000000 1.0
C      1  0.4833880000000  0.5637740000000  0.5764320000000 1.0
C      1  0.4939280000000  0.5076600000000  0.5089690000000 1.0
C      1  0.4891870000000  0.5408500000000  0.4034910000000 1.0
C      1  0.4694270000000  0.4113300000000  0.5333290000000 1.0
C      1  0.4764340000000  0.4063470000000  0.4395820000000 1.0
C      1  0.6078660000000  0.4613460000000  0.4787180000000 1.0
C      1  0.4844600000000  0.4810920000000  0.4997530000000 1.0
C      1  0.4236460000000  0.5177570000000  0.4218060000000 1.0
C      1  0.5204950000000  0.5284770000000  0.4722820000000 1.0
C      1  0.5254660000000  0.5964560000000  0.5499050000000 1.0
C      1  0.4526250000000  0.5813480000000  0.5017950000000 1.0
C      1  0.4848840000000  0.5838910000000  0.6201360000000 1.0
C      1  0.5285240000000  0.5621060000000  0.4286990000000 1.0
END
