TITL C-627108-131-719 -6.00205758068049e-07 125000 -972.863578286865 0 0 159 (C1) n - 1
REM
REM in /home/nfs/bkarasulu/CARBON/AIRSS/Generating-Clusters/LCBOP/Only-C1/SD-CG/FIRE-CG
REM
REM
REM
REM
REM
REM ./C.cell (11c1c37f851c82e70ff6c80c92926a4b)
REM AIRSS Version 0.9.1 bugfix July 2018 build 013d7b7c2542+ Fri, 06 Jul 2018 19:26:36 +0100
REM compiler GCC version 9.2.1 20190827 (Red Hat 9.2.1-1)
REM options -cpp -mtune=generic -march=x86-64 -g -O0 -fpre-include=/usr/include/finclude/math-vector-fortran.h
REM seed -766785337 -2002764829 384643556 -247613782 1141708611 -1822512610 -886279426 -1999634801 781814004 -1456356866 1197578599 1426984956 -714979076 558433299 551458951 -406915057 -2140526423 350458162 2025639797 -457365420 1286342890 -856775791 365090629 844283118 -1722410160 728702146 -1381022277 -1150145346 -334841414 -953873938 313561110 1643865921 -331923069
REM
CELL 1.54180   50.00000   50.00000   50.00000   90.00000   90.00000   90.00000
LATT -1
SFAC C  
C      1  0.4560200000000  0.4141600000000  0.4994780000000 1.0
C      1  0.5342000000000  0.5820780000000  0.5661790000000 1.0
C      1  0.6112400000000  0.4805740000000  0.5051090000000 1.0
C      1  0.5306930000000  0.5257530000000  0.5952190000000 1.0
C      1  0.4753220000000  0.4655730000000  0.5430880000000 1.0
C      1  0.4604910000000  0.3861760000000  0.4868240000000 1.0
C      1  0.6149480000000  0.4723540000000  0.4773330000000 1.0
C      1  0.4561070000000  0.4142610000000  0.5571110000000 1.0
C      1  0.4404760000000  0.5727830000000  0.4617680000000 1.0
C      1  0.5969430000000  0.5543870000000  0.4832410000000 1.0
C      1  0.4593770000000  0.6382160000000  0.4871660000000 1.0
C      1  0.5169750000000  0.5406010000000  0.6137580000000 1.0
C      1  0.4581150000000  0.4210350000000  0.5296400000000 1.0
C      1  0.4956590000000  0.5595270000000  0.5455390000000 1.0
C      1  0.5166640000000  0.4665870000000  0.4122900000000 1.0
C      1  0.5491130000000  0.3828650000000  0.5518980000000 1.0
C      1  0.4809210000000  0.4372770000000  0.5936660000000 1.0
C      1  0.5330220000000  0.4454910000000  0.5223080000000 1.0
C      1  0.4660230000000  0.5733120000000  0.4735420000000 1.0
C      1  0.4590570000000  0.4866910000000  0.4730980000000 1.0
C      1  0.5888230000000  0.5636410000000  0.4275290000000 1.0
C      1  0.5160080000000  0.4959600000000  0.4576290000000 1.0
C      1  0.5790530000000  0.5655930000000  0.5565150000000 1.0
C      1  0.5315280000000  0.4932650000000  0.4103070000000 1.0
C      1  0.4882470000000  0.4719310000000  0.4033570000000 1.0
C      1  0.4945270000000  0.5472980000000  0.5016090000000 1.0
C      1  0.5732800000000  0.5949570000000  0.4923300000000 1.0
C      1  0.5104960000000  0.3946660000000  0.4751830000000 1.0
C      1  0.5812180000000  0.4380450000000  0.4853990000000 1.0
C      1  0.5820340000000  0.4243210000000  0.5106920000000 1.0
C      1  0.4517790000000  0.4846850000000  0.5796830000000 1.0
C      1  0.5347400000000  0.4134890000000  0.5916200000000 1.0
C      1  0.5582530000000  0.3838220000000  0.5268020000000 1.0
C      1  0.6517490000000  0.5502820000000  0.5601460000000 1.0
C      1  0.5889040000000  0.4523940000000  0.4353130000000 1.0
C      1  0.5524220000000  0.5005820000000  0.4287820000000 1.0
C      1  0.4898500000000  0.5885200000000  0.4243890000000 1.0
C      1  0.5189390000000  0.5769490000000  0.5427530000000 1.0
C      1  0.5751540000000  0.5160720000000  0.4239100000000 1.0
C      1  0.4196760000000  0.4683190000000  0.4388200000000 1.0
C      1  0.4149830000000  0.4594730000000  0.5599940000000 1.0
C      1  0.5052080000000  0.6035520000000  0.4439410000000 1.0
C      1  0.4931210000000  0.5006540000000  0.5063620000000 1.0
C      1  0.4574250000000  0.4417950000000  0.3827760000000 1.0
C      1  0.5524810000000  0.4905050000000  0.5575920000000 1.0
C      1  0.4785520000000  0.4860280000000  0.5653290000000 1.0
C      1  0.5661210000000  0.5130270000000  0.6266040000000 1.0
C      1  0.5885550000000  0.5839830000000  0.4455850000000 1.0
C      1  0.4430420000000  0.4589550000000  0.4250780000000 1.0
C      1  0.4096600000000  0.4356430000000  0.4774900000000 1.0
C      1  0.5949630000000  0.4680740000000  0.5261160000000 1.0
C      1  0.4366330000000  0.4609290000000  0.5114310000000 1.0
C      1  0.4140060000000  0.6251960000000  0.4696360000000 1.0
C      1  0.5442350000000  0.4975050000000  0.4559260000000 1.0
C      1  0.5670080000000  0.3993420000000  0.5052460000000 1.0
C      1  0.4130610000000  0.4950640000000  0.4330330000000 1.0
C      1  0.4155880000000  0.5216940000000  0.4409260000000 1.0
C      1  0.4764830000000  0.6408700000000  0.4653520000000 1.0
C      1  0.5292090000000  0.4706300000000  0.5114050000000 1.0
C      1  0.4198900000000  0.5399600000000  0.4202540000000 1.0
C      1  0.5460290000000  0.4937170000000  0.5050350000000 1.0
C      1  0.4971880000000  0.5332220000000  0.5579490000000 1.0
C      1  0.5901220000000  0.4336600000000  0.5594430000000 1.0
C      1  0.4307270000000  0.6112670000000  0.5150730000000 1.0
C      1  0.4951290000000  0.5133500000000  0.4507330000000 1.0
C      1  0.4330610000000  0.5074550000000  0.5837670000000 1.0
C      1  0.5190490000000  0.5932010000000  0.4662880000000 1.0
C      1  0.4335840000000  0.6238750000000  0.4885380000000 1.0
C      1  0.5203400000000  0.4459230000000  0.4325170000000 1.0
C      1  0.5128670000000  0.5143990000000  0.4000970000000 1.0
C      1  0.4397810000000  0.4577050000000  0.5751230000000 1.0
C      1  0.5398360000000  0.4251410000000  0.4393380000000 1.0
C      1  0.5898710000000  0.5365300000000  0.4360120000000 1.0
C      1  0.4621110000000  0.5978890000000  0.4262510000000 1.0
C      1  0.4058360000000  0.4985500000000  0.5859650000000 1.0
C      1  0.4672760000000  0.4023830000000  0.4211500000000 1.0
C      1  0.4205730000000  0.5785780000000  0.5508610000000 1.0
C      1  0.4676030000000  0.6399670000000  0.5148770000000 1.0
C      1  0.5581450000000  0.4887560000000  0.4796500000000 1.0
C      1  0.5361850000000  0.5173780000000  0.5184460000000 1.0
C      1  0.5691690000000  0.4316310000000  0.4398210000000 1.0
C      1  0.5615780000000  0.5824290000000  0.5150670000000 1.0
C      1  0.4908370000000  0.5631350000000  0.4088160000000 1.0
C      1  0.5981510000000  0.5500060000000  0.5115820000000 1.0
C      1  0.4036510000000  0.5243760000000  0.5299270000000 1.0
C      1  0.4823610000000  0.3873720000000  0.4663310000000 1.0
C      1  0.4760180000000  0.4078120000000  0.4461350000000 1.0
C      1  0.5578250000000  0.4857370000000  0.5873220000000 1.0
C      1  0.4889330000000  0.4991950000000  0.3934760000000 1.0
C      1  0.4039020000000  0.4581140000000  0.4608510000000 1.0
C      1  0.5798750000000  0.5646190000000  0.5284180000000 1.0
C      1  0.4216890000000  0.5569430000000  0.4766600000000 1.0
C      1  0.4787830000000  0.5113490000000  0.5487400000000 1.0
C      1  0.4698460000000  0.5012360000000  0.4533120000000 1.0
C      1  0.5046700000000  0.4762320000000  0.4979500000000 1.0
C      1  0.4690760000000  0.5035710000000  0.5209380000000 1.0
C      1  0.4169940000000  0.5638580000000  0.5043610000000 1.0
C      1  0.4969510000000  0.5406840000000  0.4547860000000 1.0
C      1  0.4394080000000  0.5588310000000  0.4151070000000 1.0
C      1  0.4346420000000  0.4361460000000  0.4906060000000 1.0
C      1  0.4568530000000  0.4341060000000  0.5783190000000 1.0
C      1  0.5233570000000  0.5272030000000  0.5675740000000 1.0
C      1  0.4463130000000  0.3640120000000  0.4935400000000 1.0
C      1  0.5596410000000  0.3985720000000  0.4763810000000 1.0
C      1  0.3891820000000  0.4287130000000  0.4962430000000 1.0
C      1  0.4193060000000  0.5866940000000  0.5227450000000 1.0
C      1  0.5714290000000  0.4639280000000  0.4801780000000 1.0
C      1  0.6203820000000  0.5064620000000  0.5117990000000 1.0
C      1  0.5258780000000  0.4756720000000  0.5571150000000 1.0
C      1  0.5596370000000  0.5755470000000  0.5723910000000 1.0
C      1  0.5772620000000  0.4189700000000  0.4645230000000 1.0
C      1  0.4783290000000  0.5562510000000  0.5233530000000 1.0
C      1  0.4634120000000  0.4574230000000  0.4047440000000 1.0
C      1  0.5406460000000  0.3935290000000  0.5748650000000 1.0
C      1  0.4819410000000  0.4321660000000  0.4606120000000 1.0
C      1  0.5064360000000  0.4724080000000  0.4701990000000 1.0
C      1  0.4194460000000  0.5286590000000  0.4687330000000 1.0
C      1  0.3941920000000  0.4947960000000  0.4931530000000 1.0
C      1  0.4874700000000  0.5558020000000  0.4760870000000 1.0
C      1  0.3846330000000  0.4766040000000  0.4733250000000 1.0
C      1  0.5884480000000  0.5805110000000  0.4736490000000 1.0
C      1  0.5052990000000  0.4128300000000  0.4976150000000 1.0
C      1  0.5100840000000  0.5241160000000  0.5073430000000 1.0
C      1  0.4202450000000  0.5062130000000  0.4876720000000 1.0
C      1  0.5921220000000  0.4398190000000  0.5319540000000 1.0
C      1  0.4355190000000  0.5357020000000  0.5793500000000 1.0
C      1  0.3910530000000  0.4396580000000  0.5211380000000 1.0
C      1  0.5320430000000  0.4413630000000  0.5963170000000 1.0
C      1  0.5328020000000  0.5835150000000  0.5175940000000 1.0
C      1  0.5415600000000  0.5173200000000  0.5474330000000 1.0
C      1  0.6071520000000  0.4649850000000  0.4519470000000 1.0
C      1  0.5788400000000  0.4421380000000  0.5823690000000 1.0
C      1  0.5212050000000  0.4219730000000  0.5181750000000 1.0
C      1  0.4437170000000  0.4893390000000  0.4988730000000 1.0
C      1  0.5205650000000  0.5908500000000  0.4930820000000 1.0
C      1  0.4816880000000  0.4271180000000  0.4890620000000 1.0
C      1  0.3583250000000  0.4763860000000  0.4656860000000 1.0
C      1  0.5518400000000  0.5081410000000  0.6038040000000 1.0
C      1  0.5053040000000  0.4522000000000  0.5928990000000 1.0
C      1  0.4639160000000  0.5547780000000  0.4013070000000 1.0
C      1  0.4245850000000  0.5416440000000  0.5218830000000 1.0
C      1  0.5985770000000  0.5344170000000  0.4631330000000 1.0
C      1  0.5043970000000  0.4752890000000  0.5760230000000 1.0
C      1  0.5016500000000  0.4504230000000  0.4536650000000 1.0
C      1  0.6358690000000  0.5415220000000  0.5414320000000 1.0
C      1  0.4511670000000  0.6246040000000  0.5309180000000 1.0
C      1  0.3964170000000  0.4765750000000  0.5730750000000 1.0
C      1  0.6181270000000  0.5325520000000  0.5218230000000 1.0
C      1  0.5769020000000  0.4837330000000  0.5417330000000 1.0
C      1  0.3869020000000  0.5063680000000  0.5180810000000 1.0
C      1  0.4522650000000  0.5458340000000  0.5268850000000 1.0
C      1  0.5568910000000  0.4570110000000  0.5930890000000 1.0
C      1  0.4595550000000  0.4500310000000  0.5277500000000 1.0
C      1  0.4946680000000  0.6296620000000  0.4491000000000 1.0
C      1  0.4278060000000  0.5599300000000  0.5695040000000 1.0
C      1  0.4413640000000  0.5800960000000  0.4340640000000 1.0
C      1  0.5104150000000  0.5426480000000  0.4039860000000 1.0
C      1  0.5344920000000  0.4022940000000  0.4606560000000 1.0
C      1  0.4125430000000  0.4553000000000  0.5316300000000 1.0
END
