TITL C-627108-131-231 3.91315632761666e-08 125000 -929.076354758958 0 0 153 (C1) n - 1
REM
REM in /home/nfs/bkarasulu/CARBON/AIRSS/Generating-Clusters/LCBOP/Only-C1/SD-CG/FIRE-CG
REM
REM
REM
REM
REM
REM ./C.cell (11c1c37f851c82e70ff6c80c92926a4b)
REM AIRSS Version 0.9.1 bugfix July 2018 build 013d7b7c2542+ Fri, 06 Jul 2018 19:26:36 +0100
REM compiler GCC version 9.2.1 20190827 (Red Hat 9.2.1-1)
REM options -cpp -mtune=generic -march=x86-64 -g -O0 -fpre-include=/usr/include/finclude/math-vector-fortran.h
REM seed 97347070 1160336351 -1701752105 -1061579705 1530254110 579896660 -1508961440 2031952867 1561034902 -843672545 -2035188554 -994359291 1557891731 -1050196433 1548854537 1561912784 1592320625 -831716691 -526633113 1586443036 -1651460047 -1687816823 1120450821 -1605140508 555116596 -1349479842 1033693075 1782887818 -1247917616 -34902484 -1212357892 -996380649 1214445197
REM
CELL 1.54180   50.00000   50.00000   50.00000   90.00000   90.00000   90.00000
LATT -1
SFAC C  
C      1  0.5666560000000  0.5636370000000  0.4367400000000 1.0
C      1  0.4795830000000  0.5185980000000  0.4924870000000 1.0
C      1  0.4415810000000  0.5874410000000  0.4240770000000 1.0
C      1  0.5369480000000  0.5249130000000  0.5847100000000 1.0
C      1  0.4201870000000  0.5747940000000  0.4407900000000 1.0
C      1  0.3864690000000  0.5068950000000  0.5261750000000 1.0
C      1  0.4743360000000  0.5907020000000  0.4951830000000 1.0
C      1  0.5858330000000  0.5188560000000  0.4327110000000 1.0
C      1  0.4215310000000  0.5365970000000  0.5465830000000 1.0
C      1  0.5732720000000  0.4963870000000  0.4436560000000 1.0
C      1  0.5646130000000  0.5579410000000  0.5435270000000 1.0
C      1  0.6212970000000  0.4859050000000  0.5806410000000 1.0
C      1  0.4584780000000  0.4907830000000  0.5451000000000 1.0
C      1  0.3822750000000  0.5311830000000  0.5079980000000 1.0
C      1  0.5361010000000  0.4026000000000  0.5757310000000 1.0
C      1  0.5623570000000  0.5124980000000  0.5881330000000 1.0
C      1  0.5940330000000  0.5389500000000  0.4749820000000 1.0
C      1  0.5393650000000  0.5864700000000  0.4701760000000 1.0
C      1  0.4924980000000  0.5504240000000  0.5375670000000 1.0
C      1  0.5801920000000  0.5355490000000  0.5448830000000 1.0
C      1  0.5059340000000  0.4628210000000  0.4080020000000 1.0
C      1  0.4915710000000  0.4995350000000  0.4783560000000 1.0
C      1  0.5441920000000  0.4174880000000  0.6200590000000 1.0
C      1  0.5479890000000  0.5012040000000  0.4557100000000 1.0
C      1  0.5816480000000  0.4248650000000  0.5892590000000 1.0
C      1  0.4213150000000  0.4869340000000  0.4508840000000 1.0
C      1  0.4322030000000  0.4501420000000  0.4998490000000 1.0
C      1  0.5833110000000  0.5185350000000  0.5694300000000 1.0
C      1  0.5223920000000  0.3487280000000  0.5537500000000 1.0
C      1  0.3802540000000  0.5457610000000  0.4365290000000 1.0
C      1  0.4519230000000  0.5967130000000  0.5110830000000 1.0
C      1  0.5255880000000  0.4965560000000  0.5409920000000 1.0
C      1  0.4457920000000  0.6682980000000  0.5077120000000 1.0
C      1  0.4453930000000  0.6913130000000  0.5199320000000 1.0
C      1  0.4987390000000  0.5864210000000  0.4443560000000 1.0
C      1  0.5615240000000  0.4938060000000  0.6101950000000 1.0
C      1  0.4319340000000  0.5368510000000  0.4209160000000 1.0
C      1  0.6217910000000  0.5179030000000  0.5426260000000 1.0
C      1  0.6054030000000  0.4779810000000  0.4693500000000 1.0
C      1  0.3907630000000  0.6028550000000  0.5269850000000 1.0
C      1  0.5770540000000  0.3795880000000  0.4763380000000 1.0
C      1  0.4647800000000  0.5172470000000  0.3943730000000 1.0
C      1  0.5052390000000  0.4402810000000  0.4724270000000 1.0
C      1  0.6278010000000  0.4385410000000  0.5371480000000 1.0
C      1  0.5858730000000  0.4234260000000  0.4579710000000 1.0
C      1  0.4579870000000  0.5337700000000  0.4897030000000 1.0
C      1  0.5380620000000  0.5231080000000  0.4721000000000 1.0
C      1  0.5723950000000  0.3866830000000  0.5020980000000 1.0
C      1  0.5205760000000  0.3794960000000  0.4852070000000 1.0
C      1  0.5168780000000  0.4847460000000  0.6364670000000 1.0
C      1  0.6003610000000  0.5212610000000  0.4973600000000 1.0
C      1  0.5066050000000  0.4494760000000  0.5006690000000 1.0
C      1  0.6053210000000  0.4754950000000  0.5166040000000 1.0
C      1  0.4273320000000  0.4924940000000  0.4223830000000 1.0
C      1  0.5684620000000  0.4116780000000  0.5158750000000 1.0
C      1  0.5017720000000  0.4627030000000  0.6365070000000 1.0
C      1  0.3639820000000  0.5047590000000  0.5458270000000 1.0
C      1  0.4900850000000  0.6130120000000  0.4479850000000 1.0
C      1  0.4792980000000  0.4627890000000  0.5085640000000 1.0
C      1  0.3807000000000  0.5784220000000  0.5225990000000 1.0
C      1  0.5293310000000  0.4695150000000  0.4991120000000 1.0
C      1  0.5811780000000  0.3957020000000  0.4547920000000 1.0
C      1  0.5262340000000  0.4253700000000  0.4600600000000 1.0
C      1  0.5850750000000  0.4715960000000  0.4502990000000 1.0
C      1  0.4872120000000  0.4546150000000  0.4567690000000 1.0
C      1  0.4860180000000  0.5126990000000  0.5818090000000 1.0
C      1  0.5131340000000  0.5714800000000  0.4672870000000 1.0
C      1  0.4135170000000  0.5106440000000  0.5398110000000 1.0
C      1  0.5158960000000  0.5061200000000  0.4231800000000 1.0
C      1  0.4440220000000  0.5776830000000  0.5303160000000 1.0
C      1  0.4685870000000  0.5396090000000  0.5473080000000 1.0
C      1  0.4683250000000  0.5139770000000  0.5598560000000 1.0
C      1  0.5715980000000  0.4456050000000  0.4470270000000 1.0
C      1  0.5054050000000  0.4796380000000  0.5455280000000 1.0
C      1  0.4104480000000  0.6194230000000  0.5197160000000 1.0
C      1  0.4920990000000  0.5144640000000  0.3856640000000 1.0
C      1  0.5077400000000  0.5389980000000  0.3852450000000 1.0
C      1  0.3747460000000  0.4841050000000  0.4685780000000 1.0
C      1  0.3727790000000  0.4705050000000  0.4929410000000 1.0
C      1  0.5199810000000  0.5417370000000  0.4589570000000 1.0
C      1  0.5614940000000  0.5846260000000  0.4550890000000 1.0
C      1  0.5152580000000  0.4172380000000  0.6167390000000 1.0
C      1  0.5894020000000  0.4305180000000  0.5097440000000 1.0
C      1  0.3936210000000  0.4975130000000  0.4532880000000 1.0
C      1  0.6051800000000  0.4924600000000  0.4937970000000 1.0
C      1  0.3547960000000  0.4505340000000  0.4973630000000 1.0
C      1  0.5428990000000  0.4415330000000  0.4425370000000 1.0
C      1  0.3895000000000  0.5191470000000  0.4339040000000 1.0
C      1  0.5847270000000  0.5431050000000  0.4473620000000 1.0
C      1  0.4595330000000  0.4656990000000  0.3977290000000 1.0
C      1  0.4321290000000  0.4319480000000  0.4765410000000 1.0
C      1  0.4640040000000  0.5692500000000  0.4123510000000 1.0
C      1  0.3855260000000  0.5701380000000  0.4763620000000 1.0
C      1  0.5362170000000  0.3953760000000  0.5485920000000 1.0
C      1  0.4544050000000  0.5423310000000  0.4047170000000 1.0
C      1  0.4547820000000  0.4677280000000  0.4924790000000 1.0
C      1  0.5258780000000  0.3707690000000  0.5379830000000 1.0
C      1  0.5261580000000  0.3980710000000  0.4666500000000 1.0
C      1  0.6153910000000  0.4597540000000  0.5877120000000 1.0
C      1  0.5978930000000  0.4291320000000  0.4827260000000 1.0
C      1  0.6274730000000  0.4336330000000  0.5858590000000 1.0
C      1  0.4470740000000  0.6147430000000  0.4287250000000 1.0
C      1  0.4439830000000  0.5527800000000  0.5428490000000 1.0
C      1  0.5412990000000  0.5236060000000  0.4998070000000 1.0
C      1  0.4791480000000  0.4499700000000  0.4113820000000 1.0
C      1  0.5113430000000  0.4051430000000  0.5909070000000 1.0
C      1  0.4362900000000  0.6204200000000  0.5085790000000 1.0
C      1  0.5281000000000  0.4612450000000  0.4281440000000 1.0
C      1  0.5426610000000  0.4149350000000  0.5285820000000 1.0
C      1  0.6055900000000  0.4484390000000  0.5246770000000 1.0
C      1  0.4559450000000  0.6409580000000  0.4689450000000 1.0
C      1  0.4925480000000  0.5727920000000  0.4196500000000 1.0
C      1  0.3910640000000  0.4791520000000  0.5126400000000 1.0
C      1  0.6012930000000  0.5292400000000  0.5251530000000 1.0
C      1  0.4173520000000  0.4674770000000  0.5186310000000 1.0
C      1  0.5197780000000  0.3700940000000  0.5102930000000 1.0
C      1  0.5576240000000  0.4313530000000  0.6403490000000 1.0
C      1  0.4465090000000  0.4304520000000  0.4525190000000 1.0
C      1  0.4974310000000  0.5745400000000  0.4928380000000 1.0
C      1  0.5198520000000  0.4290170000000  0.5186610000000 1.0
C      1  0.5551070000000  0.4726160000000  0.5005550000000 1.0
C      1  0.5299360000000  0.4880050000000  0.4389580000000 1.0
C      1  0.3383980000000  0.5102640000000  0.5375070000000 1.0
C      1  0.4853190000000  0.4829050000000  0.4568910000000 1.0
C      1  0.4311040000000  0.4876340000000  0.5364680000000 1.0
C      1  0.4413700000000  0.4836380000000  0.4712200000000 1.0
C      1  0.3692370000000  0.4969670000000  0.5716160000000 1.0
C      1  0.5460510000000  0.5618170000000  0.4153520000000 1.0
C      1  0.5391510000000  0.4967390000000  0.6277410000000 1.0
C      1  0.5705050000000  0.4549440000000  0.6381860000000 1.0
C      1  0.3923330000000  0.5688790000000  0.4489920000000 1.0
C      1  0.6107400000000  0.5079810000000  0.5673860000000 1.0
C      1  0.5568320000000  0.4125940000000  0.5939580000000 1.0
C      1  0.4650690000000  0.6258970000000  0.4473330000000 1.0
C      1  0.4128190000000  0.5167060000000  0.4169040000000 1.0
C      1  0.4716830000000  0.4945060000000  0.4354450000000 1.0
C      1  0.4700070000000  0.4408360000000  0.4384080000000 1.0
C      1  0.4797760000000  0.4748580000000  0.5346840000000 1.0
C      1  0.5874370000000  0.4537090000000  0.5940990000000 1.0
C      1  0.4408220000000  0.5424800000000  0.4716480000000 1.0
C      1  0.3818640000000  0.5590450000000  0.5021400000000 1.0
C      1  0.4459390000000  0.6434430000000  0.4950070000000 1.0
C      1  0.6081400000000  0.4137320000000  0.5855240000000 1.0
C      1  0.5155250000000  0.5540350000000  0.4106230000000 1.0
C      1  0.5365110000000  0.5141500000000  0.5242310000000 1.0
C      1  0.4325380000000  0.5491640000000  0.4463890000000 1.0
C      1  0.5000810000000  0.4370100000000  0.6292080000000 1.0
C      1  0.5133320000000  0.5327000000000  0.4323120000000 1.0
C      1  0.5047570000000  0.5616250000000  0.5166900000000 1.0
C      1  0.5105100000000  0.5218830000000  0.5877720000000 1.0
C      1  0.5750100000000  0.4692200000000  0.6140110000000 1.0
C      1  0.4544590000000  0.4922540000000  0.4101970000000 1.0
C      1  0.5053400000000  0.4926110000000  0.3994020000000 1.0
END
