TITL C-627111-6168-1735 401.432749372319 125000 -284.754101638928 0 0 49 (C1) n - 1
REM
REM in /home/nfs/bkarasulu/CARBON/AIRSS/Generating-Clusters/LCBOP/Only-C1/SD-CG/FIRE-CG
REM
REM
REM
REM
REM
REM ./C.cell (11c1c37f851c82e70ff6c80c92926a4b)
REM AIRSS Version 0.9.1 bugfix July 2018 build 013d7b7c2542+ Fri, 06 Jul 2018 19:26:36 +0100
REM compiler GCC version 9.2.1 20190827 (Red Hat 9.2.1-1)
REM options -cpp -mtune=generic -march=x86-64 -g -O0 -fpre-include=/usr/include/finclude/math-vector-fortran.h
REM seed 126128032 1221046710 217248522 1170816145 -1096449556 -399148916 -1593700615 -1740877935 1055651355 1797550494 -1090013074 -1891015371 2089445116 1709542594 -105691805 -358818688 -1482947313 859733075 -409079102 -1096349348 231199532 -1853386484 -1196354809 149561115 756326276 -1049295157 -1188736183 91184621 274348434 -1469753169 1959437994 1055421351 -248802448
REM
CELL 1.54180   50.00000   50.00000   50.00000   90.00000   90.00000   90.00000
LATT -1
SFAC C  
C      1  0.4876820000000  0.4849570000000  0.5359900000000 1.0
C      1  0.3664970000000  0.5134110000000  0.5199800000000 1.0
C      1  0.4370150000000  0.6553040000000  0.5236320000000 1.0
C      1  0.5306000000000  0.4938620000000  0.5070040000000 1.0
C      1  0.5555290000000  0.4080280000000  0.5184580000000 1.0
C      1  0.5087240000000  0.4891260000000  0.5211770000000 1.0
C      1  0.5204620000000  0.3252230000000  0.5545030000000 1.0
C      1  0.5894610000000  0.5189860000000  0.4700520000000 1.0
C      1  0.5893320000000  0.5645260000000  0.4530260000000 1.0
C      1  0.5752990000000  0.4529610000000  0.4994600000000 1.0
C      1  0.4207860000000  0.6128360000000  0.4490170000000 1.0
C      1  0.4792250000000  0.6185390000000  0.4777280000000 1.0
C      1  0.4074800000000  0.4878750000000  0.5171890000000 1.0
C      1  0.3153740000000  0.5163120000000  0.5318550000000 1.0
C      1  0.6211000000000  0.4801720000000  0.4692900000000 1.0
C      1  0.5544750000000  0.4983230000000  0.4938000000000 1.0
C      1  0.3936630000000  0.5118910000000  0.5136560000000 1.0
C      1  0.4524180000000  0.6205760000000  0.4852760000000 1.0
C      1  0.5289340000000  0.6075460000000  0.4633990000000 1.0
C      1  0.5505530000000  0.5475580000000  0.4773350000000 1.0
C      1  0.5961040000000  0.5894730000000  0.4402460000000 1.0
C      1  0.5620310000000  0.5690860000000  0.4637400000000 1.0
C      1  0.5155430000000  0.3762400000000  0.5362540000000 1.0
C      1  0.6027850000000  0.5399030000000  0.4563110000000 1.0
C      1  0.4069670000000  0.5343910000000  0.5038020000000 1.0
C      1  0.4174180000000  0.5567340000000  0.4941390000000 1.0
C      1  0.4691010000000  0.4040360000000  0.5331960000000 1.0
C      1  0.5625870000000  0.5226940000000  0.4811660000000 1.0
C      1  0.4199130000000  0.4648220000000  0.5211500000000 1.0
C      1  0.4904710000000  0.3885580000000  0.5355660000000 1.0
C      1  0.4338100000000  0.4426620000000  0.5254120000000 1.0
C      1  0.4446720000000  0.6386140000000  0.5051390000000 1.0
C      1  0.5975280000000  0.4918890000000  0.4759820000000 1.0
C      1  0.4096290000000  0.6211290000000  0.4269730000000 1.0
C      1  0.3407280000000  0.5148800000000  0.5259600000000 1.0
C      1  0.5759310000000  0.4791350000000  0.4904810000000 1.0
C      1  0.4329090000000  0.6042250000000  0.4726580000000 1.0
C      1  0.5532000000000  0.5959790000000  0.4572090000000 1.0
C      1  0.4259230000000  0.5796610000000  0.4839550000000 1.0
C      1  0.5753390000000  0.6076080000000  0.4426390000000 1.0
C      1  0.4501930000000  0.4222590000000  0.5296170000000 1.0
C      1  0.6280650000000  0.5365140000000  0.4464460000000 1.0
C      1  0.5682290000000  0.4292300000000  0.5088830000000 1.0
C      1  0.5276720000000  0.2512840000000  0.5815960000000 1.0
C      1  0.5228690000000  0.3004290000000  0.5635410000000 1.0
C      1  0.5180670000000  0.3500340000000  0.5455440000000 1.0
C      1  0.5252900000000  0.2756480000000  0.5726300000000 1.0
C      1  0.5380700000000  0.3903180000000  0.5275950000000 1.0
C      1  0.5043480000000  0.6145510000000  0.4703440000000 1.0
END
