TITL C-627108-131-1195 0.0851955449810221 125000 -865.376780844775 0 0 143 (C1) n - 1
REM
REM in /home/nfs/bkarasulu/CARBON/AIRSS/Generating-Clusters/LCBOP/Only-C1/SD-CG/FIRE-CG
REM
REM
REM
REM
REM
REM ./C.cell (11c1c37f851c82e70ff6c80c92926a4b)
REM AIRSS Version 0.9.1 bugfix July 2018 build 013d7b7c2542+ Fri, 06 Jul 2018 19:26:36 +0100
REM compiler GCC version 9.2.1 20190827 (Red Hat 9.2.1-1)
REM options -cpp -mtune=generic -march=x86-64 -g -O0 -fpre-include=/usr/include/finclude/math-vector-fortran.h
REM seed -510388139 748902888 730718681 -223818273 -2021193385 1553281076 -2060428384 -1456141356 -900102644 1457988024 1678279800 1970211033 1820395941 119120093 994305196 -383054675 852125351 -1920274568 -492557542 -1678446741 1730218731 -274039280 602898850 1828619847 -2121328156 148463600 554437148 2056077628 -129699833 258104066 402059140 -444503668 -1638469960
REM
CELL 1.54180   50.00000   50.00000   50.00000   90.00000   90.00000   90.00000
LATT -1
SFAC C  
C      1  0.4407230000000  0.3847610000000  0.5044880000000 1.0
C      1  0.5170800000000  0.3568100000000  0.5286200000000 1.0
C      1  0.5930240000000  0.4241540000000  0.5079870000000 1.0
C      1  0.5966830000000  0.6040570000000  0.5741230000000 1.0
C      1  0.5736790000000  0.5053160000000  0.4264740000000 1.0
C      1  0.4383350000000  0.4206070000000  0.4690250000000 1.0
C      1  0.4937470000000  0.5862340000000  0.5106450000000 1.0
C      1  0.4644170000000  0.5436680000000  0.4128580000000 1.0
C      1  0.5334080000000  0.5988660000000  0.5682710000000 1.0
C      1  0.5845770000000  0.5618200000000  0.4508130000000 1.0
C      1  0.5242690000000  0.3842460000000  0.4857680000000 1.0
C      1  0.6109750000000  0.6226380000000  0.5855060000000 1.0
C      1  0.4892090000000  0.4719930000000  0.4702500000000 1.0
C      1  0.3911220000000  0.4914630000000  0.4620180000000 1.0
C      1  0.4823630000000  0.4599180000000  0.5348080000000 1.0
C      1  0.5298560000000  0.3702280000000  0.5093510000000 1.0
C      1  0.4471350000000  0.4971460000000  0.4242500000000 1.0
C      1  0.4122440000000  0.5068280000000  0.5217980000000 1.0
C      1  0.5474470000000  0.5780820000000  0.5044590000000 1.0
C      1  0.6179860000000  0.4274130000000  0.5201310000000 1.0
C      1  0.4572140000000  0.5556830000000  0.5211830000000 1.0
C      1  0.4045000000000  0.4425400000000  0.5018500000000 1.0
C      1  0.4846870000000  0.6073020000000  0.5768650000000 1.0
C      1  0.4153710000000  0.5517400000000  0.4243970000000 1.0
C      1  0.4348110000000  0.4467720000000  0.6333510000000 1.0
C      1  0.4462850000000  0.5351880000000  0.4545390000000 1.0
C      1  0.6042720000000  0.5363030000000  0.5624020000000 1.0
C      1  0.3904900000000  0.4951340000000  0.5606180000000 1.0
C      1  0.6368620000000  0.4671760000000  0.5472830000000 1.0
C      1  0.5442740000000  0.5161900000000  0.5866050000000 1.0
C      1  0.4134850000000  0.4810370000000  0.4726630000000 1.0
C      1  0.5662360000000  0.4909580000000  0.4024670000000 1.0
C      1  0.4895990000000  0.5385900000000  0.4767610000000 1.0
C      1  0.6315890000000  0.4914990000000  0.5566250000000 1.0
C      1  0.3987140000000  0.5176290000000  0.5736130000000 1.0
C      1  0.5978920000000  0.5567970000000  0.4733030000000 1.0
C      1  0.4535710000000  0.5508960000000  0.5494090000000 1.0
C      1  0.5221430000000  0.5213980000000  0.5375160000000 1.0
C      1  0.4440810000000  0.5539860000000  0.4311880000000 1.0
C      1  0.5169530000000  0.5394230000000  0.4838550000000 1.0
C      1  0.5515880000000  0.4560250000000  0.4780450000000 1.0
C      1  0.4916710000000  0.5503800000000  0.4193820000000 1.0
C      1  0.4409830000000  0.4605600000000  0.6115800000000 1.0
C      1  0.5605710000000  0.5777180000000  0.4125910000000 1.0
C      1  0.4929410000000  0.3497070000000  0.5375430000000 1.0
C      1  0.4767670000000  0.6329760000000  0.5825350000000 1.0
C      1  0.4286290000000  0.4329830000000  0.6551280000000 1.0
C      1  0.5205640000000  0.4778900000000  0.3899790000000 1.0
C      1  0.5444430000000  0.4280260000000  0.4656360000000 1.0
C      1  0.5016160000000  0.4270030000000  0.4898770000000 1.0
C      1  0.3582140000000  0.5175490000000  0.4367800000000 1.0
C      1  0.5286990000000  0.5144720000000  0.4893430000000 1.0
C      1  0.3726910000000  0.4241220000000  0.4395770000000 1.0
C      1  0.5304310000000  0.4962260000000  0.4681340000000 1.0
C      1  0.5091120000000  0.5278310000000  0.4192560000000 1.0
C      1  0.5893630000000  0.5582290000000  0.5609300000000 1.0
C      1  0.4500560000000  0.5334330000000  0.5041640000000 1.0
C      1  0.5659850000000  0.4352660000000  0.4143480000000 1.0
C      1  0.5026150000000  0.4643950000000  0.5176000000000 1.0
C      1  0.6063220000000  0.4102310000000  0.4249750000000 1.0
C      1  0.5972280000000  0.4965670000000  0.4692050000000 1.0
C      1  0.4871530000000  0.5966800000000  0.4845300000000 1.0
C      1  0.3838730000000  0.5119050000000  0.4437460000000 1.0
C      1  0.4569540000000  0.4617100000000  0.5259260000000 1.0
C      1  0.4240330000000  0.5966650000000  0.5964210000000 1.0
C      1  0.5678840000000  0.5569030000000  0.4288290000000 1.0
C      1  0.4976350000000  0.5369300000000  0.5363710000000 1.0
C      1  0.5061050000000  0.4897070000000  0.4559630000000 1.0
C      1  0.5067770000000  0.6033810000000  0.5589680000000 1.0
C      1  0.5832130000000  0.5002190000000  0.5150690000000 1.0
C      1  0.5549600000000  0.5979650000000  0.5227620000000 1.0
C      1  0.4703860000000  0.6192410000000  0.4839950000000 1.0
C      1  0.6329290000000  0.4441920000000  0.5344740000000 1.0
C      1  0.4316050000000  0.5128780000000  0.4427680000000 1.0
C      1  0.5724230000000  0.4172510000000  0.4596560000000 1.0
C      1  0.4356180000000  0.5574680000000  0.5698940000000 1.0
C      1  0.4403390000000  0.4774560000000  0.4809700000000 1.0
C      1  0.5052560000000  0.5337940000000  0.6404520000000 1.0
C      1  0.5005200000000  0.4219900000000  0.4338050000000 1.0
C      1  0.4473220000000  0.4810390000000  0.5078500000000 1.0
C      1  0.4225490000000  0.4194210000000  0.6765470000000 1.0
C      1  0.4951980000000  0.5863430000000  0.4593180000000 1.0
C      1  0.4469640000000  0.3650920000000  0.5214250000000 1.0
C      1  0.5394970000000  0.4983310000000  0.3937330000000 1.0
C      1  0.4616680000000  0.4735090000000  0.4631300000000 1.0
C      1  0.5384460000000  0.6011530000000  0.5957630000000 1.0
C      1  0.5887550000000  0.4128860000000  0.4824460000000 1.0
C      1  0.4789370000000  0.4059220000000  0.4431230000000 1.0
C      1  0.4420040000000  0.5081900000000  0.5195980000000 1.0
C      1  0.4573210000000  0.5062670000000  0.5471280000000 1.0
C      1  0.5575430000000  0.4879360000000  0.5167220000000 1.0
C      1  0.4710110000000  0.5854370000000  0.5892780000000 1.0
C      1  0.4957240000000  0.5508810000000  0.6232260000000 1.0
C      1  0.5588960000000  0.5307750000000  0.4231590000000 1.0
C      1  0.4544610000000  0.6398690000000  0.4841430000000 1.0
C      1  0.4429810000000  0.5802820000000  0.5854350000000 1.0
C      1  0.5017990000000  0.6033890000000  0.5313610000000 1.0
C      1  0.5346490000000  0.5238700000000  0.4079570000000 1.0
C      1  0.5002610000000  0.4553400000000  0.4909210000000 1.0
C      1  0.4140500000000  0.5397800000000  0.5755360000000 1.0
C      1  0.5570480000000  0.4605090000000  0.5063930000000 1.0
C      1  0.4735850000000  0.5292610000000  0.5524840000000 1.0
C      1  0.5717500000000  0.4397570000000  0.5184310000000 1.0
C      1  0.4614970000000  0.5348730000000  0.4779480000000 1.0
C      1  0.4064550000000  0.5254600000000  0.4337520000000 1.0
C      1  0.5822830000000  0.4206810000000  0.4327460000000 1.0
C      1  0.5152760000000  0.4539290000000  0.4037380000000 1.0
C      1  0.5386380000000  0.4409370000000  0.4166230000000 1.0
C      1  0.5345120000000  0.5199190000000  0.5627340000000 1.0
C      1  0.5526730000000  0.4799850000000  0.4628540000000 1.0
C      1  0.3969780000000  0.4607350000000  0.5209120000000 1.0
C      1  0.5331970000000  0.5616610000000  0.4890950000000 1.0
C      1  0.4779490000000  0.4135390000000  0.4960210000000 1.0
C      1  0.4624530000000  0.4463300000000  0.4253550000000 1.0
C      1  0.4859050000000  0.3803970000000  0.4522290000000 1.0
C      1  0.3971350000000  0.4862130000000  0.5343930000000 1.0
C      1  0.6040830000000  0.5381050000000  0.4914050000000 1.0
C      1  0.4665920000000  0.3524050000000  0.5342980000000 1.0
C      1  0.4557590000000  0.4722600000000  0.4349380000000 1.0
C      1  0.4118470000000  0.4303070000000  0.4764180000000 1.0
C      1  0.5275890000000  0.4279630000000  0.4400370000000 1.0
C      1  0.4591050000000  0.5156600000000  0.4053750000000 1.0
C      1  0.5069290000000  0.3720620000000  0.4668760000000 1.0
C      1  0.5982900000000  0.5107580000000  0.4937180000000 1.0
C      1  0.5622120000000  0.6227630000000  0.5135870000000 1.0
C      1  0.4999100000000  0.5054390000000  0.4339450000000 1.0
C      1  0.4546980000000  0.4230540000000  0.4442370000000 1.0
C      1  0.3912660000000  0.4264420000000  0.4577060000000 1.0
C      1  0.4512520000000  0.4886670000000  0.5678770000000 1.0
C      1  0.5352620000000  0.5068440000000  0.5159030000000 1.0
C      1  0.5759740000000  0.4919790000000  0.4513600000000 1.0
C      1  0.6198280000000  0.5147800000000  0.5617090000000 1.0
C      1  0.4851860000000  0.5684910000000  0.6064780000000 1.0
C      1  0.4468810000000  0.4744510000000  0.5898030000000 1.0
C      1  0.4003380000000  0.5705660000000  0.4118720000000 1.0
C      1  0.5434590000000  0.6041160000000  0.6211670000000 1.0
C      1  0.4902210000000  0.4429440000000  0.4151480000000 1.0
C      1  0.5803850000000  0.5846820000000  0.5621730000000 1.0
C      1  0.5258130000000  0.4127710000000  0.4840720000000 1.0
C      1  0.4866750000000  0.5603120000000  0.5198170000000 1.0
C      1  0.4966300000000  0.5727640000000  0.4361250000000 1.0
C      1  0.5554190000000  0.5928180000000  0.5508460000000 1.0
C      1  0.4515640000000  0.4062870000000  0.4902610000000 1.0
END
