TITL C-627112-676-228 -4851.05172991537 125000 -848.095683076044 0 0 141 (C1) n - 1
REM
REM in /home/nfs/bkarasulu/CARBON/AIRSS/Generating-Clusters/LCBOP/Only-C1/SD-CG/FIRE-CG
REM
REM
REM
REM
REM
REM ./C.cell (11c1c37f851c82e70ff6c80c92926a4b)
REM AIRSS Version 0.9.1 bugfix July 2018 build 013d7b7c2542+ Fri, 06 Jul 2018 19:26:36 +0100
REM compiler GCC version 9.2.1 20190827 (Red Hat 9.2.1-1)
REM options -cpp -mtune=generic -march=x86-64 -g -O0 -fpre-include=/usr/include/finclude/math-vector-fortran.h
REM seed -2083072698 274355442 888520883 1979152119 1696465103 -1962911616 -1739081496 1026369080 -1111928375 -1089137936 984373243 -1475388034 -1925086035 -1330124169 1362252267 -403132802 -1747864566 -1031768909 398584166 2039620591 1375559893 1771114632 1169588497 250800703 -1445767891 273998577 1948162489 -1267848138 119754237 -539876066 -351183114 -1000184144 1106722737
REM
CELL 1.54180   50.00000   50.00000   50.00000   90.00000   90.00000   90.00000
LATT -1
SFAC C  
C      1  0.4838690000000  0.4520090000000  0.5819560000000 1.0
C      1  0.4007250000000  0.5323100000000  0.5426620000000 1.0
C      1  0.4799140000000  0.5623930000000  0.4181850000000 1.0
C      1  0.4557090000000  0.5528670000000  0.4309090000000 1.0
C      1  0.4789690000000  0.5351870000000  0.4730110000000 1.0
C      1  0.4103310000000  0.4900870000000  0.5163080000000 1.0
C      1  0.5901140000000  0.4594450000000  0.4488940000000 1.0
C      1  0.4633270000000  0.4541450000000  0.5402180000000 1.0
C      1  0.5453580000000  0.4950120000000  0.4601850000000 1.0
C      1  0.3914440000000  0.5074560000000  0.5302020000000 1.0
C      1  0.4902500000000  0.5186560000000  0.3997270000000 1.0
C      1  0.4035680000000  0.4620530000000  0.5110210000000 1.0
C      1  0.5566630000000  0.5318520000000  0.5177960000000 1.0
C      1  0.5263970000000  0.5066360000000  0.6178170000000 1.0
C      1  0.5347620000000  0.5921420000000  0.5339430000000 1.0
C      1  0.4573870000000  0.4828900000000  0.5352880000000 1.0
C      1  0.4992410000000  0.5454340000000  0.4041620000000 1.0
C      1  0.3981390000000  0.4893520000000  0.5754720000000 1.0
C      1  0.4473300000000  0.5008540000000  0.5559960000000 1.0
C      1  0.5181840000000  0.4291030000000  0.4500400000000 1.0
C      1  0.4630680000000  0.5080970000000  0.4020080000000 1.0
C      1  0.5760610000000  0.5569660000000  0.4807270000000 1.0
C      1  0.5390670000000  0.4028870000000  0.4867920000000 1.0
C      1  0.5887580000000  0.5020130000000  0.4100710000000 1.0
C      1  0.5090850000000  0.4727660000000  0.3973760000000 1.0
C      1  0.3638910000000  0.5029540000000  0.5280640000000 1.0
C      1  0.5051530000000  0.4965590000000  0.4378170000000 1.0
C      1  0.5115810000000  0.3943470000000  0.4867750000000 1.0
C      1  0.5926190000000  0.5617700000000  0.5053260000000 1.0
C      1  0.6036100000000  0.4596070000000  0.5227150000000 1.0
C      1  0.4833480000000  0.4974170000000  0.5311220000000 1.0
C      1  0.4467480000000  0.5196110000000  0.4230540000000 1.0
C      1  0.6132340000000  0.5065100000000  0.5119860000000 1.0
C      1  0.4841460000000  0.4356240000000  0.4123890000000 1.0
C      1  0.5304330000000  0.4605140000000  0.5983910000000 1.0
C      1  0.5831250000000  0.5290990000000  0.4759860000000 1.0
C      1  0.6095260000000  0.5368970000000  0.5129600000000 1.0
C      1  0.6158060000000  0.4894630000000  0.4862560000000 1.0
C      1  0.6028970000000  0.5251730000000  0.4569190000000 1.0
C      1  0.5562900000000  0.4774020000000  0.4791390000000 1.0
C      1  0.4885720000000  0.4519320000000  0.5538840000000 1.0
C      1  0.5080370000000  0.5760660000000  0.4548000000000 1.0
C      1  0.5326330000000  0.5430300000000  0.5263380000000 1.0
C      1  0.4140330000000  0.4526310000000  0.4849730000000 1.0
C      1  0.5023380000000  0.5510520000000  0.4692150000000 1.0
C      1  0.5581130000000  0.4398550000000  0.5611860000000 1.0
C      1  0.6025620000000  0.4644950000000  0.4752850000000 1.0
C      1  0.5837110000000  0.4843770000000  0.4317750000000 1.0
C      1  0.5713630000000  0.5139820000000  0.5659420000000 1.0
C      1  0.5188380000000  0.4975660000000  0.5017560000000 1.0
C      1  0.5717990000000  0.5187770000000  0.3969370000000 1.0
C      1  0.5542640000000  0.4850170000000  0.4352460000000 1.0
C      1  0.4657390000000  0.5798060000000  0.5487940000000 1.0
C      1  0.4017310000000  0.4503020000000  0.5376400000000 1.0
C      1  0.5269580000000  0.4780430000000  0.5223850000000 1.0
C      1  0.4949690000000  0.5808240000000  0.5598110000000 1.0
C      1  0.5300370000000  0.5119850000000  0.4779720000000 1.0
C      1  0.4821640000000  0.5562960000000  0.5980270000000 1.0
C      1  0.6039770000000  0.4875010000000  0.5332150000000 1.0
C      1  0.4723090000000  0.3819600000000  0.5362000000000 1.0
C      1  0.4520240000000  0.4849210000000  0.6075670000000 1.0
C      1  0.4407800000000  0.5622970000000  0.5702660000000 1.0
C      1  0.4919810000000  0.4888530000000  0.4606110000000 1.0
C      1  0.4620920000000  0.4795960000000  0.3955670000000 1.0
C      1  0.3384950000000  0.4989000000000  0.5238650000000 1.0
C      1  0.4682860000000  0.4649140000000  0.5999020000000 1.0
C      1  0.4865900000000  0.3982300000000  0.4759570000000 1.0
C      1  0.4326640000000  0.4993380000000  0.4400210000000 1.0
C      1  0.5921930000000  0.4490790000000  0.4982430000000 1.0
C      1  0.5286210000000  0.5332560000000  0.6133310000000 1.0
C      1  0.5321670000000  0.4574060000000  0.4021560000000 1.0
C      1  0.4780990000000  0.5070080000000  0.4802890000000 1.0
C      1  0.5650020000000  0.4393460000000  0.4425200000000 1.0
C      1  0.3948040000000  0.4671870000000  0.5600270000000 1.0
C      1  0.4278260000000  0.5329750000000  0.4766980000000 1.0
C      1  0.5054950000000  0.4962810000000  0.5765070000000 1.0
C      1  0.5047180000000  0.5616080000000  0.5807810000000 1.0
C      1  0.4525810000000  0.5716180000000  0.4616060000000 1.0
C      1  0.5853410000000  0.4900200000000  0.5559730000000 1.0
C      1  0.4735100000000  0.4134700000000  0.4550390000000 1.0
C      1  0.4417330000000  0.4427620000000  0.4802680000000 1.0
C      1  0.5652420000000  0.4379250000000  0.4967180000000 1.0
C      1  0.5485330000000  0.5322710000000  0.3942690000000 1.0
C      1  0.5672250000000  0.4893290000000  0.5017700000000 1.0
C      1  0.4486170000000  0.4285270000000  0.4554560000000 1.0
C      1  0.5073900000000  0.4982540000000  0.4100240000000 1.0
C      1  0.4328680000000  0.5068720000000  0.4675870000000 1.0
C      1  0.5202440000000  0.4867690000000  0.5987620000000 1.0
C      1  0.5140910000000  0.6010900000000  0.5514440000000 1.0
C      1  0.4556840000000  0.5593740000000  0.5935660000000 1.0
C      1  0.5301430000000  0.5462960000000  0.5875290000000 1.0
C      1  0.4614570000000  0.4055850000000  0.5343200000000 1.0
C      1  0.5121160000000  0.6269770000000  0.5599030000000 1.0
C      1  0.5367270000000  0.5762380000000  0.4487990000000 1.0
C      1  0.4572700000000  0.5557320000000  0.5082360000000 1.0
C      1  0.4919190000000  0.5032240000000  0.5056320000000 1.0
C      1  0.5403040000000  0.5706090000000  0.4212440000000 1.0
C      1  0.4583940000000  0.5937680000000  0.4831570000000 1.0
C      1  0.4623330000000  0.5826100000000  0.5134140000000 1.0
C      1  0.5435370000000  0.4529520000000  0.4835670000000 1.0
C      1  0.4996020000000  0.5082290000000  0.5519620000000 1.0
C      1  0.5403600000000  0.4403580000000  0.5834240000000 1.0
C      1  0.5479920000000  0.4582050000000  0.4251260000000 1.0
C      1  0.5285570000000  0.5399150000000  0.4748880000000 1.0
C      1  0.5534440000000  0.5340040000000  0.5731860000000 1.0
C      1  0.4516050000000  0.4916040000000  0.4854620000000 1.0
C      1  0.4232320000000  0.4707780000000  0.4397930000000 1.0
C      1  0.5538600000000  0.4153090000000  0.5099070000000 1.0
C      1  0.4484510000000  0.4300000000000  0.5382310000000 1.0
C      1  0.4833080000000  0.4600080000000  0.3979550000000 1.0
C      1  0.5628490000000  0.5961810000000  0.5328640000000 1.0
C      1  0.5752730000000  0.4632520000000  0.5624160000000 1.0
C      1  0.4141300000000  0.5452800000000  0.5215540000000 1.0
C      1  0.3762770000000  0.4691370000000  0.4567960000000 1.0
C      1  0.4337900000000  0.5043900000000  0.6035310000000 1.0
C      1  0.5270050000000  0.5693840000000  0.5194670000000 1.0
C      1  0.5714460000000  0.5164550000000  0.4992550000000 1.0
C      1  0.4909830000000  0.4626320000000  0.4729840000000 1.0
C      1  0.5287960000000  0.5503560000000  0.4043770000000 1.0
C      1  0.4138730000000  0.5370570000000  0.5686470000000 1.0
C      1  0.5112560000000  0.4598750000000  0.5381380000000 1.0
C      1  0.5841050000000  0.5829030000000  0.5224290000000 1.0
C      1  0.4207380000000  0.4302590000000  0.5422550000000 1.0
C      1  0.5457580000000  0.4184070000000  0.4552420000000 1.0
C      1  0.4628410000000  0.4623500000000  0.4830620000000 1.0
C      1  0.4029690000000  0.4645500000000  0.4605160000000 1.0
C      1  0.4384630000000  0.4465580000000  0.4344040000000 1.0
C      1  0.4531450000000  0.5481750000000  0.4799330000000 1.0
C      1  0.4133340000000  0.5122280000000  0.5853200000000 1.0
C      1  0.4934010000000  0.4237660000000  0.4364670000000 1.0
C      1  0.4504530000000  0.5266070000000  0.5480120000000 1.0
C      1  0.4075950000000  0.5423070000000  0.4941450000000 1.0
C      1  0.5151790000000  0.5296240000000  0.5431730000000 1.0
C      1  0.4389560000000  0.4905680000000  0.5126220000000 1.0
C      1  0.5546290000000  0.4796570000000  0.5249480000000 1.0
C      1  0.5161610000000  0.4485150000000  0.4721840000000 1.0
C      1  0.5545240000000  0.4207370000000  0.5388380000000 1.0
C      1  0.5499020000000  0.5604130000000  0.4693610000000 1.0
C      1  0.6248290000000  0.5291400000000  0.4433010000000 1.0
C      1  0.4915380000000  0.5834680000000  0.4332410000000 1.0
C      1  0.4420210000000  0.5428390000000  0.5269480000000 1.0
END
