TITL C-627107-135-1788 389.262771462206 125000 -1027.00868031428 0 0 167 (C1) n - 1
REM
REM in /home/nfs/bkarasulu/CARBON/AIRSS/Generating-Clusters/LCBOP/Only-C1/SD-CG/FIRE-CG
REM
REM
REM
REM
REM
REM ./C.cell (11c1c37f851c82e70ff6c80c92926a4b)
REM AIRSS Version 0.9.1 bugfix July 2018 build 013d7b7c2542+ Fri, 06 Jul 2018 19:26:36 +0100
REM compiler GCC version 9.2.1 20190827 (Red Hat 9.2.1-1)
REM options -cpp -mtune=generic -march=x86-64 -g -O0 -fpre-include=/usr/include/finclude/math-vector-fortran.h
REM seed -306951261 1430405705 239957746 1456042535 237468553 284091748 1296350521 455194881 1282287088 1116961768 1272251723 -991569003 -1264225983 -692514701 -1480670688 -359557513 -203364972 510185590 1235903958 -1130631815 -1158182098 -774584340 -327901 -1282921105 768160227 2068922237 -396408920 -1056591981 -687732695 -2123766790 887095662 -743040603 1083785543
REM
CELL 1.54180   50.00000   50.00000   50.00000   90.00000   90.00000   90.00000
LATT -1
SFAC C  
C      1  0.5245530000000  0.5274610000000  0.5572490000000 1.0
C      1  0.4181150000000  0.4207470000000  0.5683730000000 1.0
C      1  0.4143530000000  0.4668140000000  0.5833940000000 1.0
C      1  0.5644760000000  0.4808580000000  0.4863380000000 1.0
C      1  0.4993240000000  0.4209930000000  0.4661400000000 1.0
C      1  0.4775970000000  0.4620210000000  0.6302060000000 1.0
C      1  0.5981110000000  0.4922610000000  0.5610690000000 1.0
C      1  0.6020830000000  0.4753740000000  0.5364390000000 1.0
C      1  0.4969940000000  0.4362570000000  0.4132080000000 1.0
C      1  0.5484200000000  0.6041300000000  0.5304410000000 1.0
C      1  0.4981950000000  0.4564990000000  0.4991340000000 1.0
C      1  0.4282630000000  0.4800710000000  0.4197840000000 1.0
C      1  0.4478350000000  0.4931400000000  0.4931820000000 1.0
C      1  0.4045830000000  0.4663530000000  0.4557090000000 1.0
C      1  0.5151230000000  0.5536330000000  0.5511050000000 1.0
C      1  0.5062970000000  0.5525740000000  0.4274590000000 1.0
C      1  0.5355800000000  0.5239880000000  0.5849820000000 1.0
C      1  0.4970070000000  0.4981530000000  0.4739920000000 1.0
C      1  0.3786370000000  0.5057620000000  0.4533110000000 1.0
C      1  0.4701180000000  0.5794610000000  0.5525700000000 1.0
C      1  0.4489760000000  0.5615010000000  0.5931540000000 1.0
C      1  0.5068830000000  0.4924850000000  0.6053500000000 1.0
C      1  0.5739200000000  0.4826560000000  0.5743620000000 1.0
C      1  0.4303430000000  0.4430850000000  0.5801070000000 1.0
C      1  0.4597300000000  0.4840150000000  0.5706050000000 1.0
C      1  0.6056510000000  0.4969100000000  0.4445610000000 1.0
C      1  0.4690170000000  0.4773000000000  0.3982590000000 1.0
C      1  0.4562610000000  0.5598150000000  0.5068330000000 1.0
C      1  0.5350920000000  0.4492410000000  0.5920930000000 1.0
C      1  0.5205840000000  0.4236910000000  0.3992050000000 1.0
C      1  0.4464910000000  0.4622190000000  0.4083680000000 1.0
C      1  0.4955170000000  0.4644780000000  0.3994850000000 1.0
C      1  0.4582820000000  0.4404330000000  0.5879120000000 1.0
C      1  0.6128580000000  0.5163220000000  0.5557830000000 1.0
C      1  0.5419430000000  0.4290730000000  0.4974890000000 1.0
C      1  0.5135690000000  0.4020360000000  0.5437850000000 1.0
C      1  0.6075650000000  0.5398710000000  0.5697690000000 1.0
C      1  0.5166420000000  0.4978980000000  0.4268720000000 1.0
C      1  0.5502420000000  0.6117380000000  0.5047550000000 1.0
C      1  0.5032480000000  0.5259460000000  0.4741930000000 1.0
C      1  0.4280340000000  0.4817260000000  0.4478420000000 1.0
C      1  0.4454810000000  0.5362890000000  0.5504250000000 1.0
C      1  0.4343620000000  0.5407300000000  0.5772190000000 1.0
C      1  0.5505610000000  0.4971180000000  0.5859380000000 1.0
C      1  0.5113950000000  0.4797070000000  0.5638990000000 1.0
C      1  0.5150710000000  0.5707940000000  0.5930330000000 1.0
C      1  0.5547040000000  0.5417990000000  0.4070060000000 1.0
C      1  0.4762890000000  0.4939330000000  0.4549690000000 1.0
C      1  0.4341500000000  0.5760860000000  0.4578730000000 1.0
C      1  0.6016560000000  0.5566250000000  0.5074140000000 1.0
C      1  0.4919910000000  0.5406570000000  0.4512760000000 1.0
C      1  0.4291250000000  0.5972800000000  0.5218910000000 1.0
C      1  0.5894480000000  0.4501900000000  0.5394360000000 1.0
C      1  0.4932260000000  0.3745380000000  0.5067750000000 1.0
C      1  0.5832930000000  0.4315200000000  0.5185500000000 1.0
C      1  0.4627050000000  0.5369970000000  0.4474080000000 1.0
C      1  0.4050800000000  0.5197250000000  0.4946910000000 1.0
C      1  0.4601370000000  0.5123220000000  0.5114410000000 1.0
C      1  0.5542030000000  0.4869210000000  0.4608640000000 1.0
C      1  0.4832670000000  0.5351330000000  0.6183230000000 1.0
C      1  0.5002510000000  0.4391000000000  0.4440080000000 1.0
C      1  0.4366990000000  0.4451690000000  0.4972760000000 1.0
C      1  0.3973270000000  0.5266670000000  0.4470120000000 1.0
C      1  0.4503270000000  0.4902400000000  0.4642250000000 1.0
C      1  0.5159170000000  0.5421640000000  0.6034570000000 1.0
C      1  0.4582380000000  0.5908600000000  0.4687970000000 1.0
C      1  0.4688400000000  0.5856320000000  0.4237930000000 1.0
C      1  0.5706190000000  0.5637070000000  0.5439390000000 1.0
C      1  0.5297800000000  0.3916660000000  0.4522950000000 1.0
C      1  0.5654240000000  0.5248370000000  0.5088630000000 1.0
C      1  0.4014800000000  0.4905810000000  0.4942170000000 1.0
C      1  0.5471410000000  0.6092910000000  0.4781830000000 1.0
C      1  0.4516110000000  0.5940080000000  0.5365910000000 1.0
C      1  0.4871720000000  0.4875650000000  0.6242020000000 1.0
C      1  0.5211120000000  0.4570000000000  0.4536460000000 1.0
C      1  0.4765400000000  0.4594960000000  0.5206370000000 1.0
C      1  0.4123970000000  0.5866020000000  0.4757400000000 1.0
C      1  0.5039020000000  0.5956740000000  0.4629740000000 1.0
C      1  0.5726810000000  0.5186790000000  0.4137030000000 1.0
C      1  0.5959740000000  0.4697870000000  0.4430340000000 1.0
C      1  0.4274960000000  0.5151590000000  0.5893350000000 1.0
C      1  0.5019770000000  0.4540290000000  0.5563690000000 1.0
C      1  0.5500850000000  0.4603560000000  0.4999110000000 1.0
C      1  0.4471720000000  0.5370810000000  0.5209490000000 1.0
C      1  0.5375850000000  0.5198210000000  0.5082540000000 1.0
C      1  0.5161380000000  0.5639310000000  0.4995270000000 1.0
C      1  0.4701650000000  0.5793040000000  0.4921850000000 1.0
C      1  0.5624600000000  0.4184420000000  0.4778560000000 1.0
C      1  0.5980840000000  0.4504850000000  0.4658420000000 1.0
C      1  0.4342150000000  0.4291880000000  0.4475200000000 1.0
C      1  0.4324960000000  0.5485360000000  0.4149450000000 1.0
C      1  0.4406310000000  0.5753390000000  0.4265240000000 1.0
C      1  0.4649890000000  0.4435860000000  0.6152350000000 1.0
C      1  0.5109120000000  0.4306630000000  0.4916260000000 1.0
C      1  0.4811470000000  0.5068620000000  0.5346070000000 1.0
C      1  0.4688840000000  0.5089740000000  0.6181330000000 1.0
C      1  0.5888790000000  0.5583820000000  0.5648030000000 1.0
C      1  0.5189450000000  0.4819400000000  0.4027120000000 1.0
C      1  0.5368960000000  0.4227230000000  0.5463320000000 1.0
C      1  0.5448410000000  0.4413920000000  0.4439440000000 1.0
C      1  0.3936170000000  0.5380920000000  0.5125860000000 1.0
C      1  0.4096600000000  0.5859270000000  0.5043780000000 1.0
C      1  0.4676640000000  0.4114150000000  0.5160880000000 1.0
C      1  0.4893680000000  0.5828990000000  0.5970090000000 1.0
C      1  0.4661940000000  0.5823860000000  0.5804010000000 1.0
C      1  0.5026090000000  0.3927890000000  0.4623870000000 1.0
C      1  0.4983910000000  0.5825270000000  0.4887990000000 1.0
C      1  0.4078640000000  0.4003170000000  0.5558560000000 1.0
C      1  0.4152540000000  0.5312390000000  0.4696820000000 1.0
C      1  0.4542980000000  0.5289640000000  0.4189900000000 1.0
C      1  0.4072700000000  0.4393340000000  0.4488070000000 1.0
C      1  0.4088690000000  0.4935960000000  0.5853110000000 1.0
C      1  0.4887240000000  0.5692530000000  0.4117740000000 1.0
C      1  0.5772270000000  0.4675260000000  0.4200470000000 1.0
C      1  0.5288810000000  0.4964440000000  0.5220180000000 1.0
C      1  0.4907300000000  0.5145120000000  0.5810160000000 1.0
C      1  0.4749730000000  0.5289630000000  0.5560170000000 1.0
C      1  0.5804040000000  0.5007930000000  0.5008540000000 1.0
C      1  0.5588130000000  0.4458780000000  0.4197100000000 1.0
C      1  0.5436380000000  0.4857450000000  0.3898310000000 1.0
C      1  0.4782350000000  0.5978310000000  0.4486390000000 1.0
C      1  0.5114200000000  0.5028580000000  0.5441810000000 1.0
C      1  0.4262220000000  0.4736970000000  0.4995980000000 1.0
C      1  0.5283800000000  0.5743070000000  0.5662970000000 1.0
C      1  0.4693580000000  0.5052630000000  0.4093570000000 1.0
C      1  0.5428410000000  0.5817060000000  0.4367190000000 1.0
C      1  0.5381510000000  0.5045540000000  0.4457490000000 1.0
C      1  0.3938420000000  0.5648820000000  0.5147470000000 1.0
C      1  0.5350160000000  0.5575620000000  0.4230920000000 1.0
C      1  0.5579950000000  0.5576640000000  0.3550770000000 1.0
C      1  0.4827650000000  0.3825560000000  0.4807360000000 1.0
C      1  0.4806330000000  0.4406610000000  0.5697610000000 1.0
C      1  0.4064180000000  0.5384150000000  0.4225310000000 1.0
C      1  0.4520880000000  0.5007450000000  0.5948640000000 1.0
C      1  0.3870140000000  0.4832990000000  0.4697250000000 1.0
C      1  0.5346200000000  0.4688400000000  0.5217110000000 1.0
C      1  0.4872730000000  0.5559940000000  0.5484050000000 1.0
C      1  0.5317790000000  0.5981690000000  0.4571230000000 1.0
C      1  0.4699540000000  0.4795620000000  0.5426630000000 1.0
C      1  0.6044850000000  0.4947300000000  0.5151430000000 1.0
C      1  0.5675140000000  0.4910720000000  0.4046100000000 1.0
C      1  0.4572080000000  0.4384790000000  0.5177950000000 1.0
C      1  0.5874000000000  0.4323530000000  0.4869850000000 1.0
C      1  0.6198080000000  0.5169660000000  0.5271450000000 1.0
C      1  0.6230990000000  0.5408440000000  0.5126630000000 1.0
C      1  0.4884430000000  0.5010700000000  0.4307020000000 1.0
C      1  0.5467810000000  0.4312790000000  0.3986120000000 1.0
C      1  0.4907390000000  0.3955490000000  0.5270180000000 1.0
C      1  0.4482540000000  0.4359470000000  0.4218780000000 1.0
C      1  0.5265770000000  0.4783910000000  0.5897100000000 1.0
C      1  0.5761400000000  0.5501600000000  0.5185440000000 1.0
C      1  0.4656250000000  0.5562340000000  0.6156830000000 1.0
C      1  0.5194180000000  0.5366480000000  0.4946870000000 1.0
C      1  0.5501380000000  0.5832890000000  0.5494350000000 1.0
C      1  0.5726890000000  0.4535940000000  0.5638410000000 1.0
C      1  0.5093440000000  0.4732160000000  0.4775100000000 1.0
C      1  0.4708110000000  0.4216980000000  0.4121150000000 1.0
C      1  0.5559600000000  0.4195610000000  0.5234520000000 1.0
C      1  0.5568470000000  0.5504150000000  0.3800800000000 1.0
C      1  0.5484740000000  0.4138970000000  0.4538350000000 1.0
C      1  0.5447900000000  0.5300290000000  0.4538590000000 1.0
C      1  0.5217190000000  0.4473570000000  0.5370120000000 1.0
C      1  0.4437360000000  0.4241760000000  0.4750200000000 1.0
C      1  0.4607910000000  0.4026570000000  0.4871860000000 1.0
C      1  0.4392360000000  0.5459360000000  0.4632620000000 1.0
C      1  0.5948230000000  0.5188050000000  0.4320170000000 1.0
C      1  0.5506190000000  0.4362140000000  0.5711610000000 1.0
END
