TITL C-627108-131-2092 -1.97818975974594e-06 125000 -521.0000634593 0 0 89 (C1) n - 1
REM
REM in /home/nfs/bkarasulu/CARBON/AIRSS/Generating-Clusters/LCBOP/Only-C1/SD-CG/FIRE-CG
REM
REM
REM
REM
REM
REM ./C.cell (11c1c37f851c82e70ff6c80c92926a4b)
REM AIRSS Version 0.9.1 bugfix July 2018 build 013d7b7c2542+ Fri, 06 Jul 2018 19:26:36 +0100
REM compiler GCC version 9.2.1 20190827 (Red Hat 9.2.1-1)
REM options -cpp -mtune=generic -march=x86-64 -g -O0 -fpre-include=/usr/include/finclude/math-vector-fortran.h
REM seed -818299373 513728001 -1412595162 1743969890 391792688 -453086620 362505144 553818327 -1603069736 242726564 -842090480 -469735328 -1622775156 -1289940290 1684332358 994448061 -390089814 -1848702319 2127802037 -353724977 60439576 1275187401 -1069746735 2124901977 1174122189 -1120073125 1364749169 1978863806 351523139 -282015770 51098970 -2069426899 289871958
REM
CELL 1.54180   50.00000   50.00000   50.00000   90.00000   90.00000   90.00000
LATT -1
SFAC C  
C      1  0.5320050000000  0.6225980000000  0.5388350000000 1.0
C      1  0.5120340000000  0.5320130000000  0.5173050000000 1.0
C      1  0.5452660000000  0.5458580000000  0.4827740000000 1.0
C      1  0.4586410000000  0.5352520000000  0.5551170000000 1.0
C      1  0.5164840000000  0.4105120000000  0.4996880000000 1.0
C      1  0.4550430000000  0.5164200000000  0.5075440000000 1.0
C      1  0.4252830000000  0.4350920000000  0.5029170000000 1.0
C      1  0.4179170000000  0.5620490000000  0.4390050000000 1.0
C      1  0.5144650000000  0.4742430000000  0.5649190000000 1.0
C      1  0.4947640000000  0.4692760000000  0.5055670000000 1.0
C      1  0.4779080000000  0.4543220000000  0.5245590000000 1.0
C      1  0.4614020000000  0.5664530000000  0.4943060000000 1.0
C      1  0.4802410000000  0.4247100000000  0.4599990000000 1.0
C      1  0.5036420000000  0.4222000000000  0.4767320000000 1.0
C      1  0.4050930000000  0.4901990000000  0.5477650000000 1.0
C      1  0.4882010000000  0.4717220000000  0.3824310000000 1.0
C      1  0.4372900000000  0.5224490000000  0.5684050000000 1.0
C      1  0.5590000000000  0.5356360000000  0.5061550000000 1.0
C      1  0.5073230000000  0.4808340000000  0.4024250000000 1.0
C      1  0.3750670000000  0.5734110000000  0.5375000000000 1.0
C      1  0.5195760000000  0.4799490000000  0.5167570000000 1.0
C      1  0.5660990000000  0.4493060000000  0.4687880000000 1.0
C      1  0.4811580000000  0.5016500000000  0.4678060000000 1.0
C      1  0.4340060000000  0.5604360000000  0.4846340000000 1.0
C      1  0.5721160000000  0.4490810000000  0.4404110000000 1.0
C      1  0.5396180000000  0.5285580000000  0.5257770000000 1.0
C      1  0.4672490000000  0.5205410000000  0.5324200000000 1.0
C      1  0.4467950000000  0.4682720000000  0.4509740000000 1.0
C      1  0.5940670000000  0.5377520000000  0.4722450000000 1.0
C      1  0.4900780000000  0.4314470000000  0.5380640000000 1.0
C      1  0.4285280000000  0.4961520000000  0.5623850000000 1.0
C      1  0.4618470000000  0.4467570000000  0.4581770000000 1.0
C      1  0.5358690000000  0.5925760000000  0.5008260000000 1.0
C      1  0.4341770000000  0.5182210000000  0.4499880000000 1.0
C      1  0.5273620000000  0.4655890000000  0.4162010000000 1.0
C      1  0.4937090000000  0.4788230000000  0.4787120000000 1.0
C      1  0.5553800000000  0.4597380000000  0.4191800000000 1.0
C      1  0.4748380000000  0.4031490000000  0.4436240000000 1.0
C      1  0.5321510000000  0.4531860000000  0.5578650000000 1.0
C      1  0.4963840000000  0.5546270000000  0.4594590000000 1.0
C      1  0.5468600000000  0.5599000000000  0.5554790000000 1.0
C      1  0.5591620000000  0.4575260000000  0.4955150000000 1.0
C      1  0.5353080000000  0.5188520000000  0.5782700000000 1.0
C      1  0.4441820000000  0.4936070000000  0.4371040000000 1.0
C      1  0.5779580000000  0.5134210000000  0.5556420000000 1.0
C      1  0.5185480000000  0.4326890000000  0.5429290000000 1.0
C      1  0.4609140000000  0.4943510000000  0.4134440000000 1.0
C      1  0.4291510000000  0.5459530000000  0.4587890000000 1.0
C      1  0.4762770000000  0.5567540000000  0.5629740000000 1.0
C      1  0.5585770000000  0.4598220000000  0.5452700000000 1.0
C      1  0.4121160000000  0.5672790000000  0.5007560000000 1.0
C      1  0.5845310000000  0.5201400000000  0.4523250000000 1.0
C      1  0.4691750000000  0.5212690000000  0.4835630000000 1.0
C      1  0.5136230000000  0.4942250000000  0.5429270000000 1.0
C      1  0.4941350000000  0.5147580000000  0.5320460000000 1.0
C      1  0.5862070000000  0.4981330000000  0.4924410000000 1.0
C      1  0.5405470000000  0.4952230000000  0.4718120000000 1.0
C      1  0.4519830000000  0.4621050000000  0.5343060000000 1.0
C      1  0.5960430000000  0.4376800000000  0.4328460000000 1.0
C      1  0.3931000000000  0.5708680000000  0.5188470000000 1.0
C      1  0.5334070000000  0.5252520000000  0.4666760000000 1.0
C      1  0.5730530000000  0.4856640000000  0.5510950000000 1.0
C      1  0.4944170000000  0.5111850000000  0.4436760000000 1.0
C      1  0.4920550000000  0.5696290000000  0.5421070000000 1.0
C      1  0.4756090000000  0.5754980000000  0.5179930000000 1.0
C      1  0.5340470000000  0.4242600000000  0.5192570000000 1.0
C      1  0.4769060000000  0.5486230000000  0.4786850000000 1.0
C      1  0.4671620000000  0.4716390000000  0.5806190000000 1.0
C      1  0.5302600000000  0.5976180000000  0.5279120000000 1.0
C      1  0.5174430000000  0.4586090000000  0.4417430000000 1.0
C      1  0.5684320000000  0.5407060000000  0.5576690000000 1.0
C      1  0.4897670000000  0.4989050000000  0.4191340000000 1.0
C      1  0.4276130000000  0.4559530000000  0.5203090000000 1.0
C      1  0.5408470000000  0.5735030000000  0.4827570000000 1.0
C      1  0.4487790000000  0.4756370000000  0.5599400000000 1.0
C      1  0.5428620000000  0.4817440000000  0.4995040000000 1.0
C      1  0.5223550000000  0.5746930000000  0.5440790000000 1.0
C      1  0.4782420000000  0.5648070000000  0.5890540000000 1.0
C      1  0.5574100000000  0.4425270000000  0.5195850000000 1.0
C      1  0.4621300000000  0.4791400000000  0.3888260000000 1.0
C      1  0.4053300000000  0.4718870000000  0.5277730000000 1.0
C      1  0.5718130000000  0.4970180000000  0.4654470000000 1.0
C      1  0.5349100000000  0.5137470000000  0.5510930000000 1.0
C      1  0.4981800000000  0.3925110000000  0.5131770000000 1.0
C      1  0.5178730000000  0.4765780000000  0.4625780000000 1.0
C      1  0.5854700000000  0.5270780000000  0.4987480000000 1.0
C      1  0.5115330000000  0.5325890000000  0.4501180000000 1.0
C      1  0.4937000000000  0.4725330000000  0.5833790000000 1.0
C      1  0.4819230000000  0.4048490000000  0.5315400000000 1.0
END
