TITL C-627112-676-31 3.39745208475856e-05 125000 -711.230179859059 0 0 117 (C1) n - 1
REM
REM in /home/nfs/bkarasulu/CARBON/AIRSS/Generating-Clusters/LCBOP/Only-C1/SD-CG/FIRE-CG
REM
REM
REM
REM
REM
REM ./C.cell (11c1c37f851c82e70ff6c80c92926a4b)
REM AIRSS Version 0.9.1 bugfix July 2018 build 013d7b7c2542+ Fri, 06 Jul 2018 19:26:36 +0100
REM compiler GCC version 9.2.1 20190827 (Red Hat 9.2.1-1)
REM options -cpp -mtune=generic -march=x86-64 -g -O0 -fpre-include=/usr/include/finclude/math-vector-fortran.h
REM seed 1861481211 1049090176 654308475 -1706281154 -883509060 128616949 86721060 -787448306 -124081300 788579468 88461029 1887866892 443250536 -1515698770 1738916562 -1092913630 1293092418 -748222891 518955014 325550735 -2018024311 277236147 1053303410 1432926979 -2124940487 -542418705 694860981 -498948460 -2122574246 -1388810322 973323259 1910973322 138162672
REM
CELL 1.54180   50.00000   50.00000   50.00000   90.00000   90.00000   90.00000
LATT -1
SFAC C  
C      1  0.5565520000000  0.4425940000000  0.4354950000000 1.0
C      1  0.5085670000000  0.4883420000000  0.3971930000000 1.0
C      1  0.4639590000000  0.5032200000000  0.5271740000000 1.0
C      1  0.4750310000000  0.4659950000000  0.4279330000000 1.0
C      1  0.5312750000000  0.4786360000000  0.5266150000000 1.0
C      1  0.5609110000000  0.4302120000000  0.4608660000000 1.0
C      1  0.4557840000000  0.4340960000000  0.5374950000000 1.0
C      1  0.4444540000000  0.5434510000000  0.4683930000000 1.0
C      1  0.5827250000000  0.5115820000000  0.4723430000000 1.0
C      1  0.4714540000000  0.5042500000000  0.5943080000000 1.0
C      1  0.4332530000000  0.4922110000000  0.3814550000000 1.0
C      1  0.5279020000000  0.5690160000000  0.5472810000000 1.0
C      1  0.4856440000000  0.4607250000000  0.5833070000000 1.0
C      1  0.4680580000000  0.4202070000000  0.4395070000000 1.0
C      1  0.5980350000000  0.4477440000000  0.6304040000000 1.0
C      1  0.4165400000000  0.5445210000000  0.4725850000000 1.0
C      1  0.4987670000000  0.5313630000000  0.5343500000000 1.0
C      1  0.3744650000000  0.5703650000000  0.3947010000000 1.0
C      1  0.4400720000000  0.4464270000000  0.5553860000000 1.0
C      1  0.5083200000000  0.5384070000000  0.5834170000000 1.0
C      1  0.4852560000000  0.5557270000000  0.5313390000000 1.0
C      1  0.4551370000000  0.4456670000000  0.4341930000000 1.0
C      1  0.5330630000000  0.4517280000000  0.6303400000000 1.0
C      1  0.4631500000000  0.4789360000000  0.5836970000000 1.0
C      1  0.5301280000000  0.5456340000000  0.5658380000000 1.0
C      1  0.5081400000000  0.5519810000000  0.4739870000000 1.0
C      1  0.5334780000000  0.4937370000000  0.4519700000000 1.0
C      1  0.5522870000000  0.4855770000000  0.6585120000000 1.0
C      1  0.5788870000000  0.4430480000000  0.4784260000000 1.0
C      1  0.6001440000000  0.4987960000000  0.4906780000000 1.0
C      1  0.4006640000000  0.4608550000000  0.5072770000000 1.0
C      1  0.5628810000000  0.4324740000000  0.5487420000000 1.0
C      1  0.5791260000000  0.4662220000000  0.6232680000000 1.0
C      1  0.4850990000000  0.5669000000000  0.4789300000000 1.0
C      1  0.4770860000000  0.4681030000000  0.4753920000000 1.0
C      1  0.5162260000000  0.5443730000000  0.4484910000000 1.0
C      1  0.4376290000000  0.5502660000000  0.5334670000000 1.0
C      1  0.4145530000000  0.5009870000000  0.4010760000000 1.0
C      1  0.5708890000000  0.4529460000000  0.5644790000000 1.0
C      1  0.5106860000000  0.4420690000000  0.6198460000000 1.0
C      1  0.5856150000000  0.5400000000000  0.4731450000000 1.0
C      1  0.4367630000000  0.4424970000000  0.4785920000000 1.0
C      1  0.5497930000000  0.4969260000000  0.5669140000000 1.0
C      1  0.5678470000000  0.5550870000000  0.5226370000000 1.0
C      1  0.5083400000000  0.4685470000000  0.5684970000000 1.0
C      1  0.5330450000000  0.5615440000000  0.4335640000000 1.0
C      1  0.5763920000000  0.5783580000000  0.4440670000000 1.0
C      1  0.4885740000000  0.4401620000000  0.6026750000000 1.0
C      1  0.4709380000000  0.4194010000000  0.6044400000000 1.0
C      1  0.4017990000000  0.5216840000000  0.4662280000000 1.0
C      1  0.4001930000000  0.5245900000000  0.3969070000000 1.0
C      1  0.5403110000000  0.5501850000000  0.4084690000000 1.0
C      1  0.5837120000000  0.4837060000000  0.6012430000000 1.0
C      1  0.4900780000000  0.4094910000000  0.4514190000000 1.0
C      1  0.5732690000000  0.4588110000000  0.4993150000000 1.0
C      1  0.4448440000000  0.5378840000000  0.5575720000000 1.0
C      1  0.5912490000000  0.5571670000000  0.4517010000000 1.0
C      1  0.5468570000000  0.5741140000000  0.5251810000000 1.0
C      1  0.5512190000000  0.5256640000000  0.5604710000000 1.0
C      1  0.6047570000000  0.5026270000000  0.5169450000000 1.0
C      1  0.5578440000000  0.4799980000000  0.4018850000000 1.0
C      1  0.5188630000000  0.5168060000000  0.4450720000000 1.0
C      1  0.4604110000000  0.5469610000000  0.5789250000000 1.0
C      1  0.4640700000000  0.4924090000000  0.4800130000000 1.0
C      1  0.5049930000000  0.5945980000000  0.5114820000000 1.0
C      1  0.4636950000000  0.4460740000000  0.4884540000000 1.0
C      1  0.4530450000000  0.5978420000000  0.4970320000000 1.0
C      1  0.4605750000000  0.5540200000000  0.5168650000000 1.0
C      1  0.5144980000000  0.4085570000000  0.4631330000000 1.0
C      1  0.5546610000000  0.4714940000000  0.5134930000000 1.0
C      1  0.3871640000000  0.5476090000000  0.3954220000000 1.0
C      1  0.4248860000000  0.4864110000000  0.3560540000000 1.0
C      1  0.5600560000000  0.4985240000000  0.4611220000000 1.0
C      1  0.4120550000000  0.5594210000000  0.4968500000000 1.0
C      1  0.5288780000000  0.4477620000000  0.4313720000000 1.0
C      1  0.4482540000000  0.5108790000000  0.5490870000000 1.0
C      1  0.4685610000000  0.4357250000000  0.5140090000000 1.0
C      1  0.5160310000000  0.4344880000000  0.4112240000000 1.0
C      1  0.5021290000000  0.5779000000000  0.5357180000000 1.0
C      1  0.5938130000000  0.5167160000000  0.5370020000000 1.0
C      1  0.4913290000000  0.5062190000000  0.5264020000000 1.0
C      1  0.5222800000000  0.5398490000000  0.4940480000000 1.0
C      1  0.5192050000000  0.4692480000000  0.4472650000000 1.0
C      1  0.5522350000000  0.4186430000000  0.5280910000000 1.0
C      1  0.4817590000000  0.4808190000000  0.4043460000000 1.0
C      1  0.5434660000000  0.4124010000000  0.5032910000000 1.0
C      1  0.4822630000000  0.5923330000000  0.4931810000000 1.0
C      1  0.5404880000000  0.5259090000000  0.3965230000000 1.0
C      1  0.5089220000000  0.4888000000000  0.5137770000000 1.0
C      1  0.4058140000000  0.4943640000000  0.4730550000000 1.0
C      1  0.5695350000000  0.4601770000000  0.4167750000000 1.0
C      1  0.4148820000000  0.4408410000000  0.4961430000000 1.0
C      1  0.5396700000000  0.4153200000000  0.4749320000000 1.0
C      1  0.5810310000000  0.5524390000000  0.4980460000000 1.0
C      1  0.4630160000000  0.5514120000000  0.4879350000000 1.0
C      1  0.4916080000000  0.4684250000000  0.4513920000000 1.0
C      1  0.4523930000000  0.5007710000000  0.5021770000000 1.0
C      1  0.5698520000000  0.4787870000000  0.5771030000000 1.0
C      1  0.4109810000000  0.4865830000000  0.4248020000000 1.0
C      1  0.4158470000000  0.4770450000000  0.4509740000000 1.0
C      1  0.5485990000000  0.5804080000000  0.4492760000000 1.0
C      1  0.4260720000000  0.4938230000000  0.5514840000000 1.0
C      1  0.4137780000000  0.5409230000000  0.5201220000000 1.0
C      1  0.4277990000000  0.5853040000000  0.4980000000000 1.0
C      1  0.5290350000000  0.4815040000000  0.5548050000000 1.0
C      1  0.5358080000000  0.4977580000000  0.3967500000000 1.0
C      1  0.4078050000000  0.5070290000000  0.5241330000000 1.0
C      1  0.4601800000000  0.4892150000000  0.3885590000000 1.0
C      1  0.4385900000000  0.4720830000000  0.5673810000000 1.0
C      1  0.4026250000000  0.4885980000000  0.5017880000000 1.0
C      1  0.5335510000000  0.5898630000000  0.5031880000000 1.0
C      1  0.4813250000000  0.5305290000000  0.5890560000000 1.0
C      1  0.6011410000000  0.5046620000000  0.6035160000000 1.0
C      1  0.4331960000000  0.4535950000000  0.4523730000000 1.0
C      1  0.5718090000000  0.5338070000000  0.5418830000000 1.0
C      1  0.5411090000000  0.5904950000000  0.4754010000000 1.0
C      1  0.5546490000000  0.4679860000000  0.6376750000000 1.0
END
