TITL C-627109-622-711 3.04611355852906 125000 -480.865421935226 0 0 81 (C1) n - 1
REM
REM in /home/nfs/bkarasulu/CARBON/AIRSS/Generating-Clusters/LCBOP/Only-C1/SD-CG/FIRE-CG
REM
REM
REM
REM
REM
REM ./C.cell (11c1c37f851c82e70ff6c80c92926a4b)
REM AIRSS Version 0.9.1 bugfix July 2018 build 013d7b7c2542+ Fri, 06 Jul 2018 19:26:36 +0100
REM compiler GCC version 9.2.1 20190827 (Red Hat 9.2.1-1)
REM options -cpp -mtune=generic -march=x86-64 -g -O0 -fpre-include=/usr/include/finclude/math-vector-fortran.h
REM seed 2103910953 -1915511088 674672528 2055582903 721529568 1146144695 1855618695 -1832748544 2147280761 -1437882277 -2126871785 -39119093 1713925570 -512276417 -1006220972 89078274 -585966807 1943830448 468934852 19832374 -1226177051 -653195610 -24489026 -1296437522 725786087 -1571136514 -1043493143 -1559940000 257062634 1599818767 1724808663 -251136938 1150207013
REM
CELL 1.54180   50.00000   50.00000   50.00000   90.00000   90.00000   90.00000
LATT -1
SFAC C  
C      1  0.4709720000000  0.4415010000000  0.4910660000000 1.0
C      1  0.4999720000000  0.4754620000000  0.4751550000000 1.0
C      1  0.5292710000000  0.3809630000000  0.4683040000000 1.0
C      1  0.4446840000000  0.5667010000000  0.5524460000000 1.0
C      1  0.5089320000000  0.5785200000000  0.4359640000000 1.0
C      1  0.4797110000000  0.5046190000000  0.5791930000000 1.0
C      1  0.5413270000000  0.5755010000000  0.5583050000000 1.0
C      1  0.4790900000000  0.5234680000000  0.4394680000000 1.0
C      1  0.5418100000000  0.4059710000000  0.4691230000000 1.0
C      1  0.5511830000000  0.5264220000000  0.5735170000000 1.0
C      1  0.4714170000000  0.5297490000000  0.5729980000000 1.0
C      1  0.5422060000000  0.4514200000000  0.4962340000000 1.0
C      1  0.4925480000000  0.3932450000000  0.4976400000000 1.0
C      1  0.4940780000000  0.5684020000000  0.5508530000000 1.0
C      1  0.4770530000000  0.5536770000000  0.4757330000000 1.0
C      1  0.4699070000000  0.5551570000000  0.5594610000000 1.0
C      1  0.4811080000000  0.5270200000000  0.5153310000000 1.0
C      1  0.4857320000000  0.4653390000000  0.4972490000000 1.0
C      1  0.4983810000000  0.5856290000000  0.5284030000000 1.0
C      1  0.4380830000000  0.4610920000000  0.4528210000000 1.0
C      1  0.4086730000000  0.5226610000000  0.4738120000000 1.0
C      1  0.5252170000000  0.5296640000000  0.4878870000000 1.0
C      1  0.5542010000000  0.3290490000000  0.4191190000000 1.0
C      1  0.4493110000000  0.4834140000000  0.5218420000000 1.0
C      1  0.4041830000000  0.5660120000000  0.5881000000000 1.0
C      1  0.5333360000000  0.4603030000000  0.5465140000000 1.0
C      1  0.4580450000000  0.5047440000000  0.4408760000000 1.0
C      1  0.4401050000000  0.4893620000000  0.4562910000000 1.0
C      1  0.5340340000000  0.3633480000000  0.4472170000000 1.0
C      1  0.5559400000000  0.3442540000000  0.4439990000000 1.0
C      1  0.4736950000000  0.5500690000000  0.4477290000000 1.0
C      1  0.5595720000000  0.5593940000000  0.5174140000000 1.0
C      1  0.4413380000000  0.5784010000000  0.5270410000000 1.0
C      1  0.3892650000000  0.5716080000000  0.4694700000000 1.0
C      1  0.5388950000000  0.5556250000000  0.4989560000000 1.0
C      1  0.4307780000000  0.4918700000000  0.5043310000000 1.0
C      1  0.4794560000000  0.4162660000000  0.4992000000000 1.0
C      1  0.5716840000000  0.5404510000000  0.5615550000000 1.0
C      1  0.5185620000000  0.3592310000000  0.4229960000000 1.0
C      1  0.5162700000000  0.5129140000000  0.5424180000000 1.0
C      1  0.5329930000000  0.4449760000000  0.5226770000000 1.0
C      1  0.4927280000000  0.5354720000000  0.4919500000000 1.0
C      1  0.5066270000000  0.5156900000000  0.4443960000000 1.0
C      1  0.3834540000000  0.5974600000000  0.4691330000000 1.0
C      1  0.6560040000000  0.4785760000000  0.5677540000000 1.0
C      1  0.5785350000000  0.4809610000000  0.5501530000000 1.0
C      1  0.5234000000000  0.5657510000000  0.4566940000000 1.0
C      1  0.5300610000000  0.3396960000000  0.4070170000000 1.0
C      1  0.5518200000000  0.4821030000000  0.5429420000000 1.0
C      1  0.3783870000000  0.6234760000000  0.4692200000000 1.0
C      1  0.5451820000000  0.4789730000000  0.4887040000000 1.0
C      1  0.5111110000000  0.3740470000000  0.4891790000000 1.0
C      1  0.6043440000000  0.4795980000000  0.5559390000000 1.0
C      1  0.5390060000000  0.5030090000000  0.5285560000000 1.0
C      1  0.4777410000000  0.4814510000000  0.5199590000000 1.0
C      1  0.4236290000000  0.5666090000000  0.5707610000000 1.0
C      1  0.6301730000000  0.4790380000000  0.5618300000000 1.0
C      1  0.5247490000000  0.5354780000000  0.4568210000000 1.0
C      1  0.5121710000000  0.4648690000000  0.5651870000000 1.0
C      1  0.4659350000000  0.5838120000000  0.4125780000000 1.0
C      1  0.4258750000000  0.5011520000000  0.4781880000000 1.0
C      1  0.5087550000000  0.4891180000000  0.4538470000000 1.0
C      1  0.5381760000000  0.5043490000000  0.4998420000000 1.0
C      1  0.4914440000000  0.5052900000000  0.5296190000000 1.0
C      1  0.4512920000000  0.5846300000000  0.5029620000000 1.0
C      1  0.3734960000000  0.6490830000000  0.4693760000000 1.0
C      1  0.4506180000000  0.4446800000000  0.4719000000000 1.0
C      1  0.5001300000000  0.5862590000000  0.4998660000000 1.0
C      1  0.4243140000000  0.4504620000000  0.4317560000000 1.0
C      1  0.5634000000000  0.5625380000000  0.5452530000000 1.0
C      1  0.4940560000000  0.4816500000000  0.5766020000000 1.0
C      1  0.3972360000000  0.5463810000000  0.4709450000000 1.0
C      1  0.5235490000000  0.5764480000000  0.4848520000000 1.0
C      1  0.5181110000000  0.5590720000000  0.5621250000000 1.0
C      1  0.4746060000000  0.5789410000000  0.4883260000000 1.0
C      1  0.5120700000000  0.3493800000000  0.5009520000000 1.0
C      1  0.5709070000000  0.3099210000000  0.4098240000000 1.0
C      1  0.5242950000000  0.5308940000000  0.5636180000000 1.0
C      1  0.6814110000000  0.4781230000000  0.5735800000000 1.0
C      1  0.5462770000000  0.4304860000000  0.4782480000000 1.0
C      1  0.4819070000000  0.5716020000000  0.4308430000000 1.0
END
