TITL C-627110-360-16 791.786486240511 125000 -805.598543623922 0 0 133 (C1) n - 1
REM
REM in /home/nfs/bkarasulu/CARBON/AIRSS/Generating-Clusters/LCBOP/Only-C1/SD-CG/FIRE-CG
REM
REM
REM
REM
REM
REM ./C.cell (11c1c37f851c82e70ff6c80c92926a4b)
REM AIRSS Version 0.9.1 bugfix July 2018 build 013d7b7c2542+ Fri, 06 Jul 2018 19:26:36 +0100
REM compiler GCC version 9.2.1 20190827 (Red Hat 9.2.1-1)
REM options -cpp -mtune=generic -march=x86-64 -g -O0 -fpre-include=/usr/include/finclude/math-vector-fortran.h
REM seed 1485343429 -1603187365 -333079611 -1757457464 -1573553492 -1093865175 -66555452 -1403204063 -119086332 315735420 596542143 -547982031 522187848 21020705 270134921 1318756832 326938536 1050025720 -1940335026 -761259044 -1227678827 -341110011 -1555658414 -14018182 -1915579138 389422117 -705901850 856077633 1500886242 -1065733832 813289252 1585373541 178117909
REM
CELL 1.54180   50.00000   50.00000   50.00000   90.00000   90.00000   90.00000
LATT -1
SFAC C  
C      1  0.5419260000000  0.5211760000000  0.4198800000000 1.0
C      1  0.4564610000000  0.4664460000000  0.4642050000000 1.0
C      1  0.4490880000000  0.5334580000000  0.5861840000000 1.0
C      1  0.4105410000000  0.4875820000000  0.5025330000000 1.0
C      1  0.5673650000000  0.5342440000000  0.4279280000000 1.0
C      1  0.5202050000000  0.4365020000000  0.4937060000000 1.0
C      1  0.4547060000000  0.4033850000000  0.4838310000000 1.0
C      1  0.5642010000000  0.4605410000000  0.3801050000000 1.0
C      1  0.5130320000000  0.4439240000000  0.5202530000000 1.0
C      1  0.4910720000000  0.4301430000000  0.5328560000000 1.0
C      1  0.5404560000000  0.5807680000000  0.4608840000000 1.0
C      1  0.4077520000000  0.4594290000000  0.5083770000000 1.0
C      1  0.4713220000000  0.5822090000000  0.5368370000000 1.0
C      1  0.3899670000000  0.5227390000000  0.4782790000000 1.0
C      1  0.5138750000000  0.5124440000000  0.5009480000000 1.0
C      1  0.4745940000000  0.4736270000000  0.5394480000000 1.0
C      1  0.4987950000000  0.4830900000000  0.5852080000000 1.0
C      1  0.5692630000000  0.5409640000000  0.4590910000000 1.0
C      1  0.4439700000000  0.5965540000000  0.5045680000000 1.0
C      1  0.5835720000000  0.3607870000000  0.5025280000000 1.0
C      1  0.4542420000000  0.5342080000000  0.4480750000000 1.0
C      1  0.4267750000000  0.5067310000000  0.4531180000000 1.0
C      1  0.4373180000000  0.4585750000000  0.4430910000000 1.0
C      1  0.4863900000000  0.5704390000000  0.5820870000000 1.0
C      1  0.6400640000000  0.5274790000000  0.4726900000000 1.0
C      1  0.5574460000000  0.4542940000000  0.4049540000000 1.0
C      1  0.5522050000000  0.4036280000000  0.5125950000000 1.0
C      1  0.4529100000000  0.4980680000000  0.4138550000000 1.0
C      1  0.4703800000000  0.4824830000000  0.5973770000000 1.0
C      1  0.4328570000000  0.4605600000000  0.5729880000000 1.0
C      1  0.4825590000000  0.4043340000000  0.5261180000000 1.0
C      1  0.4585020000000  0.5264720000000  0.4186710000000 1.0
C      1  0.5751790000000  0.5724940000000  0.4999870000000 1.0
C      1  0.5535220000000  0.4439210000000  0.4306020000000 1.0
C      1  0.4092370000000  0.5018900000000  0.4762590000000 1.0
C      1  0.4515570000000  0.4410360000000  0.5640070000000 1.0
C      1  0.5261580000000  0.5555580000000  0.6019420000000 1.0
C      1  0.5366470000000  0.5918620000000  0.5335680000000 1.0
C      1  0.5589530000000  0.4381550000000  0.5570040000000 1.0
C      1  0.4975240000000  0.5591370000000  0.4024270000000 1.0
C      1  0.4148390000000  0.4379650000000  0.4916700000000 1.0
C      1  0.5163390000000  0.5853570000000  0.4421420000000 1.0
C      1  0.5893190000000  0.5296360000000  0.5319340000000 1.0
C      1  0.5208290000000  0.5115170000000  0.5294490000000 1.0
C      1  0.4443470000000  0.4849170000000  0.5835520000000 1.0
C      1  0.5519640000000  0.3817160000000  0.4306550000000 1.0
C      1  0.4649790000000  0.5550120000000  0.5872080000000 1.0
C      1  0.5141720000000  0.5928860000000  0.5162090000000 1.0
C      1  0.5249670000000  0.3944200000000  0.4698910000000 1.0
C      1  0.5610890000000  0.5895610000000  0.5187200000000 1.0
C      1  0.5778660000000  0.4719300000000  0.4655070000000 1.0
C      1  0.5152380000000  0.5750380000000  0.4153800000000 1.0
C      1  0.4706750000000  0.5232110000000  0.4722810000000 1.0
C      1  0.5126100000000  0.5005630000000  0.4504640000000 1.0
C      1  0.5458680000000  0.5029880000000  0.5858610000000 1.0
C      1  0.4743920000000  0.4029960000000  0.4630610000000 1.0
C      1  0.4936170000000  0.5296870000000  0.4912850000000 1.0
C      1  0.4584180000000  0.4708530000000  0.4919890000000 1.0
C      1  0.4855470000000  0.5022620000000  0.4570080000000 1.0
C      1  0.3848860000000  0.4585520000000  0.5806380000000 1.0
C      1  0.6142780000000  0.5237510000000  0.4731230000000 1.0
C      1  0.4624000000000  0.4852190000000  0.5163230000000 1.0
C      1  0.5333430000000  0.4108470000000  0.4920660000000 1.0
C      1  0.5739890000000  0.4481000000000  0.4506330000000 1.0
C      1  0.5023500000000  0.4896640000000  0.4040890000000 1.0
C      1  0.5476690000000  0.5643410000000  0.6172350000000 1.0
C      1  0.5908330000000  0.4810560000000  0.5479760000000 1.0
C      1  0.5189510000000  0.5048250000000  0.5949920000000 1.0
C      1  0.5703890000000  0.4673210000000  0.3557070000000 1.0
C      1  0.5163120000000  0.4574770000000  0.5854020000000 1.0
C      1  0.5280140000000  0.5605140000000  0.4779050000000 1.0
C      1  0.4805180000000  0.6057430000000  0.4723860000000 1.0
C      1  0.4275090000000  0.5495040000000  0.4905600000000 1.0
C      1  0.4061300000000  0.4576370000000  0.5634840000000 1.0
C      1  0.4908480000000  0.4892050000000  0.5568200000000 1.0
C      1  0.4747680000000  0.5286090000000  0.5368300000000 1.0
C      1  0.5056850000000  0.4367970000000  0.4460540000000 1.0
C      1  0.5147150000000  0.5715990000000  0.5811630000000 1.0
C      1  0.5863990000000  0.5197640000000  0.4732720000000 1.0
C      1  0.4721640000000  0.4464200000000  0.5458250000000 1.0
C      1  0.3988270000000  0.5464410000000  0.4901340000000 1.0
C      1  0.4877410000000  0.6020730000000  0.5216860000000 1.0
C      1  0.4191510000000  0.5186360000000  0.5508640000000 1.0
C      1  0.5667410000000  0.5130110000000  0.5724490000000 1.0
C      1  0.4978720000000  0.5138590000000  0.5458470000000 1.0
C      1  0.4525510000000  0.4355440000000  0.4324000000000 1.0
C      1  0.5554280000000  0.4916020000000  0.5039690000000 1.0
C      1  0.5868340000000  0.5497160000000  0.5138370000000 1.0
C      1  0.5143150000000  0.4520810000000  0.4698470000000 1.0
C      1  0.5685380000000  0.3812920000000  0.5082450000000 1.0
C      1  0.4306110000000  0.4178900000000  0.4835740000000 1.0
C      1  0.5804150000000  0.4567230000000  0.5535980000000 1.0
C      1  0.5139740000000  0.5301320000000  0.6062750000000 1.0
C      1  0.4779570000000  0.4249330000000  0.4442240000000 1.0
C      1  0.4922040000000  0.5539110000000  0.5048780000000 1.0
C      1  0.5229240000000  0.4792100000000  0.4667770000000 1.0
C      1  0.4316850000000  0.4868160000000  0.4320850000000 1.0
C      1  0.4675490000000  0.5646250000000  0.4481460000000 1.0
C      1  0.4757910000000  0.4782120000000  0.4469600000000 1.0
C      1  0.5418230000000  0.4894460000000  0.5306330000000 1.0
C      1  0.3814840000000  0.5652060000000  0.4996930000000 1.0
C      1  0.5258150000000  0.5043920000000  0.4024630000000 1.0
C      1  0.4233270000000  0.5717070000000  0.5442180000000 1.0
C      1  0.4478140000000  0.5280190000000  0.4941090000000 1.0
C      1  0.5287670000000  0.4639290000000  0.5327830000000 1.0
C      1  0.4576890000000  0.5138200000000  0.5180660000000 1.0
C      1  0.4762250000000  0.5426340000000  0.4034050000000 1.0
C      1  0.4644340000000  0.3946580000000  0.5089060000000 1.0
C      1  0.5761800000000  0.4942000000000  0.4834660000000 1.0
C      1  0.5315640000000  0.4938020000000  0.4887260000000 1.0
C      1  0.4144290000000  0.5468330000000  0.5490840000000 1.0
C      1  0.5699910000000  0.5723910000000  0.4690440000000 1.0
C      1  0.4431700000000  0.5876140000000  0.5324970000000 1.0
C      1  0.5685600000000  0.5720790000000  0.6307540000000 1.0
C      1  0.5371570000000  0.3998220000000  0.4445590000000 1.0
C      1  0.5131520000000  0.5705500000000  0.4987800000000 1.0
C      1  0.4976070000000  0.3871780000000  0.4679870000000 1.0
C      1  0.5916660000000  0.4274770000000  0.4551770000000 1.0
C      1  0.5276900000000  0.5222620000000  0.4448630000000 1.0
C      1  0.4349010000000  0.5765810000000  0.4871180000000 1.0
C      1  0.5311240000000  0.4263160000000  0.4354020000000 1.0
C      1  0.5303840000000  0.5837580000000  0.5604300000000 1.0
C      1  0.5555510000000  0.4180310000000  0.5370050000000 1.0
C      1  0.4023590000000  0.4536670000000  0.5357240000000 1.0
C      1  0.4701580000000  0.6082270000000  0.4986020000000 1.0
C      1  0.4881140000000  0.5856600000000  0.4535410000000 1.0
C      1  0.5391030000000  0.5368070000000  0.4659220000000 1.0
C      1  0.4774900000000  0.4825100000000  0.4174070000000 1.0
C      1  0.4120490000000  0.5034330000000  0.5274200000000 1.0
C      1  0.5844890000000  0.5087430000000  0.5508430000000 1.0
C      1  0.4789020000000  0.5556100000000  0.5299650000000 1.0
C      1  0.5379480000000  0.4440180000000  0.5758940000000 1.0
C      1  0.4359680000000  0.5111170000000  0.5739080000000 1.0
END
