TITL C-627111-6168-558 0.314320403995766 125000 -335.439017193902 0 0 58 (C1) n - 1
REM
REM in /home/nfs/bkarasulu/CARBON/AIRSS/Generating-Clusters/LCBOP/Only-C1/SD-CG/FIRE-CG
REM
REM
REM
REM
REM
REM ./C.cell (11c1c37f851c82e70ff6c80c92926a4b)
REM AIRSS Version 0.9.1 bugfix July 2018 build 013d7b7c2542+ Fri, 06 Jul 2018 19:26:36 +0100
REM compiler GCC version 9.2.1 20190827 (Red Hat 9.2.1-1)
REM options -cpp -mtune=generic -march=x86-64 -g -O0 -fpre-include=/usr/include/finclude/math-vector-fortran.h
REM seed -944761574 836326923 1691349762 -1052351896 1427272885 -61454761 -1954917855 -1025890557 -248537098 1138006595 861296142 615543273 -2147455875 1735922804 -1960264965 91508166 -463592767 -1760102296 -1874258676 -261668697 -1995532887 -1593296972 1853606366 -1196564882 -232269892 798890394 1414647094 345088509 -864623440 681303658 -1263692677 1819043489 -1662344538
REM
CELL 1.54180   50.00000   50.00000   50.00000   90.00000   90.00000   90.00000
LATT -1
SFAC C  
C      1  0.4343930000000  0.6276090000000  0.3796410000000 1.0
C      1  0.5621070000000  0.5037550000000  0.5454050000000 1.0
C      1  0.4381960000000  0.5395320000000  0.5812290000000 1.0
C      1  0.4861170000000  0.5353050000000  0.4610230000000 1.0
C      1  0.5588960000000  0.4519950000000  0.4894430000000 1.0
C      1  0.3923450000000  0.5224790000000  0.5759320000000 1.0
C      1  0.5168920000000  0.4551720000000  0.5576260000000 1.0
C      1  0.5911800000000  0.4983890000000  0.4475010000000 1.0
C      1  0.4776880000000  0.5647280000000  0.5323860000000 1.0
C      1  0.5854190000000  0.4325740000000  0.5522980000000 1.0
C      1  0.3194470000000  0.5062170000000  0.6053490000000 1.0
C      1  0.6141430000000  0.4979540000000  0.4325950000000 1.0
C      1  0.4911750000000  0.4916450000000  0.4428400000000 1.0
C      1  0.3431220000000  0.5114980000000  0.5957950000000 1.0
C      1  0.5357250000000  0.5032770000000  0.5540410000000 1.0
C      1  0.4941840000000  0.5738540000000  0.5134280000000 1.0
C      1  0.4920250000000  0.5208270000000  0.5443990000000 1.0
C      1  0.5170410000000  0.4816930000000  0.5487380000000 1.0
C      1  0.6021290000000  0.4322270000000  0.4805400000000 1.0
C      1  0.5410930000000  0.4891600000000  0.4283060000000 1.0
C      1  0.5344850000000  0.4939420000000  0.4857160000000 1.0
C      1  0.5106080000000  0.4511330000000  0.4838060000000 1.0
C      1  0.4459840000000  0.5344260000000  0.5543030000000 1.0
C      1  0.4134640000000  0.5340150000000  0.5911930000000 1.0
C      1  0.4449020000000  0.6098020000000  0.3955190000000 1.0
C      1  0.3671820000000  0.5168660000000  0.5860860000000 1.0
C      1  0.4896480000000  0.4344410000000  0.5244390000000 1.0
C      1  0.4836460000000  0.4815460000000  0.5107080000000 1.0
C      1  0.4933510000000  0.4932030000000  0.5348460000000 1.0
C      1  0.5804890000000  0.5051800000000  0.5261780000000 1.0
C      1  0.4734150000000  0.4965430000000  0.4892340000000 1.0
C      1  0.5269960000000  0.5193080000000  0.4825530000000 1.0
C      1  0.5083670000000  0.5633940000000  0.4933360000000 1.0
C      1  0.4733920000000  0.5076570000000  0.4613310000000 1.0
C      1  0.5820380000000  0.4393440000000  0.4985750000000 1.0
C      1  0.5664720000000  0.4933140000000  0.4351510000000 1.0
C      1  0.4982480000000  0.4036920000000  0.4201610000000 1.0
C      1  0.4212660000000  0.5094380000000  0.4417740000000 1.0
C      1  0.5183560000000  0.5263670000000  0.5553130000000 1.0
C      1  0.5019750000000  0.4181900000000  0.4415040000000 1.0
C      1  0.4763140000000  0.5551050000000  0.4438860000000 1.0
C      1  0.5845450000000  0.4322960000000  0.5783510000000 1.0
C      1  0.5086380000000  0.5399730000000  0.4779440000000 1.0
C      1  0.4248690000000  0.5229090000000  0.5390170000000 1.0
C      1  0.5904410000000  0.5057100000000  0.5014850000000 1.0
C      1  0.5030690000000  0.4341720000000  0.5478750000000 1.0
C      1  0.6207200000000  0.4274000000000  0.4629250000000 1.0
C      1  0.5146020000000  0.4877370000000  0.4307420000000 1.0
C      1  0.4555860000000  0.5916960000000  0.4116630000000 1.0
C      1  0.5925670000000  0.5037820000000  0.4750320000000 1.0
C      1  0.5349630000000  0.4658600000000  0.4858720000000 1.0
C      1  0.4001470000000  0.5173960000000  0.5490020000000 1.0
C      1  0.4661860000000  0.5735400000000  0.4277920000000 1.0
C      1  0.5851110000000  0.4342090000000  0.5258570000000 1.0
C      1  0.5058870000000  0.4335900000000  0.4627000000000 1.0
C      1  0.4456630000000  0.5084630000000  0.4508440000000 1.0
C      1  0.4916310000000  0.4545420000000  0.5047390000000 1.0
C      1  0.4714580000000  0.5399290000000  0.5440320000000 1.0
END
