TITL C-627106-156-21 0.00189647340082687 125000 -603.434225746225 0 0 98 (C1) n - 1
REM
REM in /home/nfs/bkarasulu/CARBON/AIRSS/Generating-Clusters/LCBOP/Only-C1/SD-CG/FIRE-CG
REM
REM
REM
REM
REM
REM ./C.cell (11c1c37f851c82e70ff6c80c92926a4b)
REM AIRSS Version 0.9.1 bugfix July 2018 build 013d7b7c2542+ Fri, 06 Jul 2018 19:26:36 +0100
REM compiler GCC version 9.2.1 20190827 (Red Hat 9.2.1-1)
REM options -cpp -mtune=generic -march=x86-64 -g -O0 -fpre-include=/usr/include/finclude/math-vector-fortran.h
REM seed 1283072688 1285087875 910983473 -683953750 1425233116 1790457272 427083658 -1740038659 1192215448 -408817777 -1238654562 2139730125 -2025960715 1043870398 -2007007107 -24614972 -2092158720 -70001836 -954782022 -1719850752 -1743003643 -1091924563 -1130001776 -798578802 -1481907102 776469411 1691605867 1499571413 -1838967789 1533755610 1833701802 -61837394 836012674
REM
CELL 1.54180   50.00000   50.00000   50.00000   90.00000   90.00000   90.00000
LATT -1
SFAC C  
C      1  0.5435160000000  0.4739540000000  0.4782570000000 1.0
C      1  0.4858480000000  0.5811550000000  0.4615810000000 1.0
C      1  0.4470160000000  0.4490030000000  0.5071010000000 1.0
C      1  0.4270250000000  0.5093700000000  0.4211160000000 1.0
C      1  0.6122580000000  0.4737920000000  0.5205730000000 1.0
C      1  0.4929170000000  0.5061810000000  0.4321960000000 1.0
C      1  0.5007750000000  0.3532510000000  0.4819670000000 1.0
C      1  0.4412960000000  0.5253010000000  0.4387610000000 1.0
C      1  0.5026770000000  0.3822400000000  0.4818260000000 1.0
C      1  0.4555790000000  0.5950180000000  0.4998610000000 1.0
C      1  0.5561790000000  0.4556420000000  0.4002170000000 1.0
C      1  0.5032030000000  0.5221610000000  0.5746760000000 1.0
C      1  0.4218170000000  0.5610220000000  0.6119560000000 1.0
C      1  0.5731830000000  0.5240660000000  0.5654740000000 1.0
C      1  0.4596330000000  0.4424040000000  0.4528580000000 1.0
C      1  0.5190910000000  0.5935920000000  0.5262690000000 1.0
C      1  0.4771670000000  0.5374400000000  0.4916680000000 1.0
C      1  0.5829240000000  0.4980620000000  0.4632830000000 1.0
C      1  0.5713990000000  0.5213580000000  0.4517020000000 1.0
C      1  0.4637250000000  0.5437940000000  0.4309530000000 1.0
C      1  0.3975450000000  0.5686400000000  0.6044620000000 1.0
C      1  0.5668760000000  0.5014130000000  0.5806090000000 1.0
C      1  0.4713210000000  0.5494590000000  0.5996760000000 1.0
C      1  0.5141340000000  0.4157840000000  0.4464020000000 1.0
C      1  0.5289200000000  0.4631420000000  0.5754980000000 1.0
C      1  0.4676870000000  0.4437730000000  0.5791760000000 1.0
C      1  0.4857890000000  0.4791620000000  0.4696270000000 1.0
C      1  0.5382510000000  0.4940590000000  0.4981360000000 1.0
C      1  0.3770510000000  0.5758680000000  0.5868150000000 1.0
C      1  0.4467160000000  0.4313130000000  0.4313620000000 1.0
C      1  0.4568460000000  0.5470200000000  0.4751650000000 1.0
C      1  0.4933300000000  0.5043980000000  0.4605060000000 1.0
C      1  0.4473690000000  0.5541980000000  0.6099900000000 1.0
C      1  0.4486770000000  0.4390610000000  0.4797610000000 1.0
C      1  0.5591910000000  0.5180810000000  0.4264880000000 1.0
C      1  0.6188320000000  0.4870120000000  0.4983670000000 1.0
C      1  0.6074200000000  0.4976500000000  0.4767240000000 1.0
C      1  0.4714930000000  0.5212550000000  0.5154790000000 1.0
C      1  0.5254680000000  0.5881060000000  0.5010700000000 1.0
C      1  0.3825860000000  0.5748570000000  0.5593870000000 1.0
C      1  0.4653160000000  0.5631440000000  0.4529700000000 1.0
C      1  0.5381320000000  0.4772680000000  0.3997780000000 1.0
C      1  0.4979420000000  0.5149700000000  0.5242570000000 1.0
C      1  0.5708110000000  0.4456970000000  0.4204210000000 1.0
C      1  0.5105530000000  0.4719780000000  0.4025770000000 1.0
C      1  0.4152180000000  0.4927300000000  0.4049070000000 1.0
C      1  0.5125180000000  0.5692490000000  0.4577570000000 1.0
C      1  0.5117740000000  0.5513620000000  0.4346830000000 1.0
C      1  0.5385000000000  0.5106330000000  0.5411900000000 1.0
C      1  0.5114030000000  0.5869300000000  0.5507810000000 1.0
C      1  0.4143040000000  0.5358030000000  0.5086010000000 1.0
C      1  0.4859260000000  0.4584240000000  0.4474780000000 1.0
C      1  0.5234130000000  0.4628580000000  0.5277570000000 1.0
C      1  0.5722010000000  0.5459290000000  0.4661100000000 1.0
C      1  0.5912300000000  0.5645570000000  0.4593610000000 1.0
C      1  0.4995970000000  0.4249710000000  0.5153850000000 1.0
C      1  0.5439010000000  0.4844610000000  0.5263330000000 1.0
C      1  0.5556450000000  0.4760080000000  0.5714680000000 1.0
C      1  0.4498170000000  0.4350680000000  0.5320090000000 1.0
C      1  0.4927610000000  0.5475210000000  0.5818760000000 1.0
C      1  0.4289850000000  0.5161400000000  0.4939650000000 1.0
C      1  0.4847640000000  0.4707730000000  0.4964700000000 1.0
C      1  0.3957410000000  0.5705510000000  0.5367850000000 1.0
C      1  0.4761180000000  0.5978660000000  0.4823980000000 1.0
C      1  0.5161180000000  0.5126700000000  0.5003940000000 1.0
C      1  0.4997590000000  0.5233760000000  0.4796980000000 1.0
C      1  0.4350440000000  0.5811830000000  0.5103920000000 1.0
C      1  0.5080810000000  0.4734040000000  0.5925520000000 1.0
C      1  0.3525390000000  0.5836280000000  0.5960190000000 1.0
C      1  0.5244220000000  0.4524420000000  0.4782640000000 1.0
C      1  0.5673030000000  0.4741840000000  0.4631570000000 1.0
C      1  0.5540400000000  0.5521080000000  0.4874770000000 1.0
C      1  0.4967820000000  0.4302410000000  0.5440250000000 1.0
C      1  0.5109660000000  0.3893930000000  0.4541770000000 1.0
C      1  0.5482130000000  0.5025320000000  0.4076440000000 1.0
C      1  0.4587220000000  0.4753080000000  0.5082320000000 1.0
C      1  0.5178430000000  0.4492000000000  0.5524410000000 1.0
C      1  0.5135390000000  0.3642620000000  0.4399720000000 1.0
C      1  0.4986110000000  0.4008130000000  0.5019460000000 1.0
C      1  0.5054240000000  0.5013580000000  0.5934820000000 1.0
C      1  0.4845920000000  0.4576250000000  0.5950650000000 1.0
C      1  0.5073460000000  0.3431470000000  0.4569270000000 1.0
C      1  0.5608140000000  0.5447220000000  0.5153100000000 1.0
C      1  0.4150350000000  0.5625550000000  0.5181580000000 1.0
C      1  0.5106400000000  0.4420770000000  0.4550590000000 1.0
C      1  0.5030150000000  0.5706460000000  0.5699590000000 1.0
C      1  0.4923050000000  0.4780440000000  0.4230410000000 1.0
C      1  0.5596570000000  0.5300910000000  0.5403730000000 1.0
C      1  0.4500980000000  0.5025220000000  0.5095990000000 1.0
C      1  0.5743110000000  0.4532640000000  0.4458610000000 1.0
C      1  0.5117990000000  0.5166680000000  0.5484280000000 1.0
C      1  0.4903000000000  0.5336160000000  0.4248890000000 1.0
C      1  0.4696290000000  0.4337260000000  0.5528610000000 1.0
C      1  0.5078060000000  0.4522310000000  0.5039630000000 1.0
C      1  0.5656660000000  0.4723290000000  0.5439780000000 1.0
C      1  0.5916330000000  0.4669160000000  0.5359300000000 1.0
C      1  0.4373740000000  0.5263700000000  0.4677950000000 1.0
C      1  0.5312710000000  0.5693980000000  0.4806200000000 1.0
END
