TITL C-627113-6568-1404 162452.607087783 125000 -1080.58593828611 0 0 177 (C1) n - 1
REM
REM in /home/nfs/bkarasulu/CARBON/AIRSS/Generating-Clusters/LCBOP/Only-C1/SD-CG/FIRE-CG
REM
REM
REM
REM
REM
REM ./C.cell (11c1c37f851c82e70ff6c80c92926a4b)
REM AIRSS Version 0.9.1 bugfix July 2018 build 013d7b7c2542+ Fri, 06 Jul 2018 19:26:36 +0100
REM compiler GCC version 9.2.1 20190827 (Red Hat 9.2.1-1)
REM options -cpp -mtune=generic -march=x86-64 -g -O0 -fpre-include=/usr/include/finclude/math-vector-fortran.h
REM seed 943492925 1122981347 -1890841728 1038561603 1000163654 1997078224 -453831364 -1505145690 -1440848079 -440383634 -2115323068 -410237959 466960637 -1016741064 448745702 1969819613 686137965 1470317010 1931569585 1467427654 507278814 2064450661 -330100618 -156123161 -1032906393 982376734 -1782597540 1782543850 1810634671 1693250968 1502409848 399625937 2053968701
REM
CELL 1.54180   50.00000   50.00000   50.00000   90.00000   90.00000   90.00000
LATT -1
SFAC C  
C      1  0.4485890000000  0.5395620000000  0.4491350000000 1.0
C      1  0.4991760000000  0.4493520000000  0.5609260000000 1.0
C      1  0.3971160000000  0.5279120000000  0.4607400000000 1.0
C      1  0.5641070000000  0.5583080000000  0.5691090000000 1.0
C      1  0.5339730000000  0.5187150000000  0.5689040000000 1.0
C      1  0.4597190000000  0.5280300000000  0.5111960000000 1.0
C      1  0.5358680000000  0.4296750000000  0.5014870000000 1.0
C      1  0.5454790000000  0.6075080000000  0.4958020000000 1.0
C      1  0.6019890000000  0.4847770000000  0.4920510000000 1.0
C      1  0.4021950000000  0.5053950000000  0.4773780000000 1.0
C      1  0.5627460000000  0.5773140000000  0.5467210000000 1.0
C      1  0.5393470000000  0.4913180000000  0.4121990000000 1.0
C      1  0.5153290000000  0.3927320000000  0.4204530000000 1.0
C      1  0.4871430000000  0.4686210000000  0.4904830000000 1.0
C      1  0.5041020000000  0.4558680000000  0.3964570000000 1.0
C      1  0.4580920000000  0.5598250000000  0.4770190000000 1.0
C      1  0.4649010000000  0.4523230000000  0.4733970000000 1.0
C      1  0.4695490000000  0.4851050000000  0.4050770000000 1.0
C      1  0.4027980000000  0.4697890000000  0.5112100000000 1.0
C      1  0.5174470000000  0.5725940000000  0.5249000000000 1.0
C      1  0.4631920000000  0.5476550000000  0.4008260000000 1.0
C      1  0.4981080000000  0.5617320000000  0.5706350000000 1.0
C      1  0.5630260000000  0.5331050000000  0.4091770000000 1.0
C      1  0.3974340000000  0.4266530000000  0.4751820000000 1.0
C      1  0.5407910000000  0.4849890000000  0.6112610000000 1.0
C      1  0.5030470000000  0.3842000000000  0.4831720000000 1.0
C      1  0.3885850000000  0.4917490000000  0.4987180000000 1.0
C      1  0.5296860000000  0.5241840000000  0.5414960000000 1.0
C      1  0.4941300000000  0.3914360000000  0.5095150000000 1.0
C      1  0.6061990000000  0.5127260000000  0.5300620000000 1.0
C      1  0.5028390000000  0.4300850000000  0.5388120000000 1.0
C      1  0.4497980000000  0.4609200000000  0.6015900000000 1.0
C      1  0.5620660000000  0.4435180000000  0.6018230000000 1.0
C      1  0.4245900000000  0.5493130000000  0.5493690000000 1.0
C      1  0.4302070000000  0.4929900000000  0.4310040000000 1.0
C      1  0.4431500000000  0.4773430000000  0.4099200000000 1.0
C      1  0.5580660000000  0.5191780000000  0.5314400000000 1.0
C      1  0.5343720000000  0.5350550000000  0.4057360000000 1.0
C      1  0.5608260000000  0.5405910000000  0.5120570000000 1.0
C      1  0.5363110000000  0.4475100000000  0.4790190000000 1.0
C      1  0.5935530000000  0.5452030000000  0.4478510000000 1.0
C      1  0.4358510000000  0.4491130000000  0.4110140000000 1.0
C      1  0.4690470000000  0.4748810000000  0.5891370000000 1.0
C      1  0.5890080000000  0.4685110000000  0.4715450000000 1.0
C      1  0.5045120000000  0.5804010000000  0.5487290000000 1.0
C      1  0.5308270000000  0.3778080000000  0.4762560000000 1.0
C      1  0.5515610000000  0.4297900000000  0.4226840000000 1.0
C      1  0.4299250000000  0.5712010000000  0.5222920000000 1.0
C      1  0.4859140000000  0.4716390000000  0.5464110000000 1.0
C      1  0.4591560000000  0.4106410000000  0.5411050000000 1.0
C      1  0.5669970000000  0.5030440000000  0.4090180000000 1.0
C      1  0.5190250000000  0.5271780000000  0.4519410000000 1.0
C      1  0.4470240000000  0.4543090000000  0.5258950000000 1.0
C      1  0.4557840000000  0.5182320000000  0.5974810000000 1.0
C      1  0.4445440000000  0.5806110000000  0.4338230000000 1.0
C      1  0.6099650000000  0.5072770000000  0.4726480000000 1.0
C      1  0.5103940000000  0.5359720000000  0.3907200000000 1.0
C      1  0.5499300000000  0.5671540000000  0.4424050000000 1.0
C      1  0.4835490000000  0.4392040000000  0.4121580000000 1.0
C      1  0.4792170000000  0.6099560000000  0.5157180000000 1.0
C      1  0.5900170000000  0.4925040000000  0.4210230000000 1.0
C      1  0.5112550000000  0.4611730000000  0.4717800000000 1.0
C      1  0.5182750000000  0.6062120000000  0.4868270000000 1.0
C      1  0.5046750000000  0.5298050000000  0.6115770000000 1.0
C      1  0.4249780000000  0.4410500000000  0.5670100000000 1.0
C      1  0.4837910000000  0.3879460000000  0.4614920000000 1.0
C      1  0.5353420000000  0.4566760000000  0.6025710000000 1.0
C      1  0.5716200000000  0.3986490000000  0.4959720000000 1.0
C      1  0.5476120000000  0.4758510000000  0.5473450000000 1.0
C      1  0.4834270000000  0.4442190000000  0.4410430000000 1.0
C      1  0.5708500000000  0.5493120000000  0.4315370000000 1.0
C      1  0.4624920000000  0.6013960000000  0.5589700000000 1.0
C      1  0.4857070000000  0.4088590000000  0.5306090000000 1.0
C      1  0.4417970000000  0.4711250000000  0.4725900000000 1.0
C      1  0.5363570000000  0.4087310000000  0.4166750000000 1.0
C      1  0.4343150000000  0.4035200000000  0.4518270000000 1.0
C      1  0.4860140000000  0.5173590000000  0.5123310000000 1.0
C      1  0.5012910000000  0.4656780000000  0.4440930000000 1.0
C      1  0.4421170000000  0.5092790000000  0.5011020000000 1.0
C      1  0.4970830000000  0.5693620000000  0.4289250000000 1.0
C      1  0.5410220000000  0.5408860000000  0.4922010000000 1.0
C      1  0.6059870000000  0.5528440000000  0.4953220000000 1.0
C      1  0.3767510000000  0.4078010000000  0.4772430000000 1.0
C      1  0.5700920000000  0.5658810000000  0.5211090000000 1.0
C      1  0.4904540000000  0.6003520000000  0.4906120000000 1.0
C      1  0.4269110000000  0.4746930000000  0.5274770000000 1.0
C      1  0.5155540000000  0.4416810000000  0.5849650000000 1.0
C      1  0.5085180000000  0.5290690000000  0.5233700000000 1.0
C      1  0.4863260000000  0.4860630000000  0.4290360000000 1.0
C      1  0.4614730000000  0.4251280000000  0.4823660000000 1.0
C      1  0.5429610000000  0.3930040000000  0.5365250000000 1.0
C      1  0.3718440000000  0.5157540000000  0.5811190000000 1.0
C      1  0.4760230000000  0.5051780000000  0.4462600000000 1.0
C      1  0.5665250000000  0.5925020000000  0.4817750000000 1.0
C      1  0.5266340000000  0.5142200000000  0.4259520000000 1.0
C      1  0.5584900000000  0.3817080000000  0.4762310000000 1.0
C      1  0.5433360000000  0.4866920000000  0.5010720000000 1.0
C      1  0.5483540000000  0.4937350000000  0.4745510000000 1.0
C      1  0.5443120000000  0.4062440000000  0.5617020000000 1.0
C      1  0.4156970000000  0.5917210000000  0.4975540000000 1.0
C      1  0.4749490000000  0.5033210000000  0.3842500000000 1.0
C      1  0.5565420000000  0.6046990000000  0.5450230000000 1.0
C      1  0.4146900000000  0.4247480000000  0.4518850000000 1.0
C      1  0.5408270000000  0.5214170000000  0.4713640000000 1.0
C      1  0.5152090000000  0.5512050000000  0.5923860000000 1.0
C      1  0.5218870000000  0.5063500000000  0.6167890000000 1.0
C      1  0.4005540000000  0.4450840000000  0.4966950000000 1.0
C      1  0.5032170000000  0.5077110000000  0.3824420000000 1.0
C      1  0.5849860000000  0.5753070000000  0.4976920000000 1.0
C      1  0.3961250000000  0.5542770000000  0.5578310000000 1.0
C      1  0.6150610000000  0.5406780000000  0.5214380000000 1.0
C      1  0.5836210000000  0.5195560000000  0.5476620000000 1.0
C      1  0.5186000000000  0.4827180000000  0.3928130000000 1.0
C      1  0.4751970000000  0.5834580000000  0.4719400000000 1.0
C      1  0.5586820000000  0.4508120000000  0.4374810000000 1.0
C      1  0.4419440000000  0.5969570000000  0.5396810000000 1.0
C      1  0.4759490000000  0.5264760000000  0.6166350000000 1.0
C      1  0.4172730000000  0.5765730000000  0.4474490000000 1.0
C      1  0.6059010000000  0.4859450000000  0.5201720000000 1.0
C      1  0.4739830000000  0.5854960000000  0.4426420000000 1.0
C      1  0.4573720000000  0.4325720000000  0.4027980000000 1.0
C      1  0.3605850000000  0.3877500000000  0.4812470000000 1.0
C      1  0.6006970000000  0.4362750000000  0.5220610000000 1.0
C      1  0.4083090000000  0.5881130000000  0.4714290000000 1.0
C      1  0.6017830000000  0.4618760000000  0.5373180000000 1.0
C      1  0.5257590000000  0.4398320000000  0.5254640000000 1.0
C      1  0.4507160000000  0.6156850000000  0.5177060000000 1.0
C      1  0.4267500000000  0.5180850000000  0.5572680000000 1.0
C      1  0.4160300000000  0.4458930000000  0.4326200000000 1.0
C      1  0.6015670000000  0.4895410000000  0.4455290000000 1.0
C      1  0.4293840000000  0.4954140000000  0.4808200000000 1.0
C      1  0.4514990000000  0.5540950000000  0.5038880000000 1.0
C      1  0.5507910000000  0.6174470000000  0.5218280000000 1.0
C      1  0.4291400000000  0.5107670000000  0.5866940000000 1.0
C      1  0.4118770000000  0.4869090000000  0.5909960000000 1.0
C      1  0.4362760000000  0.4953480000000  0.5441940000000 1.0
C      1  0.4486500000000  0.5584430000000  0.5653510000000 1.0
C      1  0.5934630000000  0.4630130000000  0.5670540000000 1.0
C      1  0.4590870000000  0.4022640000000  0.4658820000000 1.0
C      1  0.4911960000000  0.5002450000000  0.4901590000000 1.0
C      1  0.5209620000000  0.5581310000000  0.4438260000000 1.0
C      1  0.5886360000000  0.4849230000000  0.5859560000000 1.0
C      1  0.5592920000000  0.4643460000000  0.4643940000000 1.0
C      1  0.5546570000000  0.4910120000000  0.5251620000000 1.0
C      1  0.4245540000000  0.4605570000000  0.5885890000000 1.0
C      1  0.4742910000000  0.5464570000000  0.5664540000000 1.0
C      1  0.5688300000000  0.4918900000000  0.6040610000000 1.0
C      1  0.5769820000000  0.4408060000000  0.5773000000000 1.0
C      1  0.3768180000000  0.5394810000000  0.5694670000000 1.0
C      1  0.5374070000000  0.4908010000000  0.5686990000000 1.0
C      1  0.5413140000000  0.5438350000000  0.5816370000000 1.0
C      1  0.5673990000000  0.6120620000000  0.4374530000000 1.0
C      1  0.3843940000000  0.4934740000000  0.5898000000000 1.0
C      1  0.5240340000000  0.4131090000000  0.5812150000000 1.0
C      1  0.4872400000000  0.6023210000000  0.5439530000000 1.0
C      1  0.4584060000000  0.5263050000000  0.3829900000000 1.0
C      1  0.4910160000000  0.5545300000000  0.4035000000000 1.0
C      1  0.5887030000000  0.5437180000000  0.5630010000000 1.0
C      1  0.5935100000000  0.4155080000000  0.5051750000000 1.0
C      1  0.4946450000000  0.5140800000000  0.4649050000000 1.0
C      1  0.4725260000000  0.5183320000000  0.5719170000000 1.0
C      1  0.5487940000000  0.4056750000000  0.5113180000000 1.0
C      1  0.4092660000000  0.4739600000000  0.4390510000000 1.0
C      1  0.5603520000000  0.4297240000000  0.5577390000000 1.0
C      1  0.5461200000000  0.4489590000000  0.5427220000000 1.0
C      1  0.4480570000000  0.5536370000000  0.4236790000000 1.0
C      1  0.4282340000000  0.6169890000000  0.5012390000000 1.0
C      1  0.4485190000000  0.5118180000000  0.4445540000000 1.0
C      1  0.6054840000000  0.5354980000000  0.4717930000000 1.0
C      1  0.4745540000000  0.4640860000000  0.5205440000000 1.0
C      1  0.5182590000000  0.5509400000000  0.5069510000000 1.0
C      1  0.4945840000000  0.3852290000000  0.4355790000000 1.0
C      1  0.6113530000000  0.5552100000000  0.5473750000000 1.0
C      1  0.5613220000000  0.5908520000000  0.4537140000000 1.0
C      1  0.4420200000000  0.4329650000000  0.5447870000000 1.0
C      1  0.4697500000000  0.4903670000000  0.5623390000000 1.0
C      1  0.4034370000000  0.5504170000000  0.4465610000000 1.0
END
