TITL C-627111-6168-740 0.221350524420212 125000 -744.616512666927 0 0 125 (C1) n - 1
REM
REM in /home/nfs/bkarasulu/CARBON/AIRSS/Generating-Clusters/LCBOP/Only-C1/SD-CG/FIRE-CG
REM
REM
REM
REM
REM
REM ./C.cell (11c1c37f851c82e70ff6c80c92926a4b)
REM AIRSS Version 0.9.1 bugfix July 2018 build 013d7b7c2542+ Fri, 06 Jul 2018 19:26:36 +0100
REM compiler GCC version 9.2.1 20190827 (Red Hat 9.2.1-1)
REM options -cpp -mtune=generic -march=x86-64 -g -O0 -fpre-include=/usr/include/finclude/math-vector-fortran.h
REM seed -1442729281 -1813753792 1522030208 1195999453 641037107 350881550 1939802767 -235515291 -761496831 -670237938 2135579928 1832513697 -1583820937 1129888999 -852288983 120043299 -26124403 1689088983 1612388905 713027626 -1500325636 -611633003 479870406 -1467980592 1604571841 675859881 -1281276971 1397308143 311262260 514956175 1329144441 187461042 -916219933
REM
CELL 1.54180   50.00000   50.00000   50.00000   90.00000   90.00000   90.00000
LATT -1
SFAC C  
C      1  0.4858730000000  0.5180710000000  0.4118950000000 1.0
C      1  0.5978630000000  0.4886590000000  0.5157180000000 1.0
C      1  0.4090750000000  0.5637300000000  0.5056670000000 1.0
C      1  0.5343730000000  0.4794990000000  0.4838410000000 1.0
C      1  0.4987890000000  0.5438580000000  0.4099670000000 1.0
C      1  0.5273560000000  0.4436970000000  0.4191030000000 1.0
C      1  0.5292810000000  0.3963280000000  0.5092040000000 1.0
C      1  0.5873890000000  0.5069890000000  0.5560780000000 1.0
C      1  0.5798370000000  0.5106750000000  0.4368050000000 1.0
C      1  0.5268110000000  0.3963020000000  0.4228730000000 1.0
C      1  0.5325760000000  0.5540100000000  0.3769120000000 1.0
C      1  0.5600910000000  0.5017920000000  0.5603070000000 1.0
C      1  0.5929330000000  0.5151970000000  0.5279690000000 1.0
C      1  0.5318780000000  0.4678370000000  0.4335710000000 1.0
C      1  0.5508020000000  0.5617950000000  0.4388910000000 1.0
C      1  0.5436430000000  0.4124110000000  0.5271330000000 1.0
C      1  0.5406920000000  0.4565360000000  0.5587780000000 1.0
C      1  0.6028120000000  0.4829180000000  0.5615560000000 1.0
C      1  0.5604370000000  0.5527510000000  0.5286010000000 1.0
C      1  0.4364460000000  0.4637840000000  0.5774600000000 1.0
C      1  0.4775710000000  0.5295960000000  0.5979150000000 1.0
C      1  0.5166670000000  0.4820350000000  0.5065250000000 1.0
C      1  0.4237370000000  0.5253610000000  0.5439120000000 1.0
C      1  0.4761300000000  0.4398470000000  0.5929570000000 1.0
C      1  0.4790170000000  0.5107900000000  0.4384460000000 1.0
C      1  0.4511710000000  0.5732450000000  0.4593640000000 1.0
C      1  0.4168460000000  0.4874750000000  0.5134380000000 1.0
C      1  0.4890540000000  0.4760980000000  0.5044060000000 1.0
C      1  0.4836440000000  0.4496280000000  0.3951830000000 1.0
C      1  0.4992890000000  0.4534480000000  0.4675890000000 1.0
C      1  0.5092310000000  0.5337660000000  0.5542060000000 1.0
C      1  0.5529670000000  0.4769460000000  0.6206430000000 1.0
C      1  0.5055960000000  0.4331430000000  0.5163490000000 1.0
C      1  0.4831140000000  0.3963920000000  0.4770390000000 1.0
C      1  0.4688670000000  0.5187670000000  0.5287310000000 1.0
C      1  0.5396740000000  0.5547040000000  0.5094290000000 1.0
C      1  0.5515270000000  0.5750430000000  0.4636370000000 1.0
C      1  0.4752010000000  0.4687910000000  0.4627570000000 1.0
C      1  0.5346320000000  0.3703630000000  0.4224160000000 1.0
C      1  0.4718870000000  0.4611090000000  0.5205170000000 1.0
C      1  0.5416260000000  0.4839380000000  0.5488130000000 1.0
C      1  0.4492560000000  0.4420230000000  0.5072460000000 1.0
C      1  0.4967600000000  0.4199530000000  0.5382920000000 1.0
C      1  0.5446610000000  0.5403440000000  0.4220110000000 1.0
C      1  0.5234780000000  0.4666540000000  0.4609480000000 1.0
C      1  0.5256740000000  0.5831560000000  0.4760780000000 1.0
C      1  0.5079490000000  0.3888530000000  0.4926240000000 1.0
C      1  0.4716350000000  0.5486820000000  0.5311650000000 1.0
C      1  0.5324940000000  0.4815300000000  0.6026480000000 1.0
C      1  0.5157530000000  0.5594240000000  0.5988950000000 1.0
C      1  0.4794070000000  0.3809270000000  0.5617600000000 1.0
C      1  0.4519490000000  0.4211520000000  0.5555830000000 1.0
C      1  0.4713420000000  0.4208610000000  0.4880650000000 1.0
C      1  0.4991940000000  0.4066310000000  0.4257080000000 1.0
C      1  0.5015440000000  0.5107930000000  0.5404270000000 1.0
C      1  0.4999250000000  0.4340640000000  0.4126710000000 1.0
C      1  0.5500520000000  0.5595450000000  0.5537060000000 1.0
C      1  0.5808800000000  0.4453260000000  0.5298960000000 1.0
C      1  0.4111280000000  0.5365460000000  0.4973740000000 1.0
C      1  0.4492210000000  0.4823150000000  0.5600080000000 1.0
C      1  0.4133910000000  0.4683320000000  0.5911210000000 1.0
C      1  0.5053270000000  0.5324920000000  0.6029220000000 1.0
C      1  0.4698470000000  0.4693190000000  0.5463790000000 1.0
C      1  0.4934690000000  0.6048120000000  0.5332170000000 1.0
C      1  0.5613640000000  0.4860740000000  0.4834520000000 1.0
C      1  0.4847810000000  0.3965910000000  0.4482130000000 1.0
C      1  0.4321250000000  0.5766300000000  0.5517290000000 1.0
C      1  0.4603740000000  0.4663780000000  0.3968100000000 1.0
C      1  0.4515100000000  0.4389510000000  0.5785340000000 1.0
C      1  0.4611990000000  0.5195600000000  0.3962960000000 1.0
C      1  0.5545390000000  0.5137710000000  0.4265940000000 1.0
C      1  0.4222480000000  0.4719850000000  0.4699020000000 1.0
C      1  0.4290220000000  0.5834370000000  0.5045450000000 1.0
C      1  0.4520350000000  0.5467040000000  0.4062720000000 1.0
C      1  0.5265780000000  0.5801700000000  0.5057740000000 1.0
C      1  0.4914040000000  0.5552580000000  0.5486860000000 1.0
C      1  0.5909810000000  0.5543230000000  0.4938140000000 1.0
C      1  0.4764150000000  0.4063380000000  0.5523380000000 1.0
C      1  0.4385070000000  0.4265150000000  0.5309470000000 1.0
C      1  0.4573450000000  0.4572430000000  0.4445290000000 1.0
C      1  0.5844150000000  0.5408170000000  0.5181710000000 1.0
C      1  0.4209140000000  0.5519760000000  0.5539780000000 1.0
C      1  0.4310100000000  0.5539510000000  0.4510380000000 1.0
C      1  0.4631990000000  0.5110010000000  0.4997630000000 1.0
C      1  0.4975630000000  0.5177070000000  0.4576630000000 1.0
C      1  0.5843060000000  0.4748600000000  0.4943280000000 1.0
C      1  0.5315240000000  0.5337300000000  0.4935650000000 1.0
C      1  0.5760150000000  0.5707390000000  0.4780030000000 1.0
C      1  0.4516420000000  0.5052210000000  0.4441290000000 1.0
C      1  0.5432030000000  0.4197710000000  0.4204510000000 1.0
C      1  0.5213930000000  0.4931140000000  0.5317450000000 1.0
C      1  0.5837910000000  0.4257880000000  0.4829460000000 1.0
C      1  0.5024620000000  0.4447750000000  0.5910420000000 1.0
C      1  0.5210640000000  0.5838780000000  0.5837940000000 1.0
C      1  0.5351920000000  0.4890050000000  0.3906990000000 1.0
C      1  0.5191080000000  0.5924850000000  0.5315500000000 1.0
C      1  0.5550340000000  0.4363560000000  0.5410620000000 1.0
C      1  0.4548390000000  0.4931230000000  0.3872520000000 1.0
C      1  0.5826110000000  0.4464740000000  0.5004430000000 1.0
C      1  0.4182450000000  0.5368130000000  0.4698570000000 1.0
C      1  0.4143970000000  0.5159380000000  0.5179220000000 1.0
C      1  0.5259620000000  0.4591330000000  0.5846350000000 1.0
C      1  0.4463020000000  0.5897460000000  0.4818510000000 1.0
C      1  0.5154740000000  0.6082150000000  0.5952600000000 1.0
C      1  0.4300890000000  0.4917730000000  0.4532190000000 1.0
C      1  0.4492130000000  0.5116410000000  0.5535630000000 1.0
C      1  0.4656750000000  0.6076490000000  0.4935190000000 1.0
C      1  0.5326230000000  0.5829570000000  0.5567010000000 1.0
C      1  0.4766880000000  0.5615980000000  0.4180430000000 1.0
C      1  0.4589790000000  0.5240860000000  0.5796110000000 1.0
C      1  0.4958190000000  0.4361110000000  0.4898670000000 1.0
C      1  0.5401150000000  0.4905600000000  0.4178720000000 1.0
C      1  0.5253730000000  0.5462490000000  0.4020540000000 1.0
C      1  0.5171920000000  0.5254890000000  0.4731580000000 1.0
C      1  0.5349760000000  0.5380010000000  0.5642180000000 1.0
C      1  0.4292160000000  0.5497820000000  0.4229670000000 1.0
C      1  0.5992250000000  0.4670350000000  0.5377180000000 1.0
C      1  0.5199350000000  0.5075030000000  0.6038920000000 1.0
C      1  0.4265590000000  0.4659390000000  0.4970440000000 1.0
C      1  0.4422900000000  0.5911440000000  0.5296870000000 1.0
C      1  0.4732410000000  0.4888840000000  0.4843460000000 1.0
C      1  0.5012390000000  0.5812270000000  0.4598670000000 1.0
C      1  0.4462730000000  0.4583130000000  0.4200650000000 1.0
C      1  0.4769310000000  0.5735880000000  0.4451470000000 1.0
C      1  0.4675080000000  0.6048680000000  0.5225130000000 1.0
END
