TITL C-627111-6168-298 -25341.6804471782 125000 -1052.30173431287 0 0 173 (C1) n - 1
REM
REM in /home/nfs/bkarasulu/CARBON/AIRSS/Generating-Clusters/LCBOP/Only-C1/SD-CG/FIRE-CG
REM
REM
REM
REM
REM
REM ./C.cell (11c1c37f851c82e70ff6c80c92926a4b)
REM AIRSS Version 0.9.1 bugfix July 2018 build 013d7b7c2542+ Fri, 06 Jul 2018 19:26:36 +0100
REM compiler GCC version 9.2.1 20190827 (Red Hat 9.2.1-1)
REM options -cpp -mtune=generic -march=x86-64 -g -O0 -fpre-include=/usr/include/finclude/math-vector-fortran.h
REM seed -1851511720 1931583028 -2045737304 1772501100 -676123348 2025472156 -1954073191 207901760 236118188 -1450821161 -718238002 686509099 -876662761 -1672111350 1098340813 1112356027 -748900460 651713979 1456037951 -1681982604 -361521023 176999885 -413544763 1323750047 43592751 1102822283 974243468 -1131091629 -974712827 -420029709 -1565614121 1302208748 1801929520
REM
CELL 1.54180   50.00000   50.00000   50.00000   90.00000   90.00000   90.00000
LATT -1
SFAC C  
C      1  0.4752670000000  0.4953430000000  0.5639440000000 1.0
C      1  0.4651430000000  0.4481010000000  0.5392060000000 1.0
C      1  0.4438070000000  0.6279590000000  0.5265090000000 1.0
C      1  0.5363390000000  0.4924270000000  0.6017900000000 1.0
C      1  0.5511650000000  0.3735620000000  0.5215360000000 1.0
C      1  0.3911290000000  0.5470320000000  0.4442450000000 1.0
C      1  0.5554990000000  0.4641070000000  0.5720300000000 1.0
C      1  0.4833870000000  0.3535160000000  0.5221830000000 1.0
C      1  0.5968860000000  0.5439470000000  0.5166460000000 1.0
C      1  0.6003900000000  0.4674720000000  0.5145640000000 1.0
C      1  0.4491990000000  0.4825360000000  0.5072740000000 1.0
C      1  0.4534660000000  0.5103080000000  0.5750710000000 1.0
C      1  0.5236010000000  0.5438130000000  0.4907790000000 1.0
C      1  0.5371850000000  0.4036660000000  0.4805190000000 1.0
C      1  0.4995350000000  0.6498070000000  0.4987770000000 1.0
C      1  0.4201390000000  0.5866210000000  0.4463080000000 1.0
C      1  0.4414010000000  0.4927900000000  0.4540600000000 1.0
C      1  0.5740950000000  0.5842280000000  0.4632370000000 1.0
C      1  0.4775510000000  0.5431910000000  0.4120030000000 1.0
C      1  0.4071630000000  0.4692820000000  0.5708800000000 1.0
C      1  0.5281200000000  0.4726450000000  0.5630160000000 1.0
C      1  0.5801120000000  0.3957320000000  0.5599760000000 1.0
C      1  0.4244560000000  0.4474570000000  0.5677470000000 1.0
C      1  0.4528030000000  0.6037100000000  0.5368610000000 1.0
C      1  0.4738720000000  0.3998690000000  0.5362930000000 1.0
C      1  0.3903810000000  0.5157060000000  0.4843820000000 1.0
C      1  0.5724010000000  0.5169840000000  0.5472620000000 1.0
C      1  0.5213320000000  0.4112470000000  0.5668420000000 1.0
C      1  0.3713510000000  0.4729940000000  0.4730770000000 1.0
C      1  0.4542720000000  0.5051340000000  0.3959500000000 1.0
C      1  0.5745820000000  0.5346470000000  0.4331380000000 1.0
C      1  0.5631550000000  0.4872750000000  0.5888540000000 1.0
C      1  0.5154210000000  0.5199610000000  0.4261580000000 1.0
C      1  0.4696250000000  0.5857510000000  0.4235810000000 1.0
C      1  0.5790410000000  0.5438230000000  0.5390530000000 1.0
C      1  0.4593410000000  0.4228040000000  0.4378020000000 1.0
C      1  0.5083450000000  0.5000890000000  0.3794560000000 1.0
C      1  0.4697280000000  0.5849670000000  0.4530800000000 1.0
C      1  0.5794240000000  0.4195270000000  0.5721710000000 1.0
C      1  0.5971810000000  0.5435560000000  0.4475230000000 1.0
C      1  0.5164580000000  0.4428470000000  0.6044400000000 1.0
C      1  0.4891940000000  0.5697390000000  0.4107260000000 1.0
C      1  0.5026390000000  0.4635400000000  0.4947820000000 1.0
C      1  0.4685090000000  0.5046080000000  0.5068990000000 1.0
C      1  0.4983270000000  0.5305980000000  0.5435800000000 1.0
C      1  0.5000020000000  0.5113150000000  0.5645280000000 1.0
C      1  0.5357690000000  0.5010370000000  0.3827530000000 1.0
C      1  0.5312460000000  0.5893050000000  0.5020940000000 1.0
C      1  0.5100000000000  0.5514900000000  0.4652560000000 1.0
C      1  0.4778780000000  0.5234100000000  0.5252740000000 1.0
C      1  0.5511100000000  0.4586890000000  0.5069160000000 1.0
C      1  0.5419390000000  0.4284720000000  0.4399300000000 1.0
C      1  0.4489630000000  0.5143350000000  0.4677800000000 1.0
C      1  0.4670030000000  0.3770110000000  0.5212280000000 1.0
C      1  0.4220380000000  0.5384790000000  0.5505030000000 1.0
C      1  0.5482040000000  0.6327940000000  0.4571050000000 1.0
C      1  0.5530860000000  0.5282560000000  0.4505760000000 1.0
C      1  0.3968880000000  0.4968590000000  0.5299990000000 1.0
C      1  0.4300670000000  0.4563420000000  0.4182140000000 1.0
C      1  0.5622230000000  0.4995080000000  0.5270480000000 1.0
C      1  0.4912980000000  0.5902990000000  0.5712570000000 1.0
C      1  0.5142410000000  0.5524320000000  0.5359860000000 1.0
C      1  0.5086560000000  0.3542930000000  0.5354460000000 1.0
C      1  0.4497150000000  0.4376910000000  0.5619330000000 1.0
C      1  0.4140250000000  0.4848000000000  0.4535610000000 1.0
C      1  0.5106950000000  0.4296020000000  0.5458940000000 1.0
C      1  0.6182720000000  0.4197640000000  0.5151080000000 1.0
C      1  0.5465970000000  0.5056360000000  0.4705180000000 1.0
C      1  0.4622420000000  0.5309650000000  0.5928900000000 1.0
C      1  0.5696120000000  0.5302210000000  0.4056380000000 1.0
C      1  0.4424320000000  0.5834290000000  0.4651290000000 1.0
C      1  0.5722700000000  0.4909060000000  0.4784880000000 1.0
C      1  0.4172790000000  0.4574270000000  0.4454310000000 1.0
C      1  0.4955930000000  0.5790820000000  0.4666740000000 1.0
C      1  0.5599110000000  0.5950340000000  0.4862930000000 1.0
C      1  0.3890730000000  0.4698740000000  0.5921450000000 1.0
C      1  0.5758110000000  0.5076930000000  0.5738630000000 1.0
C      1  0.4696060000000  0.4244210000000  0.5787660000000 1.0
C      1  0.5043130000000  0.4557540000000  0.5606050000000 1.0
C      1  0.5256510000000  0.4728460000000  0.5093160000000 1.0
C      1  0.5358310000000  0.5630620000000  0.6193840000000 1.0
C      1  0.4969050000000  0.4346090000000  0.4977400000000 1.0
C      1  0.5672960000000  0.3786860000000  0.5439820000000 1.0
C      1  0.4955430000000  0.6237380000000  0.4887570000000 1.0
C      1  0.4367990000000  0.5639590000000  0.4851020000000 1.0
C      1  0.4769380000000  0.5108780000000  0.4783850000000 1.0
C      1  0.4450160000000  0.4318460000000  0.4148930000000 1.0
C      1  0.5218700000000  0.4900670000000  0.4590160000000 1.0
C      1  0.6056540000000  0.3985430000000  0.5049260000000 1.0
C      1  0.5552600000000  0.6258320000000  0.4836990000000 1.0
C      1  0.4796520000000  0.4704440000000  0.5506130000000 1.0
C      1  0.4321180000000  0.5566790000000  0.4104300000000 1.0
C      1  0.5135060000000  0.4302780000000  0.4483190000000 1.0
C      1  0.6071200000000  0.5332860000000  0.4940230000000 1.0
C      1  0.5784980000000  0.4859280000000  0.4108800000000 1.0
C      1  0.4591310000000  0.4434750000000  0.4576070000000 1.0
C      1  0.5221840000000  0.4664970000000  0.4185310000000 1.0
C      1  0.5245410000000  0.6530140000000  0.5116340000000 1.0
C      1  0.4819960000000  0.6702850000000  0.4952020000000 1.0
C      1  0.5953350000000  0.5708170000000  0.4538130000000 1.0
C      1  0.5083660000000  0.4153330000000  0.4758540000000 1.0
C      1  0.4273560000000  0.5649890000000  0.5116130000000 1.0
C      1  0.5745540000000  0.4787990000000  0.5069710000000 1.0
C      1  0.4805270000000  0.5504480000000  0.5963280000000 1.0
C      1  0.5096920000000  0.3634750000000  0.5621180000000 1.0
C      1  0.5391660000000  0.6213770000000  0.4343560000000 1.0
C      1  0.5391950000000  0.3287040000000  0.5076930000000 1.0
C      1  0.5071720000000  0.5983020000000  0.4850660000000 1.0
C      1  0.5330140000000  0.3517170000000  0.5211100000000 1.0
C      1  0.5213580000000  0.4921210000000  0.4301770000000 1.0
C      1  0.4882480000000  0.3947690000000  0.4666810000000 1.0
C      1  0.5593290000000  0.4372800000000  0.5799160000000 1.0
C      1  0.6052790000000  0.5239470000000  0.4670760000000 1.0
C      1  0.5398320000000  0.6077370000000  0.5264730000000 1.0
C      1  0.5001310000000  0.5690200000000  0.5874530000000 1.0
C      1  0.4104810000000  0.4921580000000  0.5545440000000 1.0
C      1  0.5944120000000  0.4972630000000  0.4611640000000 1.0
C      1  0.5296120000000  0.6022540000000  0.4180260000000 1.0
C      1  0.5481870000000  0.5651460000000  0.5731210000000 1.0
C      1  0.5459360000000  0.4494180000000  0.4208270000000 1.0
C      1  0.5345820000000  0.5002660000000  0.5163910000000 1.0
C      1  0.4213360000000  0.3793350000000  0.4925490000000 1.0
C      1  0.5639340000000  0.5919540000000  0.5354910000000 1.0
C      1  0.5210290000000  0.4977100000000  0.5771130000000 1.0
C      1  0.4927050000000  0.4829730000000  0.4717900000000 1.0
C      1  0.4435130000000  0.3772710000000  0.5060820000000 1.0
C      1  0.4318100000000  0.5643370000000  0.5574710000000 1.0
C      1  0.4920900000000  0.4428220000000  0.5873890000000 1.0
C      1  0.4859340000000  0.4264120000000  0.5256050000000 1.0
C      1  0.5614150000000  0.5043180000000  0.3960140000000 1.0
C      1  0.5832450000000  0.3927550000000  0.4895060000000 1.0
C      1  0.3991010000000  0.5185060000000  0.5114150000000 1.0
C      1  0.4282460000000  0.5133120000000  0.5621080000000 1.0
C      1  0.5553570000000  0.3897810000000  0.4988760000000 1.0
C      1  0.4701890000000  0.3984610000000  0.4466760000000 1.0
C      1  0.5810970000000  0.4023870000000  0.4626040000000 1.0
C      1  0.3829810000000  0.5369640000000  0.4676370000000 1.0
C      1  0.5246980000000  0.5621310000000  0.5117580000000 1.0
C      1  0.4885890000000  0.5312600000000  0.4606360000000 1.0
C      1  0.4371250000000  0.5380860000000  0.4744620000000 1.0
C      1  0.4811360000000  0.4997820000000  0.3839420000000 1.0
C      1  0.4372090000000  0.5805290000000  0.5341440000000 1.0
C      1  0.5444850000000  0.6330430000000  0.5107980000000 1.0
C      1  0.5788680000000  0.5918320000000  0.5105660000000 1.0
C      1  0.4352340000000  0.4620790000000  0.4948300000000 1.0
C      1  0.6159240000000  0.4461510000000  0.5181410000000 1.0
C      1  0.3920490000000  0.4908330000000  0.4704730000000 1.0
C      1  0.4300800000000  0.6488580000000  0.5191390000000 1.0
C      1  0.5924750000000  0.4863390000000  0.4344950000000 1.0
C      1  0.4385550000000  0.4814600000000  0.4044070000000 1.0
C      1  0.4138450000000  0.5406350000000  0.5220600000000 1.0
C      1  0.5290880000000  0.5408760000000  0.4426330000000 1.0
C      1  0.5548680000000  0.4112260000000  0.4573850000000 1.0
C      1  0.5020340000000  0.4483450000000  0.4291730000000 1.0
C      1  0.5281160000000  0.5656830000000  0.5931500000000 1.0
C      1  0.4746740000000  0.3301060000000  0.5109000000000 1.0
C      1  0.5142560000000  0.5822970000000  0.4083770000000 1.0
C      1  0.5347430000000  0.4253760000000  0.5885540000000 1.0
C      1  0.4883790000000  0.5267910000000  0.4316690000000 1.0
C      1  0.4774360000000  0.3992380000000  0.5657790000000 1.0
C      1  0.4757390000000  0.6020220000000  0.5530660000000 1.0
C      1  0.3710910000000  0.4781140000000  0.6406680000000 1.0
C      1  0.4443710000000  0.5850920000000  0.4094880000000 1.0
C      1  0.5650480000000  0.5672760000000  0.5503780000000 1.0
C      1  0.4328000000000  0.4470960000000  0.4696850000000 1.0
C      1  0.4125430000000  0.5605890000000  0.4327890000000 1.0
C      1  0.5337020000000  0.5181350000000  0.4945050000000 1.0
C      1  0.4259120000000  0.6030080000000  0.4230400000000 1.0
C      1  0.3780460000000  0.4733260000000  0.6159940000000 1.0
C      1  0.4507890000000  0.5346390000000  0.4038390000000 1.0
C      1  0.4688970000000  0.4700350000000  0.4557560000000 1.0
C      1  0.5256210000000  0.4684510000000  0.6152830000000 1.0
C      1  0.5038430000000  0.3891310000000  0.5714610000000 1.0
END
