TITL C-627109-622-1200 1123.10599553231 125000 -823.60216723809 0 0 139 (C1) n - 1
REM
REM in /home/nfs/bkarasulu/CARBON/AIRSS/Generating-Clusters/LCBOP/Only-C1/SD-CG/FIRE-CG
REM
REM
REM
REM
REM
REM ./C.cell (11c1c37f851c82e70ff6c80c92926a4b)
REM AIRSS Version 0.9.1 bugfix July 2018 build 013d7b7c2542+ Fri, 06 Jul 2018 19:26:36 +0100
REM compiler GCC version 9.2.1 20190827 (Red Hat 9.2.1-1)
REM options -cpp -mtune=generic -march=x86-64 -g -O0 -fpre-include=/usr/include/finclude/math-vector-fortran.h
REM seed -1689155988 81983537 -2133520950 -1175286408 1763124431 -1519949525 701737415 1661271096 974769100 -341733473 688994589 1189877827 -1668194233 1095555165 -351008046 107692976 -1368365351 -835535934 1777114070 1276793641 -1777713307 -912839921 -1322915149 61494577 -2056669620 1308655509 534023169 -340795059 -895747388 1698238453 1146146187 279826323 -1033000688
REM
CELL 1.54180   50.00000   50.00000   50.00000   90.00000   90.00000   90.00000
LATT -1
SFAC C  
C      1  0.5357150000000  0.5529940000000  0.4438970000000 1.0
C      1  0.5445150000000  0.4353830000000  0.5480260000000 1.0
C      1  0.5321740000000  0.5678830000000  0.4983010000000 1.0
C      1  0.5442640000000  0.4383800000000  0.5970650000000 1.0
C      1  0.5555750000000  0.5091350000000  0.3243250000000 1.0
C      1  0.4024820000000  0.4649000000000  0.4481210000000 1.0
C      1  0.5269510000000  0.5846210000000  0.4759230000000 1.0
C      1  0.5716930000000  0.5311000000000  0.5311380000000 1.0
C      1  0.4332370000000  0.4201510000000  0.4048760000000 1.0
C      1  0.5551040000000  0.4785810000000  0.4157980000000 1.0
C      1  0.4721590000000  0.5324440000000  0.5481800000000 1.0
C      1  0.5147010000000  0.4003140000000  0.4942960000000 1.0
C      1  0.3917090000000  0.4962870000000  0.4817440000000 1.0
C      1  0.5260870000000  0.4148650000000  0.4383110000000 1.0
C      1  0.4145670000000  0.4353010000000  0.5405500000000 1.0
C      1  0.5428840000000  0.5300180000000  0.4597260000000 1.0
C      1  0.5275910000000  0.5300930000000  0.5495930000000 1.0
C      1  0.5247140000000  0.4811620000000  0.6041300000000 1.0
C      1  0.4994340000000  0.4573190000000  0.5405520000000 1.0
C      1  0.4987200000000  0.4908750000000  0.5985230000000 1.0
C      1  0.4934680000000  0.4879930000000  0.4983480000000 1.0
C      1  0.5214810000000  0.3817940000000  0.5140880000000 1.0
C      1  0.5655640000000  0.5150020000000  0.4684560000000 1.0
C      1  0.4679950000000  0.5273530000000  0.5960400000000 1.0
C      1  0.5481690000000  0.4921530000000  0.5914550000000 1.0
C      1  0.4379990000000  0.4485760000000  0.4795830000000 1.0
C      1  0.4752590000000  0.4738950000000  0.5938190000000 1.0
C      1  0.4363970000000  0.5974470000000  0.5044790000000 1.0
C      1  0.4407290000000  0.4237700000000  0.5465760000000 1.0
C      1  0.4016460000000  0.5122690000000  0.5260030000000 1.0
C      1  0.5277920000000  0.3652730000000  0.5332270000000 1.0
C      1  0.4834760000000  0.4048070000000  0.4558250000000 1.0
C      1  0.5212400000000  0.5128350000000  0.4639140000000 1.0
C      1  0.4161610000000  0.4464570000000  0.4621130000000 1.0
C      1  0.4676180000000  0.5612010000000  0.5573640000000 1.0
C      1  0.5996480000000  0.5084920000000  0.5662080000000 1.0
C      1  0.4297920000000  0.5196640000000  0.5363920000000 1.0
C      1  0.5236980000000  0.5015450000000  0.4968150000000 1.0
C      1  0.5262690000000  0.4338660000000  0.4609640000000 1.0
C      1  0.5510480000000  0.5628100000000  0.4218620000000 1.0
C      1  0.3889400000000  0.4747890000000  0.5013080000000 1.0
C      1  0.5080190000000  0.4560240000000  0.4582480000000 1.0
C      1  0.4433590000000  0.6092640000000  0.5491420000000 1.0
C      1  0.4126300000000  0.4640450000000  0.5470060000000 1.0
C      1  0.4886760000000  0.5921080000000  0.5162740000000 1.0
C      1  0.4131060000000  0.5112900000000  0.4382810000000 1.0
C      1  0.4423040000000  0.5781990000000  0.5506900000000 1.0
C      1  0.5622460000000  0.4106430000000  0.4794310000000 1.0
C      1  0.4688530000000  0.5421230000000  0.4573050000000 1.0
C      1  0.4956360000000  0.5191530000000  0.5925370000000 1.0
C      1  0.5195380000000  0.5263930000000  0.5211150000000 1.0
C      1  0.4587570000000  0.5539600000000  0.5110160000000 1.0
C      1  0.3996350000000  0.4811520000000  0.5278630000000 1.0
C      1  0.4622530000000  0.5288590000000  0.4312870000000 1.0
C      1  0.5288890000000  0.4543960000000  0.6127850000000 1.0
C      1  0.4659480000000  0.5180350000000  0.4752950000000 1.0
C      1  0.5347250000000  0.4168760000000  0.4825190000000 1.0
C      1  0.5539430000000  0.5412950000000  0.5486810000000 1.0
C      1  0.4937190000000  0.4486640000000  0.4326510000000 1.0
C      1  0.5987230000000  0.5499890000000  0.4281660000000 1.0
C      1  0.3958020000000  0.5201710000000  0.4973510000000 1.0
C      1  0.3955130000000  0.5452100000000  0.4852390000000 1.0
C      1  0.5792600000000  0.4266420000000  0.4655220000000 1.0
C      1  0.5700590000000  0.5225250000000  0.4021540000000 1.0
C      1  0.4267580000000  0.5229860000000  0.5663380000000 1.0
C      1  0.5608740000000  0.5139060000000  0.3494000000000 1.0
C      1  0.3987160000000  0.5276430000000  0.5709790000000 1.0
C      1  0.5710490000000  0.5033080000000  0.5257150000000 1.0
C      1  0.4547970000000  0.4086460000000  0.5275780000000 1.0
C      1  0.4671660000000  0.4024590000000  0.5045500000000 1.0
C      1  0.6253370000000  0.4987940000000  0.5047220000000 1.0
C      1  0.5074050000000  0.5073460000000  0.4396990000000 1.0
C      1  0.4559000000000  0.5266960000000  0.5230160000000 1.0
C      1  0.5053250000000  0.3968100000000  0.4388280000000 1.0
C      1  0.4635020000000  0.4478410000000  0.4687770000000 1.0
C      1  0.4455170000000  0.5133350000000  0.5850980000000 1.0
C      1  0.5741900000000  0.5485170000000  0.4136300000000 1.0
C      1  0.5356000000000  0.6078180000000  0.3964410000000 1.0
C      1  0.4959250000000  0.5984360000000  0.5432340000000 1.0
C      1  0.5709790000000  0.5010570000000  0.4216350000000 1.0
C      1  0.4883110000000  0.6055190000000  0.4907150000000 1.0
C      1  0.4730830000000  0.4461310000000  0.5851170000000 1.0
C      1  0.4699270000000  0.4932350000000  0.4582530000000 1.0
C      1  0.5888860000000  0.5188450000000  0.5900200000000 1.0
C      1  0.5793020000000  0.4710570000000  0.4895040000000 1.0
C      1  0.5145300000000  0.6094930000000  0.4807430000000 1.0
C      1  0.5746640000000  0.4502020000000  0.5106600000000 1.0
C      1  0.6217440000000  0.4475570000000  0.5476940000000 1.0
C      1  0.4851680000000  0.5072170000000  0.5517720000000 1.0
C      1  0.4709760000000  0.5092650000000  0.5026920000000 1.0
C      1  0.5331190000000  0.4662110000000  0.4066890000000 1.0
C      1  0.4379470000000  0.6186630000000  0.5236400000000 1.0
C      1  0.4344910000000  0.5237050000000  0.4273400000000 1.0
C      1  0.5660340000000  0.5185220000000  0.3749710000000 1.0
C      1  0.5134310000000  0.5355260000000  0.5751460000000 1.0
C      1  0.4912430000000  0.4819830000000  0.5458870000000 1.0
C      1  0.3986520000000  0.4122980000000  0.3660660000000 1.0
C      1  0.4344060000000  0.4668650000000  0.5672480000000 1.0
C      1  0.4221510000000  0.5824160000000  0.4618350000000 1.0
C      1  0.6321210000000  0.5115870000000  0.5272530000000 1.0
C      1  0.4847970000000  0.4702510000000  0.4734010000000 1.0
C      1  0.4862250000000  0.5634360000000  0.5114010000000 1.0
C      1  0.4366680000000  0.4581630000000  0.5048110000000 1.0
C      1  0.6019560000000  0.4651240000000  0.5460370000000 1.0
C      1  0.6227390000000  0.5159750000000  0.5520380000000 1.0
C      1  0.5083850000000  0.4558860000000  0.4097880000000 1.0
C      1  0.4510490000000  0.4413270000000  0.5671910000000 1.0
C      1  0.4709180000000  0.5912910000000  0.4713650000000 1.0
C      1  0.4798710000000  0.5051230000000  0.4333750000000 1.0
C      1  0.4428110000000  0.5940630000000  0.4768440000000 1.0
C      1  0.5816240000000  0.4867940000000  0.5513560000000 1.0
C      1  0.3841450000000  0.5237840000000  0.5478400000000 1.0
C      1  0.5599140000000  0.4759560000000  0.5702660000000 1.0
C      1  0.5068880000000  0.6223810000000  0.5503450000000 1.0
C      1  0.4911500000000  0.5773890000000  0.5622980000000 1.0
C      1  0.5589230000000  0.4954780000000  0.4959860000000 1.0
C      1  0.4190400000000  0.5728610000000  0.5687160000000 1.0
C      1  0.6413070000000  0.4303420000000  0.5482080000000 1.0
C      1  0.5138820000000  0.5688910000000  0.4549230000000 1.0
C      1  0.6045660000000  0.5282910000000  0.4438380000000 1.0
C      1  0.4872870000000  0.4015150000000  0.4846370000000 1.0
C      1  0.3999700000000  0.4922670000000  0.4547720000000 1.0
C      1  0.5099030000000  0.5639160000000  0.5783800000000 1.0
C      1  0.5630100000000  0.4334110000000  0.5274920000000 1.0
C      1  0.4838570000000  0.5672320000000  0.4584720000000 1.0
C      1  0.4489550000000  0.4852090000000  0.5847070000000 1.0
C      1  0.5649140000000  0.5127020000000  0.6008860000000 1.0
C      1  0.5531450000000  0.4477920000000  0.5718000000000 1.0
C      1  0.5801320000000  0.4538510000000  0.4649790000000 1.0
C      1  0.4708570000000  0.4305110000000  0.4446310000000 1.0
C      1  0.5834310000000  0.5091660000000  0.4471680000000 1.0
C      1  0.4394840000000  0.5727870000000  0.5200470000000 1.0
C      1  0.5118770000000  0.5509220000000  0.5094300000000 1.0
C      1  0.4497050000000  0.4252080000000  0.4249880000000 1.0
C      1  0.4158680000000  0.4161030000000  0.3852700000000 1.0
C      1  0.5434190000000  0.5859750000000  0.4083090000000 1.0
C      1  0.6069320000000  0.4839760000000  0.4922930000000 1.0
C      1  0.4035860000000  0.5642160000000  0.4683780000000 1.0
C      1  0.5173240000000  0.4377230000000  0.5419720000000 1.0
END
