TITL C-627108-131-585 0.0151677554860768 125000 -554.23886352273 0 0 92 (C1) n - 1
REM
REM in /home/nfs/bkarasulu/CARBON/AIRSS/Generating-Clusters/LCBOP/Only-C1/SD-CG/FIRE-CG
REM
REM
REM
REM
REM
REM ./C.cell (11c1c37f851c82e70ff6c80c92926a4b)
REM AIRSS Version 0.9.1 bugfix July 2018 build 013d7b7c2542+ Fri, 06 Jul 2018 19:26:36 +0100
REM compiler GCC version 9.2.1 20190827 (Red Hat 9.2.1-1)
REM options -cpp -mtune=generic -march=x86-64 -g -O0 -fpre-include=/usr/include/finclude/math-vector-fortran.h
REM seed -819265285 -2055461813 -1558206727 1704608805 -75304700 -1020559672 50805608 -391345673 961960697 1389242386 -613382210 200719499 -385178822 789148564 -1247435964 1115042922 -639817151 1438950703 1853124932 -313850619 824419006 -1676444841 48295651 -492182256 -367959665 1616703387 -359122990 1226425489 716491360 -1509154740 -277594607 -1404510073 -1026987855
REM
CELL 1.54180   50.00000   50.00000   50.00000   90.00000   90.00000   90.00000
LATT -1
SFAC C  
C      1  0.5040520000000  0.4196080000000  0.4704840000000 1.0
C      1  0.4595030000000  0.5206510000000  0.4067890000000 1.0
C      1  0.5831670000000  0.5154500000000  0.4586040000000 1.0
C      1  0.5375830000000  0.5485550000000  0.4520440000000 1.0
C      1  0.4801260000000  0.4202340000000  0.4247020000000 1.0
C      1  0.5162290000000  0.5700710000000  0.5337520000000 1.0
C      1  0.4285460000000  0.5240290000000  0.4398280000000 1.0
C      1  0.5030910000000  0.5829140000000  0.4645070000000 1.0
C      1  0.6148140000000  0.4625550000000  0.5530620000000 1.0
C      1  0.4893700000000  0.4699320000000  0.5013900000000 1.0
C      1  0.5192400000000  0.4790800000000  0.5449350000000 1.0
C      1  0.5702430000000  0.4734200000000  0.5460890000000 1.0
C      1  0.4280040000000  0.4456420000000  0.5488870000000 1.0
C      1  0.5042800000000  0.5569520000000  0.5540860000000 1.0
C      1  0.4932950000000  0.6160190000000  0.4993890000000 1.0
C      1  0.5281350000000  0.5204290000000  0.5043280000000 1.0
C      1  0.4786090000000  0.5247180000000  0.5127320000000 1.0
C      1  0.5046160000000  0.4671170000000  0.4769950000000 1.0
C      1  0.4645200000000  0.4293960000000  0.4964100000000 1.0
C      1  0.5466060000000  0.5002820000000  0.5106840000000 1.0
C      1  0.4365560000000  0.5238630000000  0.5916550000000 1.0
C      1  0.5035840000000  0.4951120000000  0.5872270000000 1.0
C      1  0.4174160000000  0.5414320000000  0.5968300000000 1.0
C      1  0.4384180000000  0.5052160000000  0.4203120000000 1.0
C      1  0.5455870000000  0.4453710000000  0.4599820000000 1.0
C      1  0.5461830000000  0.4913450000000  0.5390410000000 1.0
C      1  0.4839950000000  0.5148930000000  0.5826130000000 1.0
C      1  0.5570870000000  0.5555880000000  0.4720190000000 1.0
C      1  0.4423880000000  0.7007260000000  0.5364900000000 1.0
C      1  0.5065700000000  0.5931510000000  0.4907290000000 1.0
C      1  0.5246320000000  0.5787810000000  0.5079800000000 1.0
C      1  0.4985880000000  0.4842530000000  0.4538070000000 1.0
C      1  0.5991460000000  0.5124800000000  0.5536550000000 1.0
C      1  0.4854450000000  0.4187510000000  0.5660710000000 1.0
C      1  0.5768270000000  0.5268080000000  0.5594340000000 1.0
C      1  0.4804690000000  0.4840530000000  0.4302890000000 1.0
C      1  0.5031190000000  0.4298320000000  0.4146420000000 1.0
C      1  0.4509450000000  0.4807750000000  0.4298470000000 1.0
C      1  0.4677420000000  0.6585660000000  0.5179410000000 1.0
C      1  0.4317510000000  0.4681320000000  0.5631170000000 1.0
C      1  0.5290120000000  0.4521220000000  0.5836340000000 1.0
C      1  0.4948350000000  0.5499480000000  0.4235350000000 1.0
C      1  0.4969210000000  0.4817570000000  0.5267630000000 1.0
C      1  0.4549600000000  0.6798210000000  0.5272920000000 1.0
C      1  0.4633410000000  0.4182270000000  0.5227120000000 1.0
C      1  0.4407600000000  0.4734540000000  0.4907640000000 1.0
C      1  0.4635360000000  0.4582150000000  0.4980930000000 1.0
C      1  0.5155710000000  0.4742560000000  0.5729420000000 1.0
C      1  0.5508940000000  0.4388880000000  0.5754770000000 1.0
C      1  0.5372450000000  0.5194020000000  0.4428290000000 1.0
C      1  0.5077790000000  0.5569820000000  0.4510680000000 1.0
C      1  0.4805200000000  0.6373160000000  0.5085950000000 1.0
C      1  0.4262700000000  0.4630170000000  0.4690280000000 1.0
C      1  0.4651010000000  0.5352200000000  0.4698040000000 1.0
C      1  0.4849510000000  0.5054650000000  0.4088200000000 1.0
C      1  0.4393840000000  0.4014170000000  0.4441110000000 1.0
C      1  0.5272590000000  0.4415460000000  0.4163100000000 1.0
C      1  0.5978900000000  0.4851440000000  0.5472220000000 1.0
C      1  0.5619930000000  0.5015490000000  0.4458960000000 1.0
C      1  0.4921840000000  0.5394860000000  0.5707410000000 1.0
C      1  0.5281980000000  0.4339880000000  0.5069690000000 1.0
C      1  0.4812020000000  0.5047930000000  0.5320110000000 1.0
C      1  0.4395320000000  0.4245640000000  0.5368550000000 1.0
C      1  0.4957210000000  0.5337940000000  0.4685620000000 1.0
C      1  0.5027330000000  0.5306370000000  0.4979740000000 1.0
C      1  0.5518960000000  0.5167920000000  0.5555090000000 1.0
C      1  0.5995900000000  0.4403240000000  0.5593890000000 1.0
C      1  0.5464290000000  0.4542650000000  0.4330750000000 1.0
C      1  0.5482360000000  0.5695560000000  0.4949870000000 1.0
C      1  0.5054240000000  0.5259730000000  0.4089490000000 1.0
C      1  0.4770400000000  0.4338820000000  0.5865120000000 1.0
C      1  0.3986170000000  0.5587800000000  0.6018550000000 1.0
C      1  0.4498940000000  0.5422500000000  0.4470740000000 1.0
C      1  0.5807650000000  0.5399080000000  0.4704090000000 1.0
C      1  0.4505960000000  0.4778910000000  0.5818220000000 1.0
C      1  0.4395260000000  0.5011620000000  0.4960850000000 1.0
C      1  0.4638070000000  0.4131840000000  0.4469490000000 1.0
C      1  0.4561570000000  0.5237900000000  0.4947200000000 1.0
C      1  0.4657550000000  0.5461370000000  0.4224540000000 1.0
C      1  0.4568230000000  0.5057460000000  0.5853260000000 1.0
C      1  0.4879260000000  0.4167830000000  0.5380140000000 1.0
C      1  0.5634170000000  0.4869210000000  0.4939340000000 1.0
C      1  0.4657800000000  0.4571580000000  0.5937260000000 1.0
C      1  0.5226120000000  0.4421210000000  0.4782620000000 1.0
C      1  0.5576140000000  0.4796630000000  0.4264600000000 1.0
C      1  0.5129860000000  0.4217680000000  0.5257210000000 1.0
C      1  0.4757850000000  0.4180690000000  0.4723950000000 1.0
C      1  0.5316580000000  0.5171540000000  0.4128720000000 1.0
C      1  0.5714510000000  0.4466210000000  0.5583540000000 1.0
C      1  0.5111160000000  0.5098140000000  0.4563730000000 1.0
C      1  0.5462810000000  0.4942440000000  0.4038960000000 1.0
C      1  0.4345510000000  0.4628560000000  0.4434920000000 1.0
END
