TITL C-627106-156-62 -9.70232427509836e-07 125000 -454.840307939601 0 0 74 (C1) n - 1
REM
REM in /home/nfs/bkarasulu/CARBON/AIRSS/Generating-Clusters/LCBOP/Only-C1/SD-CG/FIRE-CG
REM
REM
REM
REM
REM
REM ./C.cell (11c1c37f851c82e70ff6c80c92926a4b)
REM AIRSS Version 0.9.1 bugfix July 2018 build 013d7b7c2542+ Fri, 06 Jul 2018 19:26:36 +0100
REM compiler GCC version 9.2.1 20190827 (Red Hat 9.2.1-1)
REM options -cpp -mtune=generic -march=x86-64 -g -O0 -fpre-include=/usr/include/finclude/math-vector-fortran.h
REM seed -1813776078 -1363084338 923122663 723131784 660786645 -912960222 -2080930400 -1840218932 98251036 2046819755 339977205 2020222356 -1404231252 -570896565 1925891365 -360956961 -1347451378 295835535 2077159120 1556948987 -1774949818 -1321693601 -1392359404 -1409195965 1464677843 802652949 454351441 -600321108 1067331073 1401968938 -1223885748 -114939654 -144742443
REM
CELL 1.54180   50.00000   50.00000   50.00000   90.00000   90.00000   90.00000
LATT -1
SFAC C  
C      1  0.4288980000000  0.4188190000000  0.5155440000000 1.0
C      1  0.4623130000000  0.4673790000000  0.6005610000000 1.0
C      1  0.5771350000000  0.4477220000000  0.5054710000000 1.0
C      1  0.5573210000000  0.4553730000000  0.4559500000000 1.0
C      1  0.4976160000000  0.4338850000000  0.5524360000000 1.0
C      1  0.5005070000000  0.5573800000000  0.4422170000000 1.0
C      1  0.5498920000000  0.5600670000000  0.4993800000000 1.0
C      1  0.4252410000000  0.5439510000000  0.4480190000000 1.0
C      1  0.5612400000000  0.5456340000000  0.5791970000000 1.0
C      1  0.5421700000000  0.4388620000000  0.4732140000000 1.0
C      1  0.4289340000000  0.5986780000000  0.5225780000000 1.0
C      1  0.5335230000000  0.4336490000000  0.5205650000000 1.0
C      1  0.4478140000000  0.5570780000000  0.4429770000000 1.0
C      1  0.5139210000000  0.4369560000000  0.4682870000000 1.0
C      1  0.4715870000000  0.4753210000000  0.4987770000000 1.0
C      1  0.5063640000000  0.5383900000000  0.5451460000000 1.0
C      1  0.5520590000000  0.4361320000000  0.4998310000000 1.0
C      1  0.5107650000000  0.4743150000000  0.4360220000000 1.0
C      1  0.5763610000000  0.4983360000000  0.4977220000000 1.0
C      1  0.5566020000000  0.4662560000000  0.5676380000000 1.0
C      1  0.5147670000000  0.5764110000000  0.4706860000000 1.0
C      1  0.5863920000000  0.4728820000000  0.5044310000000 1.0
C      1  0.5664300000000  0.5020690000000  0.4708120000000 1.0
C      1  0.5391100000000  0.5378890000000  0.4848770000000 1.0
C      1  0.4152540000000  0.5164000000000  0.4860410000000 1.0
C      1  0.5059740000000  0.5034540000000  0.4829790000000 1.0
C      1  0.5692840000000  0.5465270000000  0.5157700000000 1.0
C      1  0.4580280000000  0.5185000000000  0.5158860000000 1.0
C      1  0.5402680000000  0.5619340000000  0.5752270000000 1.0
C      1  0.4695160000000  0.3942400000000  0.5148790000000 1.0
C      1  0.4114860000000  0.4990470000000  0.4400070000000 1.0
C      1  0.4954360000000  0.4926070000000  0.5393850000000 1.0
C      1  0.4478270000000  0.4059140000000  0.5578880000000 1.0
C      1  0.4801900000000  0.5747760000000  0.4765570000000 1.0
C      1  0.4476100000000  0.5840840000000  0.5117470000000 1.0
C      1  0.4538400000000  0.4429190000000  0.5942650000000 1.0
C      1  0.4311470000000  0.4411010000000  0.5009780000000 1.0
C      1  0.5011750000000  0.5386730000000  0.5170240000000 1.0
C      1  0.5525340000000  0.5347350000000  0.4387360000000 1.0
C      1  0.4730990000000  0.4937750000000  0.5206910000000 1.0
C      1  0.4920370000000  0.4792320000000  0.4797300000000 1.0
C      1  0.5607760000000  0.5073610000000  0.5443590000000 1.0
C      1  0.5069250000000  0.5355650000000  0.4248700000000 1.0
C      1  0.4677560000000  0.5102040000000  0.3989230000000 1.0
C      1  0.4992340000000  0.4148090000000  0.4771230000000 1.0
C      1  0.4877750000000  0.5258770000000  0.4067440000000 1.0
C      1  0.4313690000000  0.5171100000000  0.5073140000000 1.0
C      1  0.5329770000000  0.4920240000000  0.4345230000000 1.0
C      1  0.4864000000000  0.5099160000000  0.5831880000000 1.0
C      1  0.5187590000000  0.4757180000000  0.5398670000000 1.0
C      1  0.5016000000000  0.4614520000000  0.4597710000000 1.0
C      1  0.5417320000000  0.6083160000000  0.4960890000000 1.0
C      1  0.4143600000000  0.5201440000000  0.4582990000000 1.0
C      1  0.4733810000000  0.5423570000000  0.5114350000000 1.0
C      1  0.5186720000000  0.5587400000000  0.5596910000000 1.0
C      1  0.5704130000000  0.5173510000000  0.5191300000000 1.0
C      1  0.4967470000000  0.5146950000000  0.5577030000000 1.0
C      1  0.5356680000000  0.5827300000000  0.4889060000000 1.0
C      1  0.5158460000000  0.5263950000000  0.4954940000000 1.0
C      1  0.5556050000000  0.4832000000000  0.4516200000000 1.0
C      1  0.5681100000000  0.5228230000000  0.5669350000000 1.0
C      1  0.4476600000000  0.4035380000000  0.5299740000000 1.0
C      1  0.4244020000000  0.4906410000000  0.4181290000000 1.0
C      1  0.4861600000000  0.3995500000000  0.4946600000000 1.0
C      1  0.4490600000000  0.4210370000000  0.5798260000000 1.0
C      1  0.4666560000000  0.5675050000000  0.5000380000000 1.0
C      1  0.5450580000000  0.4838240000000  0.5494780000000 1.0
C      1  0.5309160000000  0.5202360000000  0.4277090000000 1.0
C      1  0.4455600000000  0.4960070000000  0.4027830000000 1.0
C      1  0.4736310000000  0.5628670000000  0.4505970000000 1.0
C      1  0.4736700000000  0.4913040000000  0.5975280000000 1.0
C      1  0.5569530000000  0.5281830000000  0.4655790000000 1.0
C      1  0.4489550000000  0.4597590000000  0.4945760000000 1.0
C      1  0.5155460000000  0.4474080000000  0.5370120000000 1.0
END
