TITL C-627111-6168-224 -11424.8649169675 125000 -509.490305764956 0 0 84 (C1) n - 1
REM
REM in /home/nfs/bkarasulu/CARBON/AIRSS/Generating-Clusters/LCBOP/Only-C1/SD-CG/FIRE-CG
REM
REM
REM
REM
REM
REM ./C.cell (11c1c37f851c82e70ff6c80c92926a4b)
REM AIRSS Version 0.9.1 bugfix July 2018 build 013d7b7c2542+ Fri, 06 Jul 2018 19:26:36 +0100
REM compiler GCC version 9.2.1 20190827 (Red Hat 9.2.1-1)
REM options -cpp -mtune=generic -march=x86-64 -g -O0 -fpre-include=/usr/include/finclude/math-vector-fortran.h
REM seed -2039348265 -2063083811 978981488 -1523296775 1005525992 -175625959 1142097494 1725268695 -278933304 172168848 -1769639317 1554193936 -1249145294 -1759966970 713414117 -1935587671 -325224685 -1109880428 -261234406 22422565 997432687 434582758 1637988635 -1781900942 -835856771 -1908973099 10076133 804633084 1630689578 -966648260 -636008574 1714925793 1755009813
REM
CELL 1.54180   50.00000   50.00000   50.00000   90.00000   90.00000   90.00000
LATT -1
SFAC C  
C      1  0.5749730000000  0.4299040000000  0.4299890000000 1.0
C      1  0.4272700000000  0.6363840000000  0.5450840000000 1.0
C      1  0.4649350000000  0.4344230000000  0.4598160000000 1.0
C      1  0.5384330000000  0.4991990000000  0.5546890000000 1.0
C      1  0.4679520000000  0.5782460000000  0.5671420000000 1.0
C      1  0.4182250000000  0.5348050000000  0.5823340000000 1.0
C      1  0.4937470000000  0.5407340000000  0.4725900000000 1.0
C      1  0.4433780000000  0.5784190000000  0.5809440000000 1.0
C      1  0.4673380000000  0.5817200000000  0.4736260000000 1.0
C      1  0.5243200000000  0.4525650000000  0.5141870000000 1.0
C      1  0.5816490000000  0.4782990000000  0.4234750000000 1.0
C      1  0.4124850000000  0.6549040000000  0.5569560000000 1.0
C      1  0.4893210000000  0.4758600000000  0.5339620000000 1.0
C      1  0.4279520000000  0.5122470000000  0.5717580000000 1.0
C      1  0.5105520000000  0.5213140000000  0.4842900000000 1.0
C      1  0.5175230000000  0.5699560000000  0.5705140000000 1.0
C      1  0.5678280000000  0.4549260000000  0.4177500000000 1.0
C      1  0.5839680000000  0.5127470000000  0.4635760000000 1.0
C      1  0.5013520000000  0.4227630000000  0.4264150000000 1.0
C      1  0.5143490000000  0.5814760000000  0.4606430000000 1.0
C      1  0.5391960000000  0.5728380000000  0.4657780000000 1.0
C      1  0.4751670000000  0.4530750000000  0.5342590000000 1.0
C      1  0.5278580000000  0.4682490000000  0.3683680000000 1.0
C      1  0.4775000000000  0.5231050000000  0.5276180000000 1.0
C      1  0.4619520000000  0.5123310000000  0.4228320000000 1.0
C      1  0.5053770000000  0.4864980000000  0.4071270000000 1.0
C      1  0.4398320000000  0.5229720000000  0.4316180000000 1.0
C      1  0.5664510000000  0.4519830000000  0.5322490000000 1.0
C      1  0.5549340000000  0.4087560000000  0.4685380000000 1.0
C      1  0.4506890000000  0.5021400000000  0.5584200000000 1.0
C      1  0.5149250000000  0.4714250000000  0.4936700000000 1.0
C      1  0.4670550000000  0.5753940000000  0.5386720000000 1.0
C      1  0.4857190000000  0.4724800000000  0.5830450000000 1.0
C      1  0.4954210000000  0.5184390000000  0.5787790000000 1.0
C      1  0.4705900000000  0.4862520000000  0.4849300000000 1.0
C      1  0.5023560000000  0.4534720000000  0.4746680000000 1.0
C      1  0.4964220000000  0.5021640000000  0.5311050000000 1.0
C      1  0.4755920000000  0.4167720000000  0.4817410000000 1.0
C      1  0.5392770000000  0.4521500000000  0.4126650000000 1.0
C      1  0.5036000000000  0.4249760000000  0.4838050000000 1.0
C      1  0.4845040000000  0.5005860000000  0.4153410000000 1.0
C      1  0.5288910000000  0.4287210000000  0.4271680000000 1.0
C      1  0.5507610000000  0.5484410000000  0.4728450000000 1.0
C      1  0.5310010000000  0.4714260000000  0.5597500000000 1.0
C      1  0.4541650000000  0.5949030000000  0.5224950000000 1.0
C      1  0.4223920000000  0.4864300000000  0.4962410000000 1.0
C      1  0.4529750000000  0.5073380000000  0.5289200000000 1.0
C      1  0.5576220000000  0.5015040000000  0.5326600000000 1.0
C      1  0.5228440000000  0.5202990000000  0.5668860000000 1.0
C      1  0.3985650000000  0.4779900000000  0.4883220000000 1.0
C      1  0.4740860000000  0.4609970000000  0.4688770000000 1.0
C      1  0.5729930000000  0.4353230000000  0.5079350000000 1.0
C      1  0.4547410000000  0.5918550000000  0.4947100000000 1.0
C      1  0.5742450000000  0.5390410000000  0.4603230000000 1.0
C      1  0.3976490000000  0.6728520000000  0.5686790000000 1.0
C      1  0.4757300000000  0.4265390000000  0.4345100000000 1.0
C      1  0.5316790000000  0.4672180000000  0.3426100000000 1.0
C      1  0.4240320000000  0.5606320000000  0.5862160000000 1.0
C      1  0.4764740000000  0.5508680000000  0.5282280000000 1.0
C      1  0.4411960000000  0.6168720000000  0.5338140000000 1.0
C      1  0.5565790000000  0.5131970000000  0.5055430000000 1.0
C      1  0.4868370000000  0.5420950000000  0.5920730000000 1.0
C      1  0.5111570000000  0.4641080000000  0.5784850000000 1.0
C      1  0.4753980000000  0.4976680000000  0.5747440000000 1.0
C      1  0.4994040000000  0.4956750000000  0.4890340000000 1.0
C      1  0.5519130000000  0.4168080000000  0.4418330000000 1.0
C      1  0.5258010000000  0.4259230000000  0.5018840000000 1.0
C      1  0.5379250000000  0.5287590000000  0.4901580000000 1.0
C      1  0.5791370000000  0.5022310000000  0.4894370000000 1.0
C      1  0.4640310000000  0.4303690000000  0.5258170000000 1.0
C      1  0.5905640000000  0.4798570000000  0.5027550000000 1.0
C      1  0.5319780000000  0.5474660000000  0.5649810000000 1.0
C      1  0.4610890000000  0.4111940000000  0.5053740000000 1.0
C      1  0.4485590000000  0.4933640000000  0.5034030000000 1.0
C      1  0.3753100000000  0.4693910000000  0.4802680000000 1.0
C      1  0.5914600000000  0.4526700000000  0.4934870000000 1.0
C      1  0.4908570000000  0.5676800000000  0.5801790000000 1.0
C      1  0.5775610000000  0.4789540000000  0.5295380000000 1.0
C      1  0.5526830000000  0.4193530000000  0.4946290000000 1.0
C      1  0.5241690000000  0.4690490000000  0.3960510000000 1.0
C      1  0.5889320000000  0.4966920000000  0.4412970000000 1.0
C      1  0.4903750000000  0.5679460000000  0.4663830000000 1.0
C      1  0.5387410000000  0.4543520000000  0.5383520000000 1.0
C      1  0.4455330000000  0.3890030000000  0.5081420000000 1.0
END
