TITL C-627111-6168-630 0.00144134889609003 125000 -831.513195134858 0 0 134 (C1) n - 1
REM
REM in /home/nfs/bkarasulu/CARBON/AIRSS/Generating-Clusters/LCBOP/Only-C1/SD-CG/FIRE-CG
REM
REM
REM
REM
REM
REM ./C.cell (11c1c37f851c82e70ff6c80c92926a4b)
REM AIRSS Version 0.9.1 bugfix July 2018 build 013d7b7c2542+ Fri, 06 Jul 2018 19:26:36 +0100
REM compiler GCC version 9.2.1 20190827 (Red Hat 9.2.1-1)
REM options -cpp -mtune=generic -march=x86-64 -g -O0 -fpre-include=/usr/include/finclude/math-vector-fortran.h
REM seed 796075336 -584682557 -1844315166 -38671191 -42370853 68947281 -718203064 -492599094 472964639 -1204060892 -612125401 -1886111752 -1726754647 1456683850 -1094468100 1475864374 1441542244 -1315640110 1514302943 -1448880219 342748620 -1287991360 179437716 -1359926805 1629623950 1502059390 -1862138866 -2076794106 -946921309 -419751786 -904378475 1863762735 776110157
REM
CELL 1.54180   50.00000   50.00000   50.00000   90.00000   90.00000   90.00000
LATT -1
SFAC C  
C      1  0.4391270000000  0.4879810000000  0.4102430000000 1.0
C      1  0.5601400000000  0.5592840000000  0.4226590000000 1.0
C      1  0.4544610000000  0.4037890000000  0.4615360000000 1.0
C      1  0.5625450000000  0.4467690000000  0.4448140000000 1.0
C      1  0.4564380000000  0.5695250000000  0.5375150000000 1.0
C      1  0.5716800000000  0.4550330000000  0.5588980000000 1.0
C      1  0.5852760000000  0.4649190000000  0.5356010000000 1.0
C      1  0.4856590000000  0.5236000000000  0.5096220000000 1.0
C      1  0.5601760000000  0.5049710000000  0.5354360000000 1.0
C      1  0.4956430000000  0.5290380000000  0.4076840000000 1.0
C      1  0.4969410000000  0.6042100000000  0.4904650000000 1.0
C      1  0.5888160000000  0.5169680000000  0.5794510000000 1.0
C      1  0.5065670000000  0.5881500000000  0.4454040000000 1.0
C      1  0.3984950000000  0.4930300000000  0.4625020000000 1.0
C      1  0.5859080000000  0.4540550000000  0.4591420000000 1.0
C      1  0.4886480000000  0.5078560000000  0.4474920000000 1.0
C      1  0.4842700000000  0.5706190000000  0.5453710000000 1.0
C      1  0.6036570000000  0.5022760000000  0.5106490000000 1.0
C      1  0.4380960000000  0.4817930000000  0.5562720000000 1.0
C      1  0.4175190000000  0.5191270000000  0.4998440000000 1.0
C      1  0.4413180000000  0.4019210000000  0.5307310000000 1.0
C      1  0.4549990000000  0.5285660000000  0.5930510000000 1.0
C      1  0.5135230000000  0.4366910000000  0.4466520000000 1.0
C      1  0.4426010000000  0.5023460000000  0.4946470000000 1.0
C      1  0.5147880000000  0.4878030000000  0.5263980000000 1.0
C      1  0.4624720000000  0.5577570000000  0.4353040000000 1.0
C      1  0.3832310000000  0.4284320000000  0.5183560000000 1.0
C      1  0.4397050000000  0.4611410000000  0.4134000000000 1.0
C      1  0.5341480000000  0.6021860000000  0.5270590000000 1.0
C      1  0.3880270000000  0.5002330000000  0.5341650000000 1.0
C      1  0.3952640000000  0.4542230000000  0.5136710000000 1.0
C      1  0.5976080000000  0.5522160000000  0.4572120000000 1.0
C      1  0.4221950000000  0.4479030000000  0.5046790000000 1.0
C      1  0.4626880000000  0.4609710000000  0.4783300000000 1.0
C      1  0.5309290000000  0.5738220000000  0.5264610000000 1.0
C      1  0.5350320000000  0.5098730000000  0.4646590000000 1.0
C      1  0.5306320000000  0.4630320000000  0.5829550000000 1.0
C      1  0.5364170000000  0.4520860000000  0.4351560000000 1.0
C      1  0.5302750000000  0.5297640000000  0.5751680000000 1.0
C      1  0.4199300000000  0.5356460000000  0.4503340000000 1.0
C      1  0.4417680000000  0.5312350000000  0.5683580000000 1.0
C      1  0.5107220000000  0.4976040000000  0.4605520000000 1.0
C      1  0.5721550000000  0.5593470000000  0.4477090000000 1.0
C      1  0.4463210000000  0.4478330000000  0.5207840000000 1.0
C      1  0.5998740000000  0.5509220000000  0.5051150000000 1.0
C      1  0.5302870000000  0.4737620000000  0.4158480000000 1.0
C      1  0.4814700000000  0.5284420000000  0.5998250000000 1.0
C      1  0.4397710000000  0.4409120000000  0.4333630000000 1.0
C      1  0.5544740000000  0.4093010000000  0.5431850000000 1.0
C      1  0.4725890000000  0.5217110000000  0.4654130000000 1.0
C      1  0.4366550000000  0.5557980000000  0.5531090000000 1.0
C      1  0.4343710000000  0.4669340000000  0.5805920000000 1.0
C      1  0.4419000000000  0.5366890000000  0.4316600000000 1.0
C      1  0.4801250000000  0.5096960000000  0.4209140000000 1.0
C      1  0.5494720000000  0.5466510000000  0.4909140000000 1.0
C      1  0.5858240000000  0.5453670000000  0.5744330000000 1.0
C      1  0.4858080000000  0.4161580000000  0.5183660000000 1.0
C      1  0.4660910000000  0.5167760000000  0.4918570000000 1.0
C      1  0.4908000000000  0.5164500000000  0.5561690000000 1.0
C      1  0.5770620000000  0.4562570000000  0.5092930000000 1.0
C      1  0.4635290000000  0.5724350000000  0.4619960000000 1.0
C      1  0.4622890000000  0.4232740000000  0.4405980000000 1.0
C      1  0.5273890000000  0.4501250000000  0.5561720000000 1.0
C      1  0.5512220000000  0.4353790000000  0.5514210000000 1.0
C      1  0.6022640000000  0.5236050000000  0.4933150000000 1.0
C      1  0.5586020000000  0.3623700000000  0.5199090000000 1.0
C      1  0.5673820000000  0.5057740000000  0.4273130000000 1.0
C      1  0.4109200000000  0.5203150000000  0.5311230000000 1.0
C      1  0.3867480000000  0.4815610000000  0.5121570000000 1.0
C      1  0.5084110000000  0.4655120000000  0.3992960000000 1.0
C      1  0.5898030000000  0.4946470000000  0.5353190000000 1.0
C      1  0.6057130000000  0.5668780000000  0.4813930000000 1.0
C      1  0.4450040000000  0.4191580000000  0.5792200000000 1.0
C      1  0.4896760000000  0.4575050000000  0.4816100000000 1.0
C      1  0.4230380000000  0.3964650000000  0.5087090000000 1.0
C      1  0.4802610000000  0.4546000000000  0.5797900000000 1.0
C      1  0.5804480000000  0.5575120000000  0.5259490000000 1.0
C      1  0.4890320000000  0.4318910000000  0.4309400000000 1.0
C      1  0.5502970000000  0.4650600000000  0.5028740000000 1.0
C      1  0.5893720000000  0.5036450000000  0.4459200000000 1.0
C      1  0.5526480000000  0.5938900000000  0.4721360000000 1.0
C      1  0.4596550000000  0.4223180000000  0.5226130000000 1.0
C      1  0.5421420000000  0.6160810000000  0.4827820000000 1.0
C      1  0.5528670000000  0.5580920000000  0.5166720000000 1.0
C      1  0.5221700000000  0.6132470000000  0.5026710000000 1.0
C      1  0.5905530000000  0.4469410000000  0.4863280000000 1.0
C      1  0.4417850000000  0.4797800000000  0.4776740000000 1.0
C      1  0.5041110000000  0.5661090000000  0.5254590000000 1.0
C      1  0.5081300000000  0.4636250000000  0.5404890000000 1.0
C      1  0.5335500000000  0.5535060000000  0.4164820000000 1.0
C      1  0.4533160000000  0.4457090000000  0.5860360000000 1.0
C      1  0.4909830000000  0.4454820000000  0.4056760000000 1.0
C      1  0.4383810000000  0.4020140000000  0.5590940000000 1.0
C      1  0.5728550000000  0.5922580000000  0.5578970000000 1.0
C      1  0.4115300000000  0.5494640000000  0.5395420000000 1.0
C      1  0.5547420000000  0.6088650000000  0.5456420000000 1.0
C      1  0.5336830000000  0.4450150000000  0.4910810000000 1.0
C      1  0.5250190000000  0.5260620000000  0.4093030000000 1.0
C      1  0.5410060000000  0.5016090000000  0.4157160000000 1.0
C      1  0.5029970000000  0.4819410000000  0.4820360000000 1.0
C      1  0.4212720000000  0.4465130000000  0.4548490000000 1.0
C      1  0.5108180000000  0.4395530000000  0.4750020000000 1.0
C      1  0.5567170000000  0.3854280000000  0.5319240000000 1.0
C      1  0.4515250000000  0.5120090000000  0.4183170000000 1.0
C      1  0.3946470000000  0.4992180000000  0.4899090000000 1.0
C      1  0.5827480000000  0.5655110000000  0.5538240000000 1.0
C      1  0.4443420000000  0.5647400000000  0.4833890000000 1.0
C      1  0.5595710000000  0.4716870000000  0.5818000000000 1.0
C      1  0.5043060000000  0.4609420000000  0.5945610000000 1.0
C      1  0.5106460000000  0.5697560000000  0.4245720000000 1.0
C      1  0.5716400000000  0.4963690000000  0.5910270000000 1.0
C      1  0.4223350000000  0.4324900000000  0.4795730000000 1.0
C      1  0.4934860000000  0.5631150000000  0.5709990000000 1.0
C      1  0.5441160000000  0.5181400000000  0.4896920000000 1.0
C      1  0.6043130000000  0.5046440000000  0.5590340000000 1.0
C      1  0.4561090000000  0.4673700000000  0.5389220000000 1.0
C      1  0.4239690000000  0.5435360000000  0.4787610000000 1.0
C      1  0.3997770000000  0.5159990000000  0.4459980000000 1.0
C      1  0.5991780000000  0.5237610000000  0.4639260000000 1.0
C      1  0.4493220000000  0.5736780000000  0.5100490000000 1.0
C      1  0.5987160000000  0.4773390000000  0.4498820000000 1.0
C      1  0.4960280000000  0.5083980000000  0.5302120000000 1.0
C      1  0.4314010000000  0.5088600000000  0.5524500000000 1.0
C      1  0.5466990000000  0.5198000000000  0.5559860000000 1.0
C      1  0.5010860000000  0.5347650000000  0.5781150000000 1.0
C      1  0.5548940000000  0.5659370000000  0.4694620000000 1.0
C      1  0.4192560000000  0.4742240000000  0.4603570000000 1.0
C      1  0.4864110000000  0.5554870000000  0.4178680000000 1.0
C      1  0.3955370000000  0.4040620000000  0.5144560000000 1.0
C      1  0.4817410000000  0.4618410000000  0.5512160000000 1.0
C      1  0.4973180000000  0.5483410000000  0.5055400000000 1.0
C      1  0.4875510000000  0.5895080000000  0.4670070000000 1.0
C      1  0.5422590000000  0.4940070000000  0.5127080000000 1.0
C      1  0.4333560000000  0.4058050000000  0.4818180000000 1.0
END
