TITL C-627112-676-1884 -1.57709802196355e-06 125000 -638.082401220945 0 0 105 (C1) n - 1
REM
REM in /home/nfs/bkarasulu/CARBON/AIRSS/Generating-Clusters/LCBOP/Only-C1/SD-CG/FIRE-CG
REM
REM
REM
REM
REM
REM ./C.cell (11c1c37f851c82e70ff6c80c92926a4b)
REM AIRSS Version 0.9.1 bugfix July 2018 build 013d7b7c2542+ Fri, 06 Jul 2018 19:26:36 +0100
REM compiler GCC version 9.2.1 20190827 (Red Hat 9.2.1-1)
REM options -cpp -mtune=generic -march=x86-64 -g -O0 -fpre-include=/usr/include/finclude/math-vector-fortran.h
REM seed 1929190072 1316761293 -1555438809 1746828488 -1273634157 498277408 575249943 1293235422 480346422 30092733 -1043368456 439613450 518843412 -1761229226 -779906800 169261873 1293703070 865355111 1240752436 2115871690 772882652 1842719705 -1549274612 1012501318 1920290258 1323131937 1162920734 -1054582488 1520574797 292678492 -357000013 -1938990894 1946595074
REM
CELL 1.54180   50.00000   50.00000   50.00000   90.00000   90.00000   90.00000
LATT -1
SFAC C  
C      1  0.4915160000000  0.4609760000000  0.5086460000000 1.0
C      1  0.5847320000000  0.4532020000000  0.4605900000000 1.0
C      1  0.5597420000000  0.4510120000000  0.4710330000000 1.0
C      1  0.4936660000000  0.3989950000000  0.5683950000000 1.0
C      1  0.4767410000000  0.5798130000000  0.5577480000000 1.0
C      1  0.4367260000000  0.5646740000000  0.5262470000000 1.0
C      1  0.5119250000000  0.4176840000000  0.5789030000000 1.0
C      1  0.5602490000000  0.5085320000000  0.4517650000000 1.0
C      1  0.4643930000000  0.5396170000000  0.5856040000000 1.0
C      1  0.5128860000000  0.5485190000000  0.5220730000000 1.0
C      1  0.5537560000000  0.4063050000000  0.5539620000000 1.0
C      1  0.5540270000000  0.4479870000000  0.4987580000000 1.0
C      1  0.5519290000000  0.4715120000000  0.5137440000000 1.0
C      1  0.4458060000000  0.5232080000000  0.4423770000000 1.0
C      1  0.5606630000000  0.5305040000000  0.5786700000000 1.0
C      1  0.4623610000000  0.5690250000000  0.4857120000000 1.0
C      1  0.4692300000000  0.5298230000000  0.4574520000000 1.0
C      1  0.4898840000000  0.5349440000000  0.5299820000000 1.0
C      1  0.4866060000000  0.4466730000000  0.4164330000000 1.0
C      1  0.4875910000000  0.3887760000000  0.5444900000000 1.0
C      1  0.5275790000000  0.5334200000000  0.4773010000000 1.0
C      1  0.5295550000000  0.5658170000000  0.3841980000000 1.0
C      1  0.5067710000000  0.5280910000000  0.4220050000000 1.0
C      1  0.5028770000000  0.5562590000000  0.4216050000000 1.0
C      1  0.5528820000000  0.5238310000000  0.5156170000000 1.0
C      1  0.5828500000000  0.5086930000000  0.4700770000000 1.0
C      1  0.4389320000000  0.4613660000000  0.4531970000000 1.0
C      1  0.5054830000000  0.6269080000000  0.5044920000000 1.0
C      1  0.4027970000000  0.5320030000000  0.5496910000000 1.0
C      1  0.4795580000000  0.5569430000000  0.3801800000000 1.0
C      1  0.4646540000000  0.5038700000000  0.6177680000000 1.0
C      1  0.4152810000000  0.5554770000000  0.5411200000000 1.0
C      1  0.4467010000000  0.5040440000000  0.4214220000000 1.0
C      1  0.5108090000000  0.4099340000000  0.4375560000000 1.0
C      1  0.5722970000000  0.5444640000000  0.5174450000000 1.0
C      1  0.5181520000000  0.4663020000000  0.4469410000000 1.0
C      1  0.4621550000000  0.4595820000000  0.4110510000000 1.0
C      1  0.4965980000000  0.4012640000000  0.4933900000000 1.0
C      1  0.5101500000000  0.4627040000000  0.4198000000000 1.0
C      1  0.4267340000000  0.4771660000000  0.5779780000000 1.0
C      1  0.5944350000000  0.5134630000000  0.5463210000000 1.0
C      1  0.4423930000000  0.4331030000000  0.4515230000000 1.0
C      1  0.4531090000000  0.5160050000000  0.5961060000000 1.0
C      1  0.5397110000000  0.4841350000000  0.5871110000000 1.0
C      1  0.5111070000000  0.4897700000000  0.4652310000000 1.0
C      1  0.3935690000000  0.5128570000000  0.5312090000000 1.0
C      1  0.5873550000000  0.5347310000000  0.5659340000000 1.0
C      1  0.4657940000000  0.4174280000000  0.4514360000000 1.0
C      1  0.5390990000000  0.4110570000000  0.5758520000000 1.0
C      1  0.4836520000000  0.6122130000000  0.4990000000000 1.0
C      1  0.4350840000000  0.4675500000000  0.5527210000000 1.0
C      1  0.4964350000000  0.6005010000000  0.5587280000000 1.0
C      1  0.5076160000000  0.4748990000000  0.4923930000000 1.0
C      1  0.4223670000000  0.4705360000000  0.5265460000000 1.0
C      1  0.4922320000000  0.5096140000000  0.4086810000000 1.0
C      1  0.4801940000000  0.4525740000000  0.5685690000000 1.0
C      1  0.5611620000000  0.5102020000000  0.4227310000000 1.0
C      1  0.5520080000000  0.5533830000000  0.3928350000000 1.0
C      1  0.4296960000000  0.5048900000000  0.5842950000000 1.0
C      1  0.5112290000000  0.5528340000000  0.5820000000000 1.0
C      1  0.5374570000000  0.5461830000000  0.5829590000000 1.0
C      1  0.4752680000000  0.4049870000000  0.4750380000000 1.0
C      1  0.4834660000000  0.5576120000000  0.5754950000000 1.0
C      1  0.4650850000000  0.5129780000000  0.4006390000000 1.0
C      1  0.4625090000000  0.5357290000000  0.3834720000000 1.0
C      1  0.5261130000000  0.4196900000000  0.4590890000000 1.0
C      1  0.4911780000000  0.3895260000000  0.5181530000000 1.0
C      1  0.4440200000000  0.4719900000000  0.4794660000000 1.0
C      1  0.4386040000000  0.5581670000000  0.4981720000000 1.0
C      1  0.4719780000000  0.5163360000000  0.5333910000000 1.0
C      1  0.4456350000000  0.4756810000000  0.4280650000000 1.0
C      1  0.5187300000000  0.5991790000000  0.5412440000000 1.0
C      1  0.5364650000000  0.4461650000000  0.4559650000000 1.0
C      1  0.5510160000000  0.4885610000000  0.4072790000000 1.0
C      1  0.4634050000000  0.4918270000000  0.4793250000000 1.0
C      1  0.4155760000000  0.4600970000000  0.5962490000000 1.0
C      1  0.4835290000000  0.5060390000000  0.4658410000000 1.0
C      1  0.4409830000000  0.4617370000000  0.5058510000000 1.0
C      1  0.4096900000000  0.5222880000000  0.5750860000000 1.0
C      1  0.5219260000000  0.4645930000000  0.5898530000000 1.0
C      1  0.4920050000000  0.5688630000000  0.4442960000000 1.0
C      1  0.5423310000000  0.4223000000000  0.5051580000000 1.0
C      1  0.4664400000000  0.4558300000000  0.5201460000000 1.0
C      1  0.6051640000000  0.5118240000000  0.5193820000000 1.0
C      1  0.5293020000000  0.5342340000000  0.5048120000000 1.0
C      1  0.5563510000000  0.5018140000000  0.5738080000000 1.0
C      1  0.5846700000000  0.5673420000000  0.5150280000000 1.0
C      1  0.5297440000000  0.4726980000000  0.4021320000000 1.0
C      1  0.4715170000000  0.5880100000000  0.5061280000000 1.0
C      1  0.5225150000000  0.4118010000000  0.4866210000000 1.0
C      1  0.5984010000000  0.5092150000000  0.4927090000000 1.0
C      1  0.5707190000000  0.4960800000000  0.5495150000000 1.0
C      1  0.5231130000000  0.6212000000000  0.5241920000000 1.0
C      1  0.5030660000000  0.5651960000000  0.3943120000000 1.0
C      1  0.4749720000000  0.5570380000000  0.4635220000000 1.0
C      1  0.5336040000000  0.5099410000000  0.4630850000000 1.0
C      1  0.5229700000000  0.5731290000000  0.5312980000000 1.0
C      1  0.4616730000000  0.4572250000000  0.5485430000000 1.0
C      1  0.4013630000000  0.4885850000000  0.5229300000000 1.0
C      1  0.5520440000000  0.4086670000000  0.5274820000000 1.0
C      1  0.5631980000000  0.5349360000000  0.4089340000000 1.0
C      1  0.4858310000000  0.4218030000000  0.4311170000000 1.0
C      1  0.5558700000000  0.4966050000000  0.5252970000000 1.0
C      1  0.4609010000000  0.5796820000000  0.5333310000000 1.0
C      1  0.5041120000000  0.4449540000000  0.5809450000000 1.0
END
