TITL C-627107-135-1731 0.103870886114654 125000 -631.25887822882 0 0 104 (C1) n - 1
REM
REM in /home/nfs/bkarasulu/CARBON/AIRSS/Generating-Clusters/LCBOP/Only-C1/SD-CG/FIRE-CG
REM
REM
REM
REM
REM
REM ./C.cell (11c1c37f851c82e70ff6c80c92926a4b)
REM AIRSS Version 0.9.1 bugfix July 2018 build 013d7b7c2542+ Fri, 06 Jul 2018 19:26:36 +0100
REM compiler GCC version 9.2.1 20190827 (Red Hat 9.2.1-1)
REM options -cpp -mtune=generic -march=x86-64 -g -O0 -fpre-include=/usr/include/finclude/math-vector-fortran.h
REM seed -1379738729 -683349837 -365328903 -1218038719 -1435945714 1821066789 1414125976 -2131152120 -536839300 962788834 1521895149 1459399389 182810597 1729100757 -968307116 -66183873 582758438 -210280837 -540851268 -1385855786 -511574135 -657442255 9857560 559131389 1768449912 1384497133 492509175 -1192820249 1099003001 1046821265 -1151949134 1761999578 215460386
REM
CELL 1.54180   50.00000   50.00000   50.00000   90.00000   90.00000   90.00000
LATT -1
SFAC C  
C      1  0.5169850000000  0.5252060000000  0.4029030000000 1.0
C      1  0.5359580000000  0.4877150000000  0.5028390000000 1.0
C      1  0.4367590000000  0.4574050000000  0.4893630000000 1.0
C      1  0.4990760000000  0.6013990000000  0.5408290000000 1.0
C      1  0.5543140000000  0.4979400000000  0.6213480000000 1.0
C      1  0.4344910000000  0.5269400000000  0.3659420000000 1.0
C      1  0.5439150000000  0.5609420000000  0.4893580000000 1.0
C      1  0.5747110000000  0.4626400000000  0.4346200000000 1.0
C      1  0.4930130000000  0.5307720000000  0.4409640000000 1.0
C      1  0.5981110000000  0.4755390000000  0.4946610000000 1.0
C      1  0.5066940000000  0.4971490000000  0.4041730000000 1.0
C      1  0.4516440000000  0.4451600000000  0.5402920000000 1.0
C      1  0.4687760000000  0.5535270000000  0.5082220000000 1.0
C      1  0.4149720000000  0.5762040000000  0.5565650000000 1.0
C      1  0.5253880000000  0.4789200000000  0.4169790000000 1.0
C      1  0.5131860000000  0.5437560000000  0.4252330000000 1.0
C      1  0.5552830000000  0.4415070000000  0.4322600000000 1.0
C      1  0.4123850000000  0.5102200000000  0.5629600000000 1.0
C      1  0.5245340000000  0.4780470000000  0.4798080000000 1.0
C      1  0.3837750000000  0.4831260000000  0.3923760000000 1.0
C      1  0.5090520000000  0.4438170000000  0.4472000000000 1.0
C      1  0.3867960000000  0.5227330000000  0.4193230000000 1.0
C      1  0.5048570000000  0.6157790000000  0.5185860000000 1.0
C      1  0.4250660000000  0.5653720000000  0.5328400000000 1.0
C      1  0.5121880000000  0.4859460000000  0.6059950000000 1.0
C      1  0.4452660000000  0.5248550000000  0.4712380000000 1.0
C      1  0.5065530000000  0.4658140000000  0.5416030000000 1.0
C      1  0.5910480000000  0.5016840000000  0.4858790000000 1.0
C      1  0.4687250000000  0.4826270000000  0.5795970000000 1.0
C      1  0.5894740000000  0.4286710000000  0.4907280000000 1.0
C      1  0.4661910000000  0.4944740000000  0.5233450000000 1.0
C      1  0.4594080000000  0.4754640000000  0.4180300000000 1.0
C      1  0.5885560000000  0.4400410000000  0.5594110000000 1.0
C      1  0.5119170000000  0.6060430000000  0.4671760000000 1.0
C      1  0.4705680000000  0.5177480000000  0.4298150000000 1.0
C      1  0.4306900000000  0.5123000000000  0.5826990000000 1.0
C      1  0.5278860000000  0.4509930000000  0.4266950000000 1.0
C      1  0.4873990000000  0.5240120000000  0.6293130000000 1.0
C      1  0.4841360000000  0.4071480000000  0.5248510000000 1.0
C      1  0.4151550000000  0.5175090000000  0.3806530000000 1.0
C      1  0.4889730000000  0.4823850000000  0.5301940000000 1.0
C      1  0.5671590000000  0.5340730000000  0.4565960000000 1.0
C      1  0.4652850000000  0.5331650000000  0.4894700000000 1.0
C      1  0.5920360000000  0.4508600000000  0.5078520000000 1.0
C      1  0.5231880000000  0.4977500000000  0.4599420000000 1.0
C      1  0.5457180000000  0.5520810000000  0.4617840000000 1.0
C      1  0.5278720000000  0.5625100000000  0.4416090000000 1.0
C      1  0.5559720000000  0.4556640000000  0.5964220000000 1.0
C      1  0.5898560000000  0.5486930000000  0.5042540000000 1.0
C      1  0.4518200000000  0.5570150000000  0.5315200000000 1.0
C      1  0.5796910000000  0.4188920000000  0.4679150000000 1.0
C      1  0.5106610000000  0.4333380000000  0.4945890000000 1.0
C      1  0.4591910000000  0.4356390000000  0.4527090000000 1.0
C      1  0.5241820000000  0.5553760000000  0.5101350000000 1.0
C      1  0.5365420000000  0.5450500000000  0.5337780000000 1.0
C      1  0.5102890000000  0.3865840000000  0.4871610000000 1.0
C      1  0.5408470000000  0.4770660000000  0.6061710000000 1.0
C      1  0.4851710000000  0.4466450000000  0.6070610000000 1.0
C      1  0.4063670000000  0.5849740000000  0.5795470000000 1.0
C      1  0.4590080000000  0.5101580000000  0.5800210000000 1.0
C      1  0.5252110000000  0.3834170000000  0.4650840000000 1.0
C      1  0.4492690000000  0.5089350000000  0.4481410000000 1.0
C      1  0.4711730000000  0.5573270000000  0.5540180000000 1.0
C      1  0.5545270000000  0.4887750000000  0.5231590000000 1.0
C      1  0.3950660000000  0.5075320000000  0.3973580000000 1.0
C      1  0.5019130000000  0.4080610000000  0.5032510000000 1.0
C      1  0.5085730000000  0.6158220000000  0.4919520000000 1.0
C      1  0.5601890000000  0.4176350000000  0.4474820000000 1.0
C      1  0.5396690000000  0.4934160000000  0.4376950000000 1.0
C      1  0.5805140000000  0.4503020000000  0.5343860000000 1.0
C      1  0.4965420000000  0.5615000000000  0.5150410000000 1.0
C      1  0.4385430000000  0.4516700000000  0.5156840000000 1.0
C      1  0.4554850000000  0.4632570000000  0.5622880000000 1.0
C      1  0.4716930000000  0.5344170000000  0.5710370000000 1.0
C      1  0.4840750000000  0.4317120000000  0.4434890000000 1.0
C      1  0.4889930000000  0.4721060000000  0.5972220000000 1.0
C      1  0.4455170000000  0.4802150000000  0.4439370000000 1.0
C      1  0.4446900000000  0.4581500000000  0.4621750000000 1.0
C      1  0.4890180000000  0.5185180000000  0.4863310000000 1.0
C      1  0.5560730000000  0.4645320000000  0.5368620000000 1.0
C      1  0.5872740000000  0.5207080000000  0.5072720000000 1.0
C      1  0.3861000000000  0.5485420000000  0.4652190000000 1.0
C      1  0.5701890000000  0.5667690000000  0.4995220000000 1.0
C      1  0.4666040000000  0.4211810000000  0.5394000000000 1.0
C      1  0.5310080000000  0.4557240000000  0.5460330000000 1.0
C      1  0.5098300000000  0.5108500000000  0.6216500000000 1.0
C      1  0.5694810000000  0.5120190000000  0.5280250000000 1.0
C      1  0.5424110000000  0.3958610000000  0.4487400000000 1.0
C      1  0.5178600000000  0.5883690000000  0.4477950000000 1.0
C      1  0.5153030000000  0.4519160000000  0.4742810000000 1.0
C      1  0.4083470000000  0.5633360000000  0.5105450000000 1.0
C      1  0.3836200000000  0.5364900000000  0.4417400000000 1.0
C      1  0.5758840000000  0.4434730000000  0.5831120000000 1.0
C      1  0.4785240000000  0.4959640000000  0.4111890000000 1.0
C      1  0.5577810000000  0.5310750000000  0.5454410000000 1.0
C      1  0.3946640000000  0.5577340000000  0.4885620000000 1.0
C      1  0.4403000000000  0.5012960000000  0.5234960000000 1.0
C      1  0.4175190000000  0.5056980000000  0.5369120000000 1.0
C      1  0.4925330000000  0.5739340000000  0.5422300000000 1.0
C      1  0.5037390000000  0.5171070000000  0.4631880000000 1.0
C      1  0.5787980000000  0.5081090000000  0.4603260000000 1.0
C      1  0.5666740000000  0.5355640000000  0.5707530000000 1.0
C      1  0.5674790000000  0.4887330000000  0.4426550000000 1.0
C      1  0.5366160000000  0.5171880000000  0.6299210000000 1.0
END
