TITL C-627113-6568-795 4.09704885772602e-05 125000 -374.911974854453 0 0 61 (C1) n - 1
REM
REM in /home/nfs/bkarasulu/CARBON/AIRSS/Generating-Clusters/LCBOP/Only-C1/SD-CG/FIRE-CG
REM
REM
REM
REM
REM
REM ./C.cell (11c1c37f851c82e70ff6c80c92926a4b)
REM AIRSS Version 0.9.1 bugfix July 2018 build 013d7b7c2542+ Fri, 06 Jul 2018 19:26:36 +0100
REM compiler GCC version 9.2.1 20190827 (Red Hat 9.2.1-1)
REM options -cpp -mtune=generic -march=x86-64 -g -O0 -fpre-include=/usr/include/finclude/math-vector-fortran.h
REM seed 782607150 704469222 1574303116 1402884197 -925489648 239702369 -341709950 329875823 1148940027 1018270041 919603043 355466281 440162861 2092161615 57695784 1996811153 591271097 -1673042773 2057101265 -1494586661 121739796 1543848736 -576312088 -2055698820 -1680820684 -1944498971 375235849 -213758293 1716505261 891367744 -1931294769 637374758 -1178050188
REM
CELL 1.54180   50.00000   50.00000   50.00000   90.00000   90.00000   90.00000
LATT -1
SFAC C  
C      1  0.5103410000000  0.4645510000000  0.4314120000000 1.0
C      1  0.5263280000000  0.4351570000000  0.5211970000000 1.0
C      1  0.5728310000000  0.4985080000000  0.4746020000000 1.0
C      1  0.4944490000000  0.5312030000000  0.4478870000000 1.0
C      1  0.4950530000000  0.5735490000000  0.4699720000000 1.0
C      1  0.5632090000000  0.4987090000000  0.5006890000000 1.0
C      1  0.5473800000000  0.4321290000000  0.4608180000000 1.0
C      1  0.4546180000000  0.4708160000000  0.5013620000000 1.0
C      1  0.5591560000000  0.5004850000000  0.4516900000000 1.0
C      1  0.5341030000000  0.4540270000000  0.5013210000000 1.0
C      1  0.4768200000000  0.4508600000000  0.4626260000000 1.0
C      1  0.4776170000000  0.4315330000000  0.4181280000000 1.0
C      1  0.4147310000000  0.4436070000000  0.4969430000000 1.0
C      1  0.4327280000000  0.4653780000000  0.5672450000000 1.0
C      1  0.4889220000000  0.5050910000000  0.5275020000000 1.0
C      1  0.5326020000000  0.6024640000000  0.4861410000000 1.0
C      1  0.5569220000000  0.5488610000000  0.5096320000000 1.0
C      1  0.5053220000000  0.4555150000000  0.4589340000000 1.0
C      1  0.5747620000000  0.5700730000000  0.5141330000000 1.0
C      1  0.5022710000000  0.4802810000000  0.5671730000000 1.0
C      1  0.5253490000000  0.4683870000000  0.5560090000000 1.0
C      1  0.4626830000000  0.5349590000000  0.5853260000000 1.0
C      1  0.4511640000000  0.5909270000000  0.5358060000000 1.0
C      1  0.4283080000000  0.4582320000000  0.5405670000000 1.0
C      1  0.4800770000000  0.5507650000000  0.5180750000000 1.0
C      1  0.4323100000000  0.4573590000000  0.5128010000000 1.0
C      1  0.5282730000000  0.4479260000000  0.4741780000000 1.0
C      1  0.4519180000000  0.4938840000000  0.4576090000000 1.0
C      1  0.4430190000000  0.5187300000000  0.4684310000000 1.0
C      1  0.5238860000000  0.4413710000000  0.5474500000000 1.0
C      1  0.5476920000000  0.4769150000000  0.5120900000000 1.0
C      1  0.4895580000000  0.5092970000000  0.4292550000000 1.0
C      1  0.5136660000000  0.4924310000000  0.4292440000000 1.0
C      1  0.4730910000000  0.4846470000000  0.5170360000000 1.0
C      1  0.4792330000000  0.5524030000000  0.4590510000000 1.0
C      1  0.4838340000000  0.5255070000000  0.5720970000000 1.0
C      1  0.4951300000000  0.5277260000000  0.5117080000000 1.0
C      1  0.5320280000000  0.5047290000000  0.4479380000000 1.0
C      1  0.4532900000000  0.5439090000000  0.4669670000000 1.0
C      1  0.5559250000000  0.6110200000000  0.4964550000000 1.0
C      1  0.5197900000000  0.5776020000000  0.4840150000000 1.0
C      1  0.4991380000000  0.4471700000000  0.4118850000000 1.0
C      1  0.4171370000000  0.4851300000000  0.5797120000000 1.0
C      1  0.4373850000000  0.5294590000000  0.5919110000000 1.0
C      1  0.5157570000000  0.5307230000000  0.4918930000000 1.0
C      1  0.5164010000000  0.5220410000000  0.4649700000000 1.0
C      1  0.4192810000000  0.5099430000000  0.5894320000000 1.0
C      1  0.4829820000000  0.4651430000000  0.5808110000000 1.0
C      1  0.4643440000000  0.4968890000000  0.4320790000000 1.0
C      1  0.4655470000000  0.5710460000000  0.5270150000000 1.0
C      1  0.5532710000000  0.5110020000000  0.5435900000000 1.0
C      1  0.5430680000000  0.4843010000000  0.5406210000000 1.0
C      1  0.5657720000000  0.4190880000000  0.4469110000000 1.0
C      1  0.5619700000000  0.5222690000000  0.5182970000000 1.0
C      1  0.4664690000000  0.4326410000000  0.4430680000000 1.0
C      1  0.5320650000000  0.5539980000000  0.4959550000000 1.0
C      1  0.4595470000000  0.4710310000000  0.4734280000000 1.0
C      1  0.5838530000000  0.4066160000000  0.4328720000000 1.0
C      1  0.4571560000000  0.4585140000000  0.5793690000000 1.0
C      1  0.4935970000000  0.5050090000000  0.5557320000000 1.0
C      1  0.5748660000000  0.5964610000000  0.5089370000000 1.0
END
