TITL C-627113-6568-714 -3.81539525759174e-07 125000 -273.284534025368 0 0 47 (C1) n - 1
REM
REM in /home/nfs/bkarasulu/CARBON/AIRSS/Generating-Clusters/LCBOP/Only-C1/SD-CG/FIRE-CG
REM
REM
REM
REM
REM
REM ./C.cell (11c1c37f851c82e70ff6c80c92926a4b)
REM AIRSS Version 0.9.1 bugfix July 2018 build 013d7b7c2542+ Fri, 06 Jul 2018 19:26:36 +0100
REM compiler GCC version 9.2.1 20190827 (Red Hat 9.2.1-1)
REM options -cpp -mtune=generic -march=x86-64 -g -O0 -fpre-include=/usr/include/finclude/math-vector-fortran.h
REM seed -1801995055 -1649177493 1018602910 -859031258 -1284143220 387623054 -1341649224 2043305563 -32036546 528720951 1564888081 -673142204 -1115915014 -1997152063 539739711 334862769 1544832428 2099706849 -1363405180 1793734274 -1454390859 839044389 715043719 -1068223 69771284 -2027946670 -2067283471 -1119152226 -1435787497 1241615194 -71336628 -992732729 973558599
REM
CELL 1.54180   50.00000   50.00000   50.00000   90.00000   90.00000   90.00000
LATT -1
SFAC C  
C      1  0.5266000000000  0.5073610000000  0.4539680000000 1.0
C      1  0.5253850000000  0.4788020000000  0.4504600000000 1.0
C      1  0.5231890000000  0.5062190000000  0.5689910000000 1.0
C      1  0.5506340000000  0.4599400000000  0.5108720000000 1.0
C      1  0.4818160000000  0.5205490000000  0.4356750000000 1.0
C      1  0.5888610000000  0.5104810000000  0.4970780000000 1.0
C      1  0.4887740000000  0.5143250000000  0.5037660000000 1.0
C      1  0.4552780000000  0.4596840000000  0.4476600000000 1.0
C      1  0.4720000000000  0.5817410000000  0.4965790000000 1.0
C      1  0.4382540000000  0.5313780000000  0.4936210000000 1.0
C      1  0.4599100000000  0.5061550000000  0.4306090000000 1.0
C      1  0.5299520000000  0.5321100000000  0.5185030000000 1.0
C      1  0.4743160000000  0.4042630000000  0.4704210000000 1.0
C      1  0.4401980000000  0.5321370000000  0.5222850000000 1.0
C      1  0.4754890000000  0.5620520000000  0.4760670000000 1.0
C      1  0.5069490000000  0.5377420000000  0.5004070000000 1.0
C      1  0.4398200000000  0.4394010000000  0.5594040000000 1.0
C      1  0.4811230000000  0.5112340000000  0.5321690000000 1.0
C      1  0.4447700000000  0.5587220000000  0.5317920000000 1.0
C      1  0.4819110000000  0.4523370000000  0.5398790000000 1.0
C      1  0.5395660000000  0.5440340000000  0.5426380000000 1.0
C      1  0.5371330000000  0.5312800000000  0.5670120000000 1.0
C      1  0.5374690000000  0.4599700000000  0.5581980000000 1.0
C      1  0.4528400000000  0.5442820000000  0.4745280000000 1.0
C      1  0.5044810000000  0.4454410000000  0.5240030000000 1.0
C      1  0.5056840000000  0.5035700000000  0.5462080000000 1.0
C      1  0.5297970000000  0.5627860000000  0.4669210000000 1.0
C      1  0.5032270000000  0.5497770000000  0.4725710000000 1.0
C      1  0.5520270000000  0.5466320000000  0.4658550000000 1.0
C      1  0.4986520000000  0.4347190000000  0.4985750000000 1.0
C      1  0.5578630000000  0.4737540000000  0.4870480000000 1.0
C      1  0.4843190000000  0.4293470000000  0.4749320000000 1.0
C      1  0.5085060000000  0.4929830000000  0.5013690000000 1.0
C      1  0.5508080000000  0.5181010000000  0.4666400000000 1.0
C      1  0.5665530000000  0.5012040000000  0.4842650000000 1.0
C      1  0.5038090000000  0.5256210000000  0.4522630000000 1.0
C      1  0.4479450000000  0.4828990000000  0.4363240000000 1.0
C      1  0.5317310000000  0.4526590000000  0.5312270000000 1.0
C      1  0.4446540000000  0.4847540000000  0.5438580000000 1.0
C      1  0.4586710000000  0.5789160000000  0.5200980000000 1.0
C      1  0.5259750000000  0.5022880000000  0.5228590000000 1.0
C      1  0.4553840000000  0.4587220000000  0.5477870000000 1.0
C      1  0.5024680000000  0.4638980000000  0.4453490000000 1.0
C      1  0.4804050000000  0.4498730000000  0.4556320000000 1.0
C      1  0.4532380000000  0.5102240000000  0.5357010000000 1.0
C      1  0.5464710000000  0.4644590000000  0.4628880000000 1.0
C      1  0.5350940000000  0.4811730000000  0.5750420000000 1.0
END
