TITL C-627108-131-397 -2.17616110049207e-06 125000 -793.665754259621 0 0 131 (C1) n - 1
REM
REM in /home/nfs/bkarasulu/CARBON/AIRSS/Generating-Clusters/LCBOP/Only-C1/SD-CG/FIRE-CG
REM
REM
REM
REM
REM
REM ./C.cell (11c1c37f851c82e70ff6c80c92926a4b)
REM AIRSS Version 0.9.1 bugfix July 2018 build 013d7b7c2542+ Fri, 06 Jul 2018 19:26:36 +0100
REM compiler GCC version 9.2.1 20190827 (Red Hat 9.2.1-1)
REM options -cpp -mtune=generic -march=x86-64 -g -O0 -fpre-include=/usr/include/finclude/math-vector-fortran.h
REM seed 176998464 -853723392 -706598978 -849225896 780674582 -1822050806 860389284 -735736109 631594169 -1622444916 -1237450915 -110780966 -184736789 -893626508 1003362910 932017350 464154956 1141009588 -1026059390 -831876041 1213973907 1111456947 553088577 1461460059 -1802956567 -1718628735 2041526966 185126682 -1437304814 -496262479 -751993367 694670249 267794112
REM
CELL 1.54180   50.00000   50.00000   50.00000   90.00000   90.00000   90.00000
LATT -1
SFAC C  
C      1  0.5806180000000  0.5358930000000  0.4929910000000 1.0
C      1  0.5166820000000  0.4219420000000  0.4904200000000 1.0
C      1  0.5292720000000  0.3780430000000  0.4568890000000 1.0
C      1  0.5048240000000  0.4620590000000  0.4644710000000 1.0
C      1  0.5405080000000  0.6235470000000  0.4958030000000 1.0
C      1  0.5938900000000  0.5115940000000  0.5406710000000 1.0
C      1  0.4749870000000  0.5273590000000  0.5791270000000 1.0
C      1  0.5975920000000  0.4910780000000  0.5194460000000 1.0
C      1  0.5763020000000  0.3643590000000  0.5408390000000 1.0
C      1  0.6217090000000  0.5419250000000  0.5685110000000 1.0
C      1  0.4773240000000  0.6146270000000  0.5275670000000 1.0
C      1  0.5109930000000  0.5479390000000  0.4179350000000 1.0
C      1  0.4954200000000  0.4768330000000  0.5793850000000 1.0
C      1  0.4068730000000  0.4609740000000  0.5068310000000 1.0
C      1  0.5107560000000  0.5180340000000  0.4792680000000 1.0
C      1  0.4682230000000  0.4361670000000  0.4195090000000 1.0
C      1  0.5818460000000  0.3708190000000  0.5672200000000 1.0
C      1  0.3833660000000  0.5479740000000  0.4736110000000 1.0
C      1  0.5051000000000  0.6111570000000  0.5222420000000 1.0
C      1  0.5344410000000  0.3701110000000  0.4817790000000 1.0
C      1  0.5500380000000  0.3745490000000  0.5331780000000 1.0
C      1  0.4063830000000  0.4244890000000  0.5390870000000 1.0
C      1  0.4604810000000  0.4597140000000  0.4052450000000 1.0
C      1  0.4200120000000  0.5260750000000  0.5343820000000 1.0
C      1  0.5828460000000  0.4503310000000  0.5428780000000 1.0
C      1  0.5160110000000  0.6078120000000  0.4939990000000 1.0
C      1  0.4081070000000  0.5612080000000  0.4717440000000 1.0
C      1  0.3971340000000  0.5173250000000  0.5226570000000 1.0
C      1  0.5256510000000  0.5697080000000  0.4590020000000 1.0
C      1  0.4364460000000  0.5843710000000  0.6047740000000 1.0
C      1  0.4678880000000  0.5500000000000  0.4383690000000 1.0
C      1  0.6180070000000  0.5189620000000  0.5545010000000 1.0
C      1  0.5125850000000  0.4679060000000  0.5168220000000 1.0
C      1  0.5604550000000  0.3849860000000  0.5777080000000 1.0
C      1  0.4896190000000  0.4082490000000  0.3864240000000 1.0
C      1  0.6232200000000  0.5666210000000  0.4957100000000 1.0
C      1  0.6021190000000  0.5603780000000  0.5721070000000 1.0
C      1  0.5307490000000  0.5174520000000  0.5208760000000 1.0
C      1  0.3790800000000  0.5015380000000  0.4536170000000 1.0
C      1  0.4903770000000  0.5675210000000  0.4928540000000 1.0
C      1  0.4648930000000  0.4368560000000  0.4677910000000 1.0
C      1  0.5234410000000  0.3946190000000  0.4368880000000 1.0
C      1  0.5176540000000  0.4192100000000  0.4242830000000 1.0
C      1  0.5788760000000  0.4529540000000  0.4934170000000 1.0
C      1  0.3864030000000  0.5056800000000  0.4992670000000 1.0
C      1  0.5476200000000  0.5005430000000  0.5057020000000 1.0
C      1  0.4916020000000  0.3849970000000  0.5619260000000 1.0
C      1  0.4234710000000  0.4373500000000  0.4432830000000 1.0
C      1  0.4405260000000  0.6078150000000  0.5928290000000 1.0
C      1  0.4881140000000  0.5632200000000  0.4250010000000 1.0
C      1  0.6120120000000  0.4961350000000  0.4949920000000 1.0
C      1  0.5374130000000  0.5680590000000  0.5176660000000 1.0
C      1  0.4285290000000  0.5461900000000  0.4595530000000 1.0
C      1  0.4359650000000  0.4626320000000  0.5067770000000 1.0
C      1  0.5480690000000  0.6275930000000  0.5223320000000 1.0
C      1  0.4965640000000  0.4154560000000  0.5085300000000 1.0
C      1  0.4572880000000  0.6080740000000  0.5087820000000 1.0
C      1  0.3926770000000  0.4767250000000  0.4608980000000 1.0
C      1  0.5250260000000  0.4422700000000  0.4713860000000 1.0
C      1  0.4889940000000  0.5454390000000  0.5102630000000 1.0
C      1  0.4357300000000  0.4814760000000  0.4399590000000 1.0
C      1  0.4986560000000  0.5933290000000  0.5985090000000 1.0
C      1  0.5345560000000  0.5985440000000  0.5636820000000 1.0
C      1  0.4161290000000  0.5843050000000  0.4855170000000 1.0
C      1  0.5798950000000  0.4429460000000  0.5946650000000 1.0
C      1  0.3932230000000  0.4787460000000  0.4903130000000 1.0
C      1  0.5032670000000  0.5277650000000  0.3993020000000 1.0
C      1  0.4493580000000  0.4399500000000  0.5217030000000 1.0
C      1  0.4533920000000  0.4860610000000  0.4618200000000 1.0
C      1  0.4849600000000  0.5012410000000  0.5810700000000 1.0
C      1  0.5156440000000  0.4841430000000  0.4234670000000 1.0
C      1  0.4480320000000  0.5317100000000  0.4757210000000 1.0
C      1  0.5056580000000  0.5613520000000  0.5598590000000 1.0
C      1  0.4705910000000  0.3696530000000  0.5604380000000 1.0
C      1  0.5862310000000  0.4642850000000  0.5189840000000 1.0
C      1  0.5630300000000  0.5149070000000  0.4867800000000 1.0
C      1  0.4135430000000  0.4642780000000  0.4460300000000 1.0
C      1  0.4918620000000  0.4217580000000  0.4110490000000 1.0
C      1  0.5004750000000  0.4844510000000  0.4471420000000 1.0
C      1  0.5492320000000  0.5270450000000  0.4425530000000 1.0
C      1  0.4876140000000  0.3958380000000  0.3635970000000 1.0
C      1  0.5087650000000  0.5259060000000  0.5053200000000 1.0
C      1  0.4393480000000  0.5481890000000  0.4325000000000 1.0
C      1  0.4519560000000  0.4315480000000  0.4432560000000 1.0
C      1  0.5481860000000  0.4442950000000  0.4546540000000 1.0
C      1  0.5712340000000  0.5295720000000  0.5488480000000 1.0
C      1  0.4707460000000  0.5401530000000  0.5316170000000 1.0
C      1  0.4682760000000  0.6239410000000  0.5524280000000 1.0
C      1  0.5623320000000  0.5077100000000  0.4587920000000 1.0
C      1  0.5130170000000  0.4276650000000  0.5697050000000 1.0
C      1  0.4352040000000  0.5308530000000  0.4104510000000 1.0
C      1  0.4771530000000  0.4346410000000  0.5187500000000 1.0
C      1  0.5703430000000  0.4586180000000  0.4661760000000 1.0
C      1  0.5321790000000  0.5568150000000  0.5452000000000 1.0
C      1  0.5390740000000  0.3707950000000  0.5079750000000 1.0
C      1  0.4828200000000  0.5440930000000  0.5574240000000 1.0
C      1  0.4463910000000  0.5263250000000  0.5240500000000 1.0
C      1  0.4527810000000  0.5094070000000  0.4025710000000 1.0
C      1  0.6061670000000  0.4909460000000  0.4687360000000 1.0
C      1  0.5373350000000  0.4406360000000  0.4274730000000 1.0
C      1  0.5320800000000  0.4649470000000  0.4138480000000 1.0
C      1  0.4879560000000  0.4589470000000  0.5077520000000 1.0
C      1  0.4333800000000  0.4234730000000  0.5383220000000 1.0
C      1  0.5525120000000  0.5746700000000  0.5609150000000 1.0
C      1  0.5562510000000  0.5763820000000  0.5015600000000 1.0
C      1  0.4793320000000  0.5158790000000  0.3938780000000 1.0
C      1  0.5148610000000  0.4005390000000  0.5626700000000 1.0
C      1  0.5375430000000  0.4747880000000  0.5099620000000 1.0
C      1  0.3779090000000  0.5205850000000  0.4755770000000 1.0
C      1  0.4469140000000  0.5140820000000  0.4981640000000 1.0
C      1  0.4568940000000  0.5378870000000  0.5977140000000 1.0
C      1  0.6017950000000  0.5519430000000  0.4934560000000 1.0
C      1  0.5100410000000  0.5834480000000  0.4795320000000 1.0
C      1  0.5429760000000  0.5296090000000  0.5425320000000 1.0
C      1  0.4348600000000  0.5992530000000  0.4973250000000 1.0
C      1  0.4716540000000  0.5285160000000  0.4577360000000 1.0
C      1  0.5309540000000  0.5488570000000  0.4388760000000 1.0
C      1  0.4824080000000  0.4555460000000  0.4798330000000 1.0
C      1  0.5289610000000  0.6155500000000  0.5408690000000 1.0
C      1  0.4426870000000  0.5585540000000  0.6066190000000 1.0
C      1  0.4776730000000  0.5006740000000  0.4540310000000 1.0
C      1  0.5054270000000  0.4524040000000  0.5759340000000 1.0
C      1  0.4530900000000  0.6220510000000  0.5741810000000 1.0
C      1  0.5809950000000  0.4445040000000  0.5686630000000 1.0
C      1  0.4474500000000  0.4834960000000  0.4136090000000 1.0
C      1  0.5759420000000  0.5567730000000  0.5620980000000 1.0
C      1  0.5102170000000  0.5858970000000  0.5750880000000 1.0
C      1  0.3936120000000  0.4425800000000  0.5235970000000 1.0
C      1  0.5396280000000  0.3883030000000  0.5575200000000 1.0
C      1  0.5802660000000  0.4846760000000  0.4573020000000 1.0
C      1  0.4462800000000  0.4858490000000  0.4907360000000 1.0
END
