TITL C-627109-622-1029 5.00799004142812 125000 -985.638671540741 0 0 159 (C1) n - 1
REM
REM in /home/nfs/bkarasulu/CARBON/AIRSS/Generating-Clusters/LCBOP/Only-C1/SD-CG/FIRE-CG
REM
REM
REM
REM
REM
REM ./C.cell (11c1c37f851c82e70ff6c80c92926a4b)
REM AIRSS Version 0.9.1 bugfix July 2018 build 013d7b7c2542+ Fri, 06 Jul 2018 19:26:36 +0100
REM compiler GCC version 9.2.1 20190827 (Red Hat 9.2.1-1)
REM options -cpp -mtune=generic -march=x86-64 -g -O0 -fpre-include=/usr/include/finclude/math-vector-fortran.h
REM seed 2134415398 666453812 325885492 -30696344 -520314107 1306663313 -1972835902 751753367 -2102020649 2056230134 -1664377046 -2136706283 -1852610605 13675668 1523965477 -237878999 1461663408 -345108770 785284331 -18322772 765755612 918273912 -1704731392 -141393907 -766406965 -609969089 -350500648 1611322055 -1345360306 1346896623 -802270382 -564999498 -546944339
REM
CELL 1.54180   50.00000   50.00000   50.00000   90.00000   90.00000   90.00000
LATT -1
SFAC C  
C      1  0.5384480000000  0.4249030000000  0.4208420000000 1.0
C      1  0.5357160000000  0.4593760000000  0.4856850000000 1.0
C      1  0.5139580000000  0.6037110000000  0.4578290000000 1.0
C      1  0.4517970000000  0.4980230000000  0.3770930000000 1.0
C      1  0.4567830000000  0.4125410000000  0.5356380000000 1.0
C      1  0.4977920000000  0.5358310000000  0.4560880000000 1.0
C      1  0.5653140000000  0.5544940000000  0.6294780000000 1.0
C      1  0.4786300000000  0.4992200000000  0.3742890000000 1.0
C      1  0.4677790000000  0.4989660000000  0.4401120000000 1.0
C      1  0.4879610000000  0.4069410000000  0.4757450000000 1.0
C      1  0.4989770000000  0.4890830000000  0.5689520000000 1.0
C      1  0.4855610000000  0.4888750000000  0.5152750000000 1.0
C      1  0.5337470000000  0.5481900000000  0.5540640000000 1.0
C      1  0.4998320000000  0.5608290000000  0.4656010000000 1.0
C      1  0.5278320000000  0.5316280000000  0.4940600000000 1.0
C      1  0.5346650000000  0.4953620000000  0.4276220000000 1.0
C      1  0.5997670000000  0.4993020000000  0.4802150000000 1.0
C      1  0.4509260000000  0.5319200000000  0.4116570000000 1.0
C      1  0.5496660000000  0.5627860000000  0.4339930000000 1.0
C      1  0.5411840000000  0.4514450000000  0.4101690000000 1.0
C      1  0.5077240000000  0.5103190000000  0.6355470000000 1.0
C      1  0.5076640000000  0.3896420000000  0.4374860000000 1.0
C      1  0.5754940000000  0.5145560000000  0.5171580000000 1.0
C      1  0.4806110000000  0.5760670000000  0.4208920000000 1.0
C      1  0.4833510000000  0.5779910000000  0.5768560000000 1.0
C      1  0.5168080000000  0.5367270000000  0.6310010000000 1.0
C      1  0.5246060000000  0.3835260000000  0.4596760000000 1.0
C      1  0.5922890000000  0.4629490000000  0.5431460000000 1.0
C      1  0.4441720000000  0.5676580000000  0.4870400000000 1.0
C      1  0.4975110000000  0.5387490000000  0.3946650000000 1.0
C      1  0.4861210000000  0.4074190000000  0.5739050000000 1.0
C      1  0.4941830000000  0.6130410000000  0.4782490000000 1.0
C      1  0.5520770000000  0.5925960000000  0.5443960000000 1.0
C      1  0.4870820000000  0.4275740000000  0.4190770000000 1.0
C      1  0.5233560000000  0.4525850000000  0.5486980000000 1.0
C      1  0.5412330000000  0.5659860000000  0.4604900000000 1.0
C      1  0.5768080000000  0.4932880000000  0.4968430000000 1.0
C      1  0.4025210000000  0.4640970000000  0.4884310000000 1.0
C      1  0.4182760000000  0.4276230000000  0.4664640000000 1.0
C      1  0.4946010000000  0.4348330000000  0.4817500000000 1.0
C      1  0.5516340000000  0.5691790000000  0.5598490000000 1.0
C      1  0.4865820000000  0.4515580000000  0.4337820000000 1.0
C      1  0.4826630000000  0.4701680000000  0.6209220000000 1.0
C      1  0.5759600000000  0.5623970000000  0.6063660000000 1.0
C      1  0.3885960000000  0.5364990000000  0.4918790000000 1.0
C      1  0.3904880000000  0.4881560000000  0.4951490000000 1.0
C      1  0.4204190000000  0.4101830000000  0.4448890000000 1.0
C      1  0.5001870000000  0.5137320000000  0.4744910000000 1.0
C      1  0.5817260000000  0.4703580000000  0.4308190000000 1.0
C      1  0.5845470000000  0.5391360000000  0.5017460000000 1.0
C      1  0.5242720000000  0.5166120000000  0.5173340000000 1.0
C      1  0.4760220000000  0.4875010000000  0.4656390000000 1.0
C      1  0.6161370000000  0.4591770000000  0.5008770000000 1.0
C      1  0.4216170000000  0.4893930000000  0.4167800000000 1.0
C      1  0.5752000000000  0.5504130000000  0.4328390000000 1.0
C      1  0.5925070000000  0.5397400000000  0.4509310000000 1.0
C      1  0.5846960000000  0.4222800000000  0.4368120000000 1.0
C      1  0.4705890000000  0.4664350000000  0.5181840000000 1.0
C      1  0.4371880000000  0.5910960000000  0.5011740000000 1.0
C      1  0.5188670000000  0.5266640000000  0.5438580000000 1.0
C      1  0.4425300000000  0.4067190000000  0.5114130000000 1.0
C      1  0.3695640000000  0.5410570000000  0.4726110000000 1.0
C      1  0.4524370000000  0.5222860000000  0.4382040000000 1.0
C      1  0.5947410000000  0.4471700000000  0.4351300000000 1.0
C      1  0.4137890000000  0.4718970000000  0.4371680000000 1.0
C      1  0.5202640000000  0.5556520000000  0.3955600000000 1.0
C      1  0.5289640000000  0.5724800000000  0.4167670000000 1.0
C      1  0.6203270000000  0.4799130000000  0.4818320000000 1.0
C      1  0.4497930000000  0.4387270000000  0.5467640000000 1.0
C      1  0.4740320000000  0.5283090000000  0.4974710000000 1.0
C      1  0.5222650000000  0.4660700000000  0.3936700000000 1.0
C      1  0.5687950000000  0.5041270000000  0.5427850000000 1.0
C      1  0.5485250000000  0.4590030000000  0.5618900000000 1.0
C      1  0.5555580000000  0.4160320000000  0.5281260000000 1.0
C      1  0.4690110000000  0.6264840000000  0.4752940000000 1.0
C      1  0.5589240000000  0.4349830000000  0.5739080000000 1.0
C      1  0.4903540000000  0.6019340000000  0.5301280000000 1.0
C      1  0.4436750000000  0.5530840000000  0.5656990000000 1.0
C      1  0.5126890000000  0.4126920000000  0.4199600000000 1.0
C      1  0.4256950000000  0.4535420000000  0.5383140000000 1.0
C      1  0.4660400000000  0.6485740000000  0.4595620000000 1.0
C      1  0.4728600000000  0.5425940000000  0.6086920000000 1.0
C      1  0.5611780000000  0.4131130000000  0.5575410000000 1.0
C      1  0.4028530000000  0.5725540000000  0.5315410000000 1.0
C      1  0.4642130000000  0.5167780000000  0.6175070000000 1.0
C      1  0.4223260000000  0.5026790000000  0.5926860000000 1.0
C      1  0.5690100000000  0.4770150000000  0.5519500000000 1.0
C      1  0.4390710000000  0.4065670000000  0.4261030000000 1.0
C      1  0.5553200000000  0.6029180000000  0.5198990000000 1.0
C      1  0.5256590000000  0.4308350000000  0.5273350000000 1.0
C      1  0.4805090000000  0.3960810000000  0.4493200000000 1.0
C      1  0.5005780000000  0.6260770000000  0.5387990000000 1.0
C      1  0.3921240000000  0.5555430000000  0.5121040000000 1.0
C      1  0.5188500000000  0.4404620000000  0.4990300000000 1.0
C      1  0.4907490000000  0.5701320000000  0.4907110000000 1.0
C      1  0.5662270000000  0.5609820000000  0.4972590000000 1.0
C      1  0.5591450000000  0.4721290000000  0.4933040000000 1.0
C      1  0.4287610000000  0.5841930000000  0.5275040000000 1.0
C      1  0.4353900000000  0.5293470000000  0.4587410000000 1.0
C      1  0.4855700000000  0.4233040000000  0.5956040000000 1.0
C      1  0.4213350000000  0.4794230000000  0.5504070000000 1.0
C      1  0.5573990000000  0.5899550000000  0.4951140000000 1.0
C      1  0.4447960000000  0.5254590000000  0.5570890000000 1.0
C      1  0.4311060000000  0.5560600000000  0.4655110000000 1.0
C      1  0.4377120000000  0.5086200000000  0.6137670000000 1.0
C      1  0.5207780000000  0.4707080000000  0.4645240000000 1.0
C      1  0.4830500000000  0.4042670000000  0.5456050000000 1.0
C      1  0.4057670000000  0.5622490000000  0.5805100000000 1.0
C      1  0.4624370000000  0.5586660000000  0.5871430000000 1.0
C      1  0.5483000000000  0.3915980000000  0.5097610000000 1.0
C      1  0.4088400000000  0.4552100000000  0.4610670000000 1.0
C      1  0.5863400000000  0.4096400000000  0.4909450000000 1.0
C      1  0.5584200000000  0.4120190000000  0.4381150000000 1.0
C      1  0.4370210000000  0.5084480000000  0.3990100000000 1.0
C      1  0.4231130000000  0.4521150000000  0.5077140000000 1.0
C      1  0.4980110000000  0.4632180000000  0.5570790000000 1.0
C      1  0.4678900000000  0.5548350000000  0.4957080000000 1.0
C      1  0.4734470000000  0.4551910000000  0.5441970000000 1.0
C      1  0.4296190000000  0.5092930000000  0.4781210000000 1.0
C      1  0.5178620000000  0.4936320000000  0.4028810000000 1.0
C      1  0.5449090000000  0.5482350000000  0.4818070000000 1.0
C      1  0.5045820000000  0.5744360000000  0.5961580000000 1.0
C      1  0.5240160000000  0.4955980000000  0.4538410000000 1.0
C      1  0.4664220000000  0.4093390000000  0.4281430000000 1.0
C      1  0.4757280000000  0.5865490000000  0.5498370000000 1.0
C      1  0.4484480000000  0.4669810000000  0.5005840000000 1.0
C      1  0.4995350000000  0.5107240000000  0.3896560000000 1.0
C      1  0.4495610000000  0.4876340000000  0.4811460000000 1.0
C      1  0.5101010000000  0.4944030000000  0.5068630000000 1.0
C      1  0.4486430000000  0.5754690000000  0.5460500000000 1.0
C      1  0.4709690000000  0.5124960000000  0.5190380000000 1.0
C      1  0.4037650000000  0.5123810000000  0.4906130000000 1.0
C      1  0.4275940000000  0.5032970000000  0.5649140000000 1.0
C      1  0.5816450000000  0.4261650000000  0.5139200000000 1.0
C      1  0.4941820000000  0.5956610000000  0.5020930000000 1.0
C      1  0.5396030000000  0.5932820000000  0.4708080000000 1.0
C      1  0.5511150000000  0.3936770000000  0.4594830000000 1.0
C      1  0.4701120000000  0.5195640000000  0.5459070000000 1.0
C      1  0.5067900000000  0.5882430000000  0.4304500000000 1.0
C      1  0.3946920000000  0.5702390000000  0.5582730000000 1.0
C      1  0.6638030000000  0.4822070000000  0.4501630000000 1.0
C      1  0.5087240000000  0.3874830000000  0.4841710000000 1.0
C      1  0.4734050000000  0.5506560000000  0.4064500000000 1.0
C      1  0.5699400000000  0.5666850000000  0.5808380000000 1.0
C      1  0.5641120000000  0.3929620000000  0.4848280000000 1.0
C      1  0.5069230000000  0.4052170000000  0.5298400000000 1.0
C      1  0.6431700000000  0.4810280000000  0.4660380000000 1.0
C      1  0.4470850000000  0.6152160000000  0.4900050000000 1.0
C      1  0.5549250000000  0.4738990000000  0.4238450000000 1.0
C      1  0.4837700000000  0.4453340000000  0.6108430000000 1.0
C      1  0.5196650000000  0.3875880000000  0.5099630000000 1.0
C      1  0.4271300000000  0.4241490000000  0.4945430000000 1.0
C      1  0.4960260000000  0.5150470000000  0.5579310000000 1.0
C      1  0.4999100000000  0.5526380000000  0.6147340000000 1.0
C      1  0.5986460000000  0.4479720000000  0.5201850000000 1.0
C      1  0.5421510000000  0.5452050000000  0.6387930000000 1.0
C      1  0.4919420000000  0.4601620000000  0.4621610000000 1.0
C      1  0.5976790000000  0.5283250000000  0.4765480000000 1.0
C      1  0.4842530000000  0.4978830000000  0.6258910000000 1.0
END
