TITL C-627111-6168-1419 0.00469558795211117 125000 -984.259002983678 0 0 161 (C1) n - 1
REM
REM in /home/nfs/bkarasulu/CARBON/AIRSS/Generating-Clusters/LCBOP/Only-C1/SD-CG/FIRE-CG
REM
REM
REM
REM
REM
REM ./C.cell (11c1c37f851c82e70ff6c80c92926a4b)
REM AIRSS Version 0.9.1 bugfix July 2018 build 013d7b7c2542+ Fri, 06 Jul 2018 19:26:36 +0100
REM compiler GCC version 9.2.1 20190827 (Red Hat 9.2.1-1)
REM options -cpp -mtune=generic -march=x86-64 -g -O0 -fpre-include=/usr/include/finclude/math-vector-fortran.h
REM seed 518965569 -1447169236 127993354 1370958457 -1546730047 -510385118 1073136339 177008472 1195094118 1091356803 1545905870 212219304 465034195 -461509091 1703579231 563351275 748046230 -1052928988 -76730135 -204860181 -388118066 36229749 1761599723 1416498328 473558494 411296293 672574538 -660609774 143170643 748922763 -691118072 1948159501 1412055719
REM
CELL 1.54180   50.00000   50.00000   50.00000   90.00000   90.00000   90.00000
LATT -1
SFAC C  
C      1  0.4574220000000  0.5225910000000  0.5817980000000 1.0
C      1  0.4965040000000  0.5162720000000  0.5361450000000 1.0
C      1  0.6237240000000  0.5709860000000  0.4349490000000 1.0
C      1  0.4956050000000  0.5661830000000  0.5895610000000 1.0
C      1  0.4036450000000  0.5929050000000  0.4914350000000 1.0
C      1  0.5651690000000  0.4321230000000  0.6087600000000 1.0
C      1  0.4358950000000  0.4843250000000  0.5903800000000 1.0
C      1  0.5584260000000  0.4792120000000  0.6113180000000 1.0
C      1  0.5006610000000  0.5137650000000  0.3868630000000 1.0
C      1  0.4147660000000  0.4788710000000  0.4254580000000 1.0
C      1  0.5975630000000  0.4637660000000  0.4488080000000 1.0
C      1  0.4533700000000  0.5437670000000  0.4700520000000 1.0
C      1  0.4306030000000  0.5479040000000  0.5558620000000 1.0
C      1  0.5052000000000  0.5315750000000  0.4485710000000 1.0
C      1  0.5113460000000  0.5004120000000  0.6186370000000 1.0
C      1  0.5132320000000  0.4142420000000  0.4497670000000 1.0
C      1  0.4282110000000  0.4257860000000  0.4474370000000 1.0
C      1  0.5235070000000  0.5680940000000  0.5792130000000 1.0
C      1  0.4953450000000  0.4662270000000  0.4427260000000 1.0
C      1  0.4017600000000  0.4690780000000  0.5204740000000 1.0
C      1  0.4934730000000  0.4876260000000  0.5021820000000 1.0
C      1  0.4493130000000  0.4426550000000  0.4067820000000 1.0
C      1  0.4567200000000  0.4912940000000  0.4070050000000 1.0
C      1  0.4784620000000  0.4225840000000  0.4428280000000 1.0
C      1  0.4423900000000  0.4296340000000  0.5690890000000 1.0
C      1  0.5953170000000  0.4973370000000  0.5413290000000 1.0
C      1  0.6138680000000  0.4719010000000  0.4283370000000 1.0
C      1  0.5474250000000  0.4116640000000  0.5699250000000 1.0
C      1  0.5236040000000  0.5837150000000  0.5545420000000 1.0
C      1  0.5366520000000  0.5096330000000  0.4964600000000 1.0
C      1  0.5311110000000  0.5093500000000  0.3821980000000 1.0
C      1  0.5046970000000  0.5230050000000  0.5616770000000 1.0
C      1  0.5047730000000  0.5275800000000  0.6261790000000 1.0
C      1  0.4922630000000  0.5424620000000  0.6049730000000 1.0
C      1  0.3914400000000  0.5576680000000  0.5211780000000 1.0
C      1  0.4545660000000  0.5068900000000  0.4302110000000 1.0
C      1  0.4491440000000  0.4898200000000  0.5131650000000 1.0
C      1  0.5170890000000  0.5885550000000  0.4670420000000 1.0
C      1  0.4426720000000  0.4500150000000  0.5480120000000 1.0
C      1  0.4906330000000  0.6203070000000  0.5430350000000 1.0
C      1  0.4720860000000  0.5255110000000  0.4898810000000 1.0
C      1  0.4861740000000  0.5204700000000  0.5846730000000 1.0
C      1  0.5192220000000  0.5780400000000  0.4948560000000 1.0
C      1  0.3884290000000  0.5289510000000  0.5197760000000 1.0
C      1  0.5566690000000  0.4426740000000  0.4262510000000 1.0
C      1  0.4961350000000  0.5955780000000  0.5532320000000 1.0
C      1  0.4682820000000  0.4977970000000  0.4944690000000 1.0
C      1  0.4806090000000  0.5596640000000  0.5213240000000 1.0
C      1  0.5986750000000  0.4772230000000  0.4742240000000 1.0
C      1  0.4225180000000  0.5379390000000  0.4631580000000 1.0
C      1  0.6133670000000  0.4678110000000  0.4968560000000 1.0
C      1  0.5302810000000  0.4059080000000  0.4740050000000 1.0
C      1  0.4277850000000  0.5855570000000  0.4488190000000 1.0
C      1  0.4583440000000  0.4664960000000  0.5897230000000 1.0
C      1  0.4514970000000  0.4395930000000  0.5937760000000 1.0
C      1  0.5816240000000  0.5209750000000  0.4667300000000 1.0
C      1  0.4894310000000  0.5979370000000  0.4629570000000 1.0
C      1  0.5412410000000  0.4860350000000  0.3973450000000 1.0
C      1  0.5709650000000  0.4841000000000  0.5547680000000 1.0
C      1  0.4882480000000  0.5333850000000  0.5145280000000 1.0
C      1  0.4969290000000  0.4883730000000  0.5307080000000 1.0
C      1  0.4534140000000  0.4258830000000  0.6177070000000 1.0
C      1  0.6095950000000  0.5638660000000  0.4109340000000 1.0
C      1  0.4503000000000  0.4636200000000  0.5233750000000 1.0
C      1  0.4771090000000  0.4261980000000  0.5196130000000 1.0
C      1  0.5206080000000  0.4581170000000  0.4525240000000 1.0
C      1  0.4954360000000  0.4655640000000  0.5493280000000 1.0
C      1  0.5726720000000  0.5742180000000  0.5423120000000 1.0
C      1  0.5685280000000  0.4162340000000  0.5297690000000 1.0
C      1  0.5647910000000  0.4312140000000  0.5547360000000 1.0
C      1  0.3927150000000  0.5104270000000  0.4940130000000 1.0
C      1  0.4534170000000  0.5801060000000  0.4367910000000 1.0
C      1  0.5497920000000  0.5053690000000  0.5530120000000 1.0
C      1  0.5367920000000  0.4899260000000  0.6225110000000 1.0
C      1  0.5282310000000  0.4916290000000  0.4224430000000 1.0
C      1  0.4760330000000  0.5795840000000  0.5695590000000 1.0
C      1  0.6194270000000  0.4405400000000  0.4929420000000 1.0
C      1  0.4093740000000  0.5625290000000  0.4550650000000 1.0
C      1  0.5008560000000  0.4838080000000  0.4223390000000 1.0
C      1  0.5310770000000  0.4357770000000  0.4385460000000 1.0
C      1  0.4927420000000  0.5801160000000  0.5061570000000 1.0
C      1  0.5292390000000  0.5747530000000  0.4186320000000 1.0
C      1  0.4126900000000  0.5271870000000  0.5673080000000 1.0
C      1  0.6143050000000  0.5728810000000  0.3858050000000 1.0
C      1  0.5796270000000  0.4415050000000  0.4450600000000 1.0
C      1  0.4518290000000  0.5576870000000  0.5152930000000 1.0
C      1  0.5520050000000  0.4113780000000  0.5975080000000 1.0
C      1  0.6104810000000  0.4823290000000  0.5217650000000 1.0
C      1  0.4550290000000  0.4985010000000  0.4548790000000 1.0
C      1  0.5293430000000  0.5724110000000  0.4470830000000 1.0
C      1  0.4776520000000  0.4487300000000  0.4544760000000 1.0
C      1  0.5439790000000  0.5020920000000  0.4417790000000 1.0
C      1  0.4642330000000  0.4473420000000  0.5052810000000 1.0
C      1  0.4520710000000  0.5690370000000  0.4883320000000 1.0
C      1  0.5851940000000  0.5517490000000  0.5560320000000 1.0
C      1  0.4114440000000  0.4417280000000  0.4620940000000 1.0
C      1  0.4099990000000  0.4926620000000  0.5364980000000 1.0
C      1  0.4850980000000  0.4718900000000  0.5781550000000 1.0
C      1  0.5276980000000  0.5451130000000  0.4548090000000 1.0
C      1  0.3929170000000  0.4798590000000  0.4953200000000 1.0
C      1  0.4741660000000  0.5994770000000  0.4392890000000 1.0
C      1  0.5436140000000  0.4009520000000  0.5237920000000 1.0
C      1  0.5594680000000  0.5239580000000  0.5318480000000 1.0
C      1  0.5422820000000  0.5459730000000  0.5811390000000 1.0
C      1  0.4557160000000  0.4129770000000  0.6402290000000 1.0
C      1  0.3945510000000  0.5152130000000  0.5463070000000 1.0
C      1  0.5795690000000  0.4965000000000  0.4805980000000 1.0
C      1  0.4058870000000  0.5830320000000  0.5185960000000 1.0
C      1  0.5690640000000  0.4577850000000  0.5669770000000 1.0
C      1  0.5922040000000  0.5393450000000  0.4486420000000 1.0
C      1  0.4335310000000  0.5078820000000  0.5265950000000 1.0
C      1  0.5371740000000  0.5627520000000  0.5109160000000 1.0
C      1  0.5009920000000  0.4410220000000  0.5315210000000 1.0
C      1  0.4223860000000  0.6042740000000  0.4717160000000 1.0
C      1  0.5894360000000  0.4110000000000  0.5124110000000 1.0
C      1  0.5447920000000  0.5769000000000  0.5354030000000 1.0
C      1  0.4252940000000  0.5906210000000  0.5399080000000 1.0
C      1  0.4956670000000  0.4931170000000  0.5951660000000 1.0
C      1  0.4512250000000  0.4236010000000  0.4294290000000 1.0
C      1  0.5585540000000  0.4883840000000  0.4988550000000 1.0
C      1  0.4689030000000  0.4425440000000  0.3859580000000 1.0
C      1  0.4852430000000  0.4888860000000  0.3966030000000 1.0
C      1  0.5342390000000  0.3950730000000  0.5505270000000 1.0
C      1  0.5431940000000  0.5339310000000  0.5105910000000 1.0
C      1  0.4425450000000  0.4015810000000  0.5660530000000 1.0
C      1  0.5230550000000  0.5539210000000  0.3999450000000 1.0
C      1  0.5691480000000  0.5367770000000  0.4013840000000 1.0
C      1  0.5251380000000  0.4409200000000  0.5128570000000 1.0
C      1  0.5889810000000  0.5446300000000  0.4194950000000 1.0
C      1  0.5675090000000  0.4575170000000  0.5962480000000 1.0
C      1  0.4860730000000  0.5404280000000  0.4293430000000 1.0
C      1  0.5875970000000  0.5269670000000  0.5400050000000 1.0
C      1  0.4972700000000  0.5393500000000  0.4024010000000 1.0
C      1  0.4541300000000  0.4075320000000  0.5217270000000 1.0
C      1  0.5322770000000  0.5217570000000  0.5687230000000 1.0
C      1  0.4065360000000  0.4890380000000  0.4510980000000 1.0
C      1  0.4426760000000  0.5748220000000  0.5590970000000 1.0
C      1  0.4846350000000  0.4640960000000  0.3798210000000 1.0
C      1  0.4524400000000  0.3900050000000  0.5437450000000 1.0
C      1  0.5433770000000  0.5353160000000  0.3901870000000 1.0
C      1  0.4064720000000  0.5146560000000  0.4672780000000 1.0
C      1  0.4374140000000  0.4694880000000  0.4101280000000 1.0
C      1  0.5810120000000  0.4203290000000  0.4651590000000 1.0
C      1  0.5553030000000  0.4608460000000  0.4027750000000 1.0
C      1  0.4274470000000  0.4199000000000  0.5152020000000 1.0
C      1  0.5152170000000  0.4932160000000  0.4859950000000 1.0
C      1  0.4646520000000  0.4510110000000  0.4783260000000 1.0
C      1  0.4012110000000  0.4673540000000  0.4701880000000 1.0
C      1  0.5707940000000  0.5486920000000  0.5810460000000 1.0
C      1  0.5428770000000  0.4620550000000  0.4992630000000 1.0
C      1  0.4316040000000  0.5110360000000  0.5827380000000 1.0
C      1  0.5990580000000  0.4212930000000  0.4881740000000 1.0
C      1  0.5289830000000  0.4133520000000  0.5022630000000 1.0
C      1  0.4095080000000  0.4407600000000  0.5194200000000 1.0
C      1  0.4634940000000  0.5530360000000  0.4418630000000 1.0
C      1  0.5262880000000  0.4686090000000  0.4765300000000 1.0
C      1  0.4738370000000  0.5889150000000  0.4857160000000 1.0
C      1  0.3900570000000  0.5733200000000  0.4738080000000 1.0
C      1  0.5583100000000  0.4028530000000  0.4663580000000 1.0
C      1  0.6137000000000  0.5572020000000  0.4565980000000 1.0
C      1  0.4384040000000  0.5368640000000  0.5298270000000 1.0
END
