TITL C-627111-6168-250 504112.149446652 125000 -1069.96208738531 0 0 174 (C1) n - 1
REM
REM in /home/nfs/bkarasulu/CARBON/AIRSS/Generating-Clusters/LCBOP/Only-C1/SD-CG/FIRE-CG
REM
REM
REM
REM
REM
REM ./C.cell (11c1c37f851c82e70ff6c80c92926a4b)
REM AIRSS Version 0.9.1 bugfix July 2018 build 013d7b7c2542+ Fri, 06 Jul 2018 19:26:36 +0100
REM compiler GCC version 9.2.1 20190827 (Red Hat 9.2.1-1)
REM options -cpp -mtune=generic -march=x86-64 -g -O0 -fpre-include=/usr/include/finclude/math-vector-fortran.h
REM seed -145437971 1687682835 -807010948 -605801824 1594112387 -1418377445 289728649 295888132 -2087551517 863036452 -1495231141 -898592994 -747692024 -1857646121 298991443 -1095420281 -885197904 1477584279 517285083 1675913361 -70620100 -152182689 -415161127 -1274642896 -491588187 136852860 986331244 -2071790614 -807777142 826531090 -1319671691 679194095 -488774476
REM
CELL 1.54180   50.00000   50.00000   50.00000   90.00000   90.00000   90.00000
LATT -1
SFAC C  
C      1  0.5281350000000  0.4411840000000  0.4436340000000 1.0
C      1  0.5620930000000  0.4555740000000  0.4784360000000 1.0
C      1  0.4436750000000  0.4194760000000  0.4796950000000 1.0
C      1  0.4885720000000  0.4801240000000  0.5206710000000 1.0
C      1  0.5085600000000  0.5177540000000  0.5034950000000 1.0
C      1  0.5381250000000  0.4685470000000  0.3961640000000 1.0
C      1  0.4897030000000  0.5286870000000  0.4625940000000 1.0
C      1  0.4946140000000  0.4569660000000  0.4720160000000 1.0
C      1  0.4736670000000  0.6343110000000  0.5395270000000 1.0
C      1  0.6344750000000  0.4572710000000  0.4966230000000 1.0
C      1  0.4920980000000  0.4581820000000  0.5997120000000 1.0
C      1  0.5008540000000  0.5534000000000  0.4127150000000 1.0
C      1  0.3938710000000  0.5298240000000  0.4257510000000 1.0
C      1  0.5822450000000  0.5692060000000  0.5299960000000 1.0
C      1  0.3847690000000  0.5257400000000  0.4977190000000 1.0
C      1  0.5484650000000  0.4829770000000  0.4423070000000 1.0
C      1  0.5504570000000  0.5145530000000  0.4776110000000 1.0
C      1  0.4490520000000  0.5423080000000  0.5560090000000 1.0
C      1  0.4895880000000  0.5548730000000  0.5301960000000 1.0
C      1  0.6421780000000  0.5022140000000  0.5133830000000 1.0
C      1  0.4679910000000  0.5392090000000  0.4480120000000 1.0
C      1  0.5626040000000  0.5877120000000  0.4427070000000 1.0
C      1  0.5946440000000  0.5526850000000  0.5103820000000 1.0
C      1  0.4703000000000  0.5213260000000  0.5557750000000 1.0
C      1  0.4825210000000  0.5312260000000  0.6004470000000 1.0
C      1  0.4609160000000  0.4748240000000  0.5254970000000 1.0
C      1  0.4885950000000  0.5776030000000  0.5728980000000 1.0
C      1  0.4059580000000  0.5726230000000  0.5272740000000 1.0
C      1  0.3970070000000  0.4978340000000  0.4925220000000 1.0
C      1  0.5232410000000  0.3887390000000  0.5519530000000 1.0
C      1  0.3955590000000  0.6508650000000  0.4920080000000 1.0
C      1  0.4864640000000  0.3736750000000  0.5321410000000 1.0
C      1  0.6097160000000  0.4226720000000  0.5274840000000 1.0
C      1  0.6363070000000  0.4848760000000  0.4915860000000 1.0
C      1  0.5157890000000  0.4844140000000  0.3907080000000 1.0
C      1  0.4759060000000  0.4954860000000  0.5665400000000 1.0
C      1  0.5719040000000  0.4765430000000  0.4258050000000 1.0
C      1  0.4739740000000  0.4360720000000  0.5916470000000 1.0
C      1  0.4482280000000  0.4744520000000  0.4197870000000 1.0
C      1  0.4010670000000  0.5307660000000  0.3738290000000 1.0
C      1  0.5320720000000  0.4949310000000  0.5398670000000 1.0
C      1  0.4202030000000  0.4228530000000  0.4649620000000 1.0
C      1  0.4930700000000  0.5381970000000  0.5533580000000 1.0
C      1  0.4742480000000  0.3688770000000  0.4792230000000 1.0
C      1  0.4687220000000  0.4326130000000  0.4206990000000 1.0
C      1  0.4458190000000  0.4414860000000  0.5831920000000 1.0
C      1  0.5756770000000  0.5067280000000  0.4861470000000 1.0
C      1  0.5743230000000  0.4760370000000  0.5271380000000 1.0
C      1  0.5345030000000  0.4813080000000  0.6146040000000 1.0
C      1  0.5456410000000  0.5626120000000  0.4770720000000 1.0
C      1  0.5167890000000  0.6185740000000  0.5189530000000 1.0
C      1  0.4263180000000  0.6349170000000  0.5310610000000 1.0
C      1  0.5900990000000  0.4296580000000  0.4420740000000 1.0
C      1  0.4677560000000  0.3909130000000  0.5202790000000 1.0
C      1  0.4773540000000  0.4111820000000  0.4378180000000 1.0
C      1  0.4719390000000  0.4909380000000  0.3794520000000 1.0
C      1  0.5243790000000  0.5071050000000  0.4822700000000 1.0
C      1  0.4328330000000  0.5793310000000  0.5199130000000 1.0
C      1  0.5452650000000  0.4673830000000  0.5288490000000 1.0
C      1  0.5520580000000  0.5163400000000  0.5293720000000 1.0
C      1  0.5333460000000  0.5899940000000  0.4340910000000 1.0
C      1  0.5112720000000  0.6012860000000  0.4480460000000 1.0
C      1  0.5875590000000  0.5471830000000  0.4345100000000 1.0
C      1  0.5505250000000  0.4935220000000  0.6343580000000 1.0
C      1  0.4878340000000  0.4114380000000  0.5852810000000 1.0
C      1  0.4337000000000  0.4855170000000  0.5685920000000 1.0
C      1  0.4491610000000  0.6209420000000  0.5392610000000 1.0
C      1  0.3793110000000  0.5020350000000  0.5407400000000 1.0
C      1  0.3884600000000  0.4744640000000  0.5349810000000 1.0
C      1  0.5619950000000  0.4861990000000  0.4008020000000 1.0
C      1  0.4981900000000  0.6345180000000  0.5292900000000 1.0
C      1  0.4865780000000  0.6061260000000  0.4352170000000 1.0
C      1  0.4451280000000  0.5300710000000  0.4637550000000 1.0
C      1  0.4258890000000  0.5336330000000  0.5426910000000 1.0
C      1  0.4012510000000  0.5465800000000  0.5372600000000 1.0
C      1  0.5641230000000  0.5287770000000  0.4337220000000 1.0
C      1  0.4902240000000  0.4704750000000  0.3882370000000 1.0
C      1  0.5328460000000  0.5818180000000  0.5934340000000 1.0
C      1  0.4768370000000  0.5177740000000  0.3840530000000 1.0
C      1  0.5264100000000  0.5695380000000  0.4133360000000 1.0
C      1  0.4421530000000  0.4469520000000  0.4254290000000 1.0
C      1  0.4288420000000  0.5493670000000  0.4789590000000 1.0
C      1  0.4373330000000  0.5051170000000  0.5898470000000 1.0
C      1  0.5337920000000  0.5827690000000  0.5445840000000 1.0
C      1  0.4983570000000  0.4668230000000  0.4977970000000 1.0
C      1  0.4968200000000  0.4444860000000  0.5535910000000 1.0
C      1  0.5924970000000  0.5613600000000  0.4814070000000 1.0
C      1  0.4250200000000  0.5049970000000  0.5003060000000 1.0
C      1  0.4456880000000  0.5624000000000  0.5001700000000 1.0
C      1  0.6000760000000  0.5252760000000  0.5207480000000 1.0
C      1  0.5175170000000  0.5856970000000  0.5692210000000 1.0
C      1  0.5699140000000  0.5781190000000  0.4702600000000 1.0
C      1  0.3965000000000  0.5319450000000  0.3994690000000 1.0
C      1  0.6148210000000  0.4908510000000  0.5509860000000 1.0
C      1  0.3892430000000  0.4528080000000  0.4835340000000 1.0
C      1  0.4089040000000  0.6445810000000  0.5135190000000 1.0
C      1  0.3997740000000  0.5408720000000  0.4760050000000 1.0
C      1  0.5767250000000  0.5055030000000  0.5158170000000 1.0
C      1  0.5521790000000  0.5450700000000  0.6269230000000 1.0
C      1  0.6214920000000  0.4970050000000  0.4708600000000 1.0
C      1  0.5609280000000  0.5746990000000  0.5452820000000 1.0
C      1  0.5650710000000  0.3985400000000  0.4761750000000 1.0
C      1  0.4202430000000  0.4446080000000  0.4448590000000 1.0
C      1  0.4484250000000  0.5925860000000  0.5403550000000 1.0
C      1  0.3890760000000  0.4715120000000  0.5057310000000 1.0
C      1  0.4521620000000  0.4613270000000  0.5015480000000 1.0
C      1  0.4539160000000  0.5239530000000  0.6017700000000 1.0
C      1  0.5440960000000  0.5659340000000  0.6120280000000 1.0
C      1  0.5579420000000  0.4246830000000  0.5867340000000 1.0
C      1  0.4845700000000  0.4845660000000  0.5912460000000 1.0
C      1  0.4752550000000  0.4192090000000  0.5175840000000 1.0
C      1  0.5149320000000  0.5064020000000  0.4089910000000 1.0
C      1  0.4986290000000  0.3834100000000  0.4763350000000 1.0
C      1  0.5998590000000  0.5417220000000  0.4608090000000 1.0
C      1  0.4542060000000  0.4783400000000  0.4779370000000 1.0
C      1  0.3966200000000  0.4252860000000  0.4811720000000 1.0
C      1  0.5815950000000  0.4097660000000  0.4581030000000 1.0
C      1  0.4999760000000  0.4327590000000  0.5290880000000 1.0
C      1  0.4302360000000  0.5101380000000  0.5272630000000 1.0
C      1  0.6242560000000  0.4363480000000  0.5097580000000 1.0
C      1  0.5246490000000  0.4997720000000  0.4353260000000 1.0
C      1  0.4886920000000  0.5343620000000  0.4906160000000 1.0
C      1  0.3958990000000  0.5220490000000  0.4522960000000 1.0
C      1  0.5413320000000  0.4009110000000  0.4910440000000 1.0
C      1  0.5557170000000  0.5201250000000  0.6364560000000 1.0
C      1  0.4418590000000  0.4888470000000  0.5409800000000 1.0
C      1  0.5930950000000  0.4169450000000  0.5476260000000 1.0
C      1  0.5207390000000  0.4561080000000  0.6087910000000 1.0
C      1  0.5265950000000  0.5790880000000  0.4922910000000 1.0
C      1  0.4691660000000  0.5862540000000  0.4292790000000 1.0
C      1  0.5948450000000  0.4727410000000  0.5467750000000 1.0
C      1  0.3968090000000  0.4941510000000  0.4614440000000 1.0
C      1  0.5291010000000  0.4270550000000  0.4915830000000 1.0
C      1  0.5212970000000  0.4448530000000  0.4160260000000 1.0
C      1  0.5095880000000  0.5934140000000  0.4747330000000 1.0
C      1  0.5200270000000  0.3825180000000  0.4976610000000 1.0
C      1  0.5760570000000  0.4185220000000  0.5680890000000 1.0
C      1  0.5081060000000  0.3979550000000  0.5729960000000 1.0
C      1  0.4986570000000  0.5278050000000  0.4000690000000 1.0
C      1  0.3999640000000  0.4547860000000  0.5548400000000 1.0
C      1  0.4245730000000  0.4585580000000  0.5714430000000 1.0
C      1  0.5532440000000  0.5631090000000  0.4020580000000 1.0
C      1  0.5570100000000  0.5382370000000  0.3885550000000 1.0
C      1  0.4913850000000  0.4465590000000  0.4062390000000 1.0
C      1  0.4562660000000  0.3770210000000  0.4980810000000 1.0
C      1  0.5098760000000  0.5095090000000  0.4572370000000 1.0
C      1  0.5455890000000  0.4594900000000  0.4571530000000 1.0
C      1  0.5614210000000  0.5157770000000  0.4059260000000 1.0
C      1  0.5500090000000  0.5371300000000  0.4600860000000 1.0
C      1  0.4926460000000  0.5496890000000  0.5805510000000 1.0
C      1  0.5064170000000  0.5009510000000  0.5259790000000 1.0
C      1  0.5750000000000  0.5707540000000  0.4219970000000 1.0
C      1  0.5992160000000  0.5141310000000  0.4705400000000 1.0
C      1  0.5253630000000  0.4409290000000  0.5164340000000 1.0
C      1  0.4957500000000  0.4070310000000  0.4593000000000 1.0
C      1  0.5881040000000  0.4541520000000  0.4309910000000 1.0
C      1  0.4692390000000  0.4836880000000  0.4342690000000 1.0
C      1  0.4006750000000  0.4652290000000  0.4575500000000 1.0
C      1  0.4610210000000  0.5752320000000  0.5593030000000 1.0
C      1  0.6225400000000  0.5108120000000  0.5319210000000 1.0
C      1  0.4736500000000  0.5529750000000  0.5059280000000 1.0
C      1  0.5378910000000  0.4350680000000  0.6010050000000 1.0
C      1  0.4744060000000  0.4719640000000  0.4592430000000 1.0
C      1  0.5329900000000  0.4987500000000  0.5693620000000 1.0
C      1  0.4765140000000  0.5590090000000  0.4286210000000 1.0
C      1  0.3863260000000  0.4308850000000  0.5578990000000 1.0
C      1  0.5254010000000  0.5012270000000  0.5961870000000 1.0
C      1  0.4568220000000  0.4333710000000  0.5003190000000 1.0
C      1  0.5260750000000  0.5918320000000  0.5186150000000 1.0
C      1  0.5108730000000  0.4318860000000  0.4665480000000 1.0
C      1  0.5141580000000  0.3782210000000  0.5265350000000 1.0
C      1  0.4985570000000  0.5077560000000  0.6025960000000 1.0
C      1  0.3821810000000  0.5279560000000  0.5266250000000 1.0
C      1  0.4433810000000  0.5044170000000  0.4785630000000 1.0
END
