TITL C-627113-6568-1655 0.310496565836535 125000 -105.25780094152 0 0 19 (Cs) n - 1
REM
REM in /home/nfs/bkarasulu/CARBON/AIRSS/Generating-Clusters/LCBOP/Only-C1/SD-CG/FIRE-CG
REM
REM
REM
REM
REM
REM ./C.cell (11c1c37f851c82e70ff6c80c92926a4b)
REM AIRSS Version 0.9.1 bugfix July 2018 build 013d7b7c2542+ Fri, 06 Jul 2018 19:26:36 +0100
REM compiler GCC version 9.2.1 20190827 (Red Hat 9.2.1-1)
REM options -cpp -mtune=generic -march=x86-64 -g -O0 -fpre-include=/usr/include/finclude/math-vector-fortran.h
REM seed -45182421 -238968558 870876422 -1734712260 -359498671 1257532211 -2095133249 263211979 245839805 738594563 -1404543325 2004945369 -923813232 -725095833 1969831114 -763194030 1388235991 -232977417 1057589449 -559344423 -139996430 -1491024863 -76301671 1986637978 1306912654 897652234 1825020680 -1913113515 312074561 1924691976 333624189 -1206046034 -269720940
REM
CELL 1.54180   50.00000   50.00000   50.00000   90.00000   90.00000   90.00000
LATT -1
SFAC C  
C      1  0.4660090000000  0.4786110000000  0.4860590000000 1.0
C      1  0.4198280000000  0.4526370000000  0.4848000000000 1.0
C      1  0.4890890000000  0.4915930000000  0.4866940000000 1.0
C      1  0.5524450000000  0.5431920000000  0.5799140000000 1.0
C      1  0.3509250000000  0.4138830000000  0.4829230000000 1.0
C      1  0.5429900000000  0.5136200000000  0.4406510000000 1.0
C      1  0.5278290000000  0.5091870000000  0.4637040000000 1.0
C      1  0.5716890000000  0.5618190000000  0.6251580000000 1.0
C      1  0.5233790000000  0.5150440000000  0.5114970000000 1.0
C      1  0.5621470000000  0.5525830000000  0.6027240000000 1.0
C      1  0.4429190000000  0.4656240000000  0.4854290000000 1.0
C      1  0.5342500000000  0.5045110000000  0.4163880000000 1.0
C      1  0.5671970000000  0.5274750000000  0.4426850000000 1.0
C      1  0.5330470000000  0.5244160000000  0.5343070000000 1.0
C      1  0.3736410000000  0.4266600000000  0.4835420000000 1.0
C      1  0.5134310000000  0.5052730000000  0.4872960000000 1.0
C      1  0.3967380000000  0.4396500000000  0.4841710000000 1.0
C      1  0.5897030000000  0.5404210000000  0.4449470000000 1.0
C      1  0.5427450000000  0.5338040000000  0.5571100000000 1.0
END
