TITL C-627113-6568-1143 -1.01979433168032 125000 -562.127779630293 0 0 94 (C1) n - 1
REM
REM in /home/nfs/bkarasulu/CARBON/AIRSS/Generating-Clusters/LCBOP/Only-C1/SD-CG/FIRE-CG
REM
REM
REM
REM
REM
REM ./C.cell (11c1c37f851c82e70ff6c80c92926a4b)
REM AIRSS Version 0.9.1 bugfix July 2018 build 013d7b7c2542+ Fri, 06 Jul 2018 19:26:36 +0100
REM compiler GCC version 9.2.1 20190827 (Red Hat 9.2.1-1)
REM options -cpp -mtune=generic -march=x86-64 -g -O0 -fpre-include=/usr/include/finclude/math-vector-fortran.h
REM seed 1077541770 91047363 -1097846324 -1541918074 -1475497056 -344239856 723048759 172626404 -1523707942 446849018 1792048262 318756632 -176386253 -1460711557 1537541959 -1031621167 1123958631 624980905 1574753940 70795092 1003928568 -808770587 -746342410 1561503271 1994138081 989480468 -152987976 -1607071206 -1809648843 1500757165 497593557 -1556490970 -1167199800
REM
CELL 1.54180   50.00000   50.00000   50.00000   90.00000   90.00000   90.00000
LATT -1
SFAC C  
C      1  0.5967950000000  0.5216010000000  0.4710630000000 1.0
C      1  0.5165810000000  0.4270360000000  0.5360790000000 1.0
C      1  0.4882500000000  0.3955260000000  0.4744290000000 1.0
C      1  0.4271860000000  0.4644460000000  0.4695430000000 1.0
C      1  0.5004330000000  0.5300100000000  0.4975980000000 1.0
C      1  0.4805970000000  0.4951040000000  0.4127200000000 1.0
C      1  0.4366790000000  0.5292690000000  0.5118480000000 1.0
C      1  0.5442120000000  0.4332720000000  0.4367550000000 1.0
C      1  0.4586530000000  0.5689080000000  0.4919890000000 1.0
C      1  0.5418380000000  0.4858670000000  0.5730070000000 1.0
C      1  0.4245800000000  0.5389670000000  0.4323300000000 1.0
C      1  0.4457470000000  0.5557320000000  0.4438540000000 1.0
C      1  0.4650580000000  0.5123110000000  0.5696450000000 1.0
C      1  0.4740780000000  0.4722460000000  0.4603900000000 1.0
C      1  0.5272660000000  0.5139450000000  0.4039190000000 1.0
C      1  0.4477970000000  0.6081720000000  0.5610760000000 1.0
C      1  0.4971810000000  0.5712150000000  0.4609250000000 1.0
C      1  0.5815450000000  0.5137420000000  0.5723620000000 1.0
C      1  0.5756070000000  0.4900210000000  0.5017030000000 1.0
C      1  0.4780010000000  0.5246140000000  0.4788840000000 1.0
C      1  0.4623870000000  0.5146570000000  0.4235230000000 1.0
C      1  0.5093810000000  0.4956770000000  0.4159310000000 1.0
C      1  0.4268240000000  0.4858490000000  0.4953100000000 1.0
C      1  0.5415240000000  0.5389980000000  0.5245640000000 1.0
C      1  0.6163840000000  0.4774660000000  0.4784080000000 1.0
C      1  0.5194390000000  0.4973280000000  0.4634450000000 1.0
C      1  0.5963560000000  0.4961360000000  0.4837660000000 1.0
C      1  0.5660210000000  0.5380980000000  0.5677510000000 1.0
C      1  0.6035500000000  0.5448300000000  0.4856320000000 1.0
C      1  0.4380700000000  0.5040220000000  0.5706670000000 1.0
C      1  0.4713040000000  0.5001530000000  0.4672550000000 1.0
C      1  0.4733950000000  0.4967610000000  0.5191320000000 1.0
C      1  0.5207010000000  0.4816280000000  0.4390590000000 1.0
C      1  0.4813940000000  0.4414080000000  0.5683100000000 1.0
C      1  0.4598610000000  0.5577970000000  0.5437160000000 1.0
C      1  0.4151320000000  0.5322580000000  0.4923890000000 1.0
C      1  0.4396320000000  0.4398510000000  0.4709070000000 1.0
C      1  0.4534310000000  0.5835580000000  0.5530630000000 1.0
C      1  0.5002190000000  0.5039660000000  0.5102190000000 1.0
C      1  0.4977210000000  0.4191130000000  0.5592010000000 1.0
C      1  0.5135310000000  0.5248120000000  0.4542100000000 1.0
C      1  0.4393430000000  0.5661740000000  0.4701230000000 1.0
C      1  0.4531890000000  0.5524300000000  0.5163250000000 1.0
C      1  0.5177150000000  0.5491120000000  0.5858790000000 1.0
C      1  0.5605120000000  0.5378280000000  0.4362920000000 1.0
C      1  0.5710630000000  0.4864590000000  0.5733000000000 1.0
C      1  0.5649600000000  0.5747630000000  0.4932900000000 1.0
C      1  0.5657210000000  0.4424840000000  0.5525130000000 1.0
C      1  0.4716790000000  0.5397190000000  0.5632330000000 1.0
C      1  0.4663230000000  0.4563660000000  0.4370120000000 1.0
C      1  0.5253970000000  0.4631420000000  0.5693130000000 1.0
C      1  0.5321840000000  0.5094100000000  0.5610310000000 1.0
C      1  0.5908000000000  0.5669470000000  0.4940920000000 1.0
C      1  0.5391930000000  0.5116930000000  0.5332010000000 1.0
C      1  0.5428280000000  0.5606720000000  0.4820630000000 1.0
C      1  0.4834730000000  0.5791170000000  0.4830060000000 1.0
C      1  0.4823830000000  0.4538460000000  0.4806430000000 1.0
C      1  0.4688640000000  0.4447250000000  0.5239330000000 1.0
C      1  0.5329650000000  0.4567700000000  0.4372220000000 1.0
C      1  0.5620770000000  0.5508170000000  0.5416180000000 1.0
C      1  0.4330060000000  0.5107770000000  0.4318550000000 1.0
C      1  0.5125010000000  0.3998020000000  0.4891990000000 1.0
C      1  0.4704210000000  0.5412810000000  0.4344170000000 1.0
C      1  0.5470440000000  0.5546040000000  0.4547230000000 1.0
C      1  0.4919270000000  0.5510650000000  0.5793480000000 1.0
C      1  0.5262130000000  0.5456200000000  0.5008600000000 1.0
C      1  0.5053240000000  0.4596030000000  0.4959630000000 1.0
C      1  0.4348330000000  0.4563870000000  0.5584890000000 1.0
C      1  0.5219430000000  0.4072870000000  0.5137950000000 1.0
C      1  0.4140880000000  0.5573460000000  0.4798760000000 1.0
C      1  0.4771120000000  0.4102220000000  0.4520420000000 1.0
C      1  0.4840860000000  0.4912660000000  0.5750800000000 1.0
C      1  0.4525240000000  0.4074470000000  0.5019200000000 1.0
C      1  0.5837900000000  0.5254690000000  0.4463000000000 1.0
C      1  0.5476240000000  0.5291760000000  0.4127910000000 1.0
C      1  0.5373060000000  0.4425300000000  0.5520160000000 1.0
C      1  0.4423740000000  0.6324270000000  0.5689450000000 1.0
C      1  0.4572330000000  0.4310370000000  0.4478920000000 1.0
C      1  0.4132230000000  0.5082400000000  0.4778910000000 1.0
C      1  0.4961360000000  0.5467780000000  0.4461290000000 1.0
C      1  0.4591910000000  0.4454590000000  0.5504990000000 1.0
C      1  0.4670750000000  0.3871700000000  0.4915700000000 1.0
C      1  0.5382830000000  0.5332770000000  0.5763630000000 1.0
C      1  0.4698250000000  0.4688080000000  0.4123890000000 1.0
C      1  0.4259820000000  0.4803950000000  0.5665220000000 1.0
C      1  0.4199140000000  0.4947320000000  0.4521750000000 1.0
C      1  0.4456510000000  0.5011320000000  0.5127280000000 1.0
C      1  0.5815710000000  0.4619650000000  0.5634390000000 1.0
C      1  0.6350230000000  0.4600160000000  0.4731850000000 1.0
C      1  0.4587780000000  0.4369780000000  0.4957160000000 1.0
C      1  0.5141130000000  0.4861740000000  0.4911900000000 1.0
C      1  0.4986130000000  0.4474110000000  0.5210850000000 1.0
C      1  0.5554460000000  0.4938000000000  0.5187380000000 1.0
C      1  0.4968160000000  0.4654750000000  0.5742100000000 1.0
END
