TITL C-627113-6568-1073 3.14517641758764e-07 125000 -169.307810707175 0 0 30 (C1) n - 1
REM
REM in /home/nfs/bkarasulu/CARBON/AIRSS/Generating-Clusters/LCBOP/Only-C1/SD-CG/FIRE-CG
REM
REM
REM
REM
REM
REM ./C.cell (11c1c37f851c82e70ff6c80c92926a4b)
REM AIRSS Version 0.9.1 bugfix July 2018 build 013d7b7c2542+ Fri, 06 Jul 2018 19:26:36 +0100
REM compiler GCC version 9.2.1 20190827 (Red Hat 9.2.1-1)
REM options -cpp -mtune=generic -march=x86-64 -g -O0 -fpre-include=/usr/include/finclude/math-vector-fortran.h
REM seed -1761984531 2071796645 -2106781674 389907846 399687390 -1743997136 -1384494589 -683324403 -1861717125 53930647 1644984886 -1978001193 -742820799 -1010825038 1810852930 137782329 761728425 -1533407954 -1899469869 224932443 -1984668236 -1836478981 310745146 428867004 138918330 1512054231 1403733561 2035183455 1221905626 109270304 -511737097 13588711 1452474621
REM
CELL 1.54180   50.00000   50.00000   50.00000   90.00000   90.00000   90.00000
LATT -1
SFAC C  
C      1  0.4816970000000  0.4927830000000  0.4052580000000 1.0
C      1  0.5150460000000  0.4483770000000  0.5380500000000 1.0
C      1  0.5072170000000  0.4390620000000  0.5125930000000 1.0
C      1  0.4590290000000  0.5637370000000  0.4601160000000 1.0
C      1  0.4629990000000  0.5424360000000  0.4766350000000 1.0
C      1  0.5096050000000  0.4968160000000  0.5492010000000 1.0
C      1  0.5509330000000  0.5338170000000  0.5082590000000 1.0
C      1  0.5268910000000  0.4788460000000  0.4626760000000 1.0
C      1  0.5259220000000  0.5430800000000  0.4980600000000 1.0
C      1  0.5011510000000  0.4695510000000  0.5515450000000 1.0
C      1  0.5004690000000  0.5444970000000  0.5402940000000 1.0
C      1  0.4819080000000  0.4752070000000  0.4531790000000 1.0
C      1  0.5365940000000  0.4367380000000  0.5504360000000 1.0
C      1  0.5201770000000  0.4965630000000  0.4848950000000 1.0
C      1  0.4799290000000  0.4631660000000  0.5677350000000 1.0
C      1  0.5538140000000  0.5164370000000  0.5288250000000 1.0
C      1  0.5369450000000  0.5026930000000  0.5446340000000 1.0
C      1  0.5221670000000  0.4889510000000  0.4356920000000 1.0
C      1  0.4908350000000  0.5186090000000  0.5469410000000 1.0
C      1  0.4470370000000  0.5376650000000  0.4994300000000 1.0
C      1  0.4632950000000  0.5152940000000  0.5418360000000 1.0
C      1  0.5126440000000  0.5252090000000  0.4801910000000 1.0
C      1  0.4939920000000  0.4864450000000  0.4285200000000 1.0
C      1  0.4758820000000  0.4945150000000  0.4745800000000 1.0
C      1  0.4835130000000  0.5233740000000  0.4722000000000 1.0
C      1  0.4467460000000  0.5252060000000  0.5231410000000 1.0
C      1  0.4943340000000  0.4870410000000  0.4969020000000 1.0
C      1  0.5043000000000  0.4400250000000  0.4859560000000 1.0
C      1  0.5046710000000  0.4579510000000  0.4643500000000 1.0
C      1  0.5102590000000  0.5559090000000  0.5178720000000 1.0
END
