TITL C-627107-135-1970 0.0052333141258744 125000 -531.743159583008 0 0 89 (C1) n - 1
REM
REM in /home/nfs/bkarasulu/CARBON/AIRSS/Generating-Clusters/LCBOP/Only-C1/SD-CG/FIRE-CG
REM
REM
REM
REM
REM
REM ./C.cell (11c1c37f851c82e70ff6c80c92926a4b)
REM AIRSS Version 0.9.1 bugfix July 2018 build 013d7b7c2542+ Fri, 06 Jul 2018 19:26:36 +0100
REM compiler GCC version 9.2.1 20190827 (Red Hat 9.2.1-1)
REM options -cpp -mtune=generic -march=x86-64 -g -O0 -fpre-include=/usr/include/finclude/math-vector-fortran.h
REM seed 401204141 -1814445174 491638526 -1492903078 -364885189 1777627424 -1995122480 -1283013821 1786992493 -2042257663 -288217492 1540491185 -1150514108 847418758 -1343390625 955869332 -1412236525 -2127404423 -978116825 1803549916 -179263952 1423753230 -1693113982 -751300379 -1630026614 1931937086 1929404537 -1741178197 -1726165381 -1529675221 656307103 625467899 -1325833985
REM
CELL 1.54180   50.00000   50.00000   50.00000   90.00000   90.00000   90.00000
LATT -1
SFAC C  
C      1  0.5110110000000  0.4805640000000  0.6206380000000 1.0
C      1  0.4443450000000  0.5239400000000  0.4365100000000 1.0
C      1  0.4556450000000  0.4343500000000  0.3721250000000 1.0
C      1  0.5418780000000  0.4396250000000  0.5100380000000 1.0
C      1  0.5851240000000  0.4577580000000  0.4974190000000 1.0
C      1  0.5081320000000  0.4220690000000  0.4567020000000 1.0
C      1  0.4790930000000  0.4199830000000  0.4945490000000 1.0
C      1  0.5615230000000  0.5687350000000  0.4805820000000 1.0
C      1  0.4719660000000  0.4275090000000  0.4216030000000 1.0
C      1  0.5097660000000  0.4943240000000  0.5736040000000 1.0
C      1  0.4133440000000  0.5193830000000  0.4933800000000 1.0
C      1  0.5058560000000  0.4146590000000  0.4848040000000 1.0
C      1  0.5911210000000  0.4660800000000  0.5541000000000 1.0
C      1  0.5081580000000  0.5882780000000  0.5137790000000 1.0
C      1  0.4638980000000  0.5580830000000  0.4887670000000 1.0
C      1  0.4794980000000  0.5885960000000  0.5231770000000 1.0
C      1  0.4172210000000  0.5498460000000  0.4974250000000 1.0
C      1  0.5292740000000  0.4683840000000  0.4768990000000 1.0
C      1  0.5649250000000  0.5163840000000  0.4788550000000 1.0
C      1  0.4189950000000  0.4687780000000  0.4894350000000 1.0
C      1  0.4794570000000  0.4814340000000  0.5074050000000 1.0
C      1  0.4824730000000  0.5401570000000  0.5577240000000 1.0
C      1  0.5313260000000  0.4652490000000  0.5045520000000 1.0
C      1  0.5169900000000  0.5910950000000  0.4864000000000 1.0
C      1  0.5646180000000  0.5241040000000  0.4245300000000 1.0
C      1  0.5187650000000  0.5445860000000  0.5281820000000 1.0
C      1  0.4520840000000  0.5035140000000  0.5372710000000 1.0
C      1  0.5312070000000  0.4949990000000  0.5266920000000 1.0
C      1  0.5756590000000  0.4942890000000  0.4626590000000 1.0
C      1  0.5090770000000  0.5594200000000  0.4315980000000 1.0
C      1  0.5272530000000  0.5723230000000  0.5289050000000 1.0
C      1  0.5365460000000  0.5794210000000  0.4691420000000 1.0
C      1  0.6079550000000  0.4701350000000  0.5092580000000 1.0
C      1  0.5209630000000  0.4337290000000  0.5523880000000 1.0
C      1  0.4555950000000  0.4554250000000  0.5457240000000 1.0
C      1  0.4392290000000  0.5578980000000  0.5783210000000 1.0
C      1  0.5486140000000  0.4534740000000  0.4617960000000 1.0
C      1  0.4918470000000  0.5405450000000  0.4435060000000 1.0
C      1  0.4759560000000  0.4456030000000  0.5638090000000 1.0
C      1  0.4366820000000  0.4723400000000  0.4453150000000 1.0
C      1  0.5674180000000  0.4529690000000  0.5458560000000 1.0
C      1  0.5138450000000  0.5117950000000  0.4830730000000 1.0
C      1  0.5685390000000  0.4441570000000  0.5178320000000 1.0
C      1  0.4754060000000  0.4210800000000  0.5226770000000 1.0
C      1  0.5340910000000  0.4322440000000  0.4488890000000 1.0
C      1  0.5561090000000  0.5456690000000  0.4407180000000 1.0
C      1  0.4954020000000  0.5192490000000  0.5720460000000 1.0
C      1  0.4619370000000  0.4314940000000  0.4719210000000 1.0
C      1  0.4696520000000  0.4768260000000  0.4802180000000 1.0
C      1  0.4320490000000  0.4978740000000  0.4366270000000 1.0
C      1  0.4918120000000  0.5415820000000  0.5307070000000 1.0
C      1  0.4375890000000  0.5569570000000  0.4767700000000 1.0
C      1  0.4610650000000  0.5592680000000  0.5603710000000 1.0
C      1  0.4057810000000  0.5631300000000  0.5446140000000 1.0
C      1  0.4870260000000  0.4825240000000  0.4575530000000 1.0
C      1  0.5013770000000  0.4988000000000  0.5091350000000 1.0
C      1  0.5017740000000  0.4772410000000  0.5952150000000 1.0
C      1  0.5536510000000  0.5693710000000  0.5407780000000 1.0
C      1  0.4639040000000  0.4304440000000  0.3965400000000 1.0
C      1  0.4347290000000  0.5464920000000  0.4505720000000 1.0
C      1  0.4411830000000  0.5125330000000  0.4928700000000 1.0
C      1  0.4554090000000  0.5746600000000  0.5350230000000 1.0
C      1  0.4811260000000  0.4950800000000  0.4330730000000 1.0
C      1  0.5794970000000  0.5831420000000  0.4950630000000 1.0
C      1  0.5344160000000  0.5654070000000  0.4428530000000 1.0
C      1  0.4026840000000  0.4919290000000  0.4923540000000 1.0
C      1  0.4545670000000  0.5207420000000  0.5154510000000 1.0
C      1  0.5418140000000  0.5119290000000  0.4928250000000 1.0
C      1  0.5739270000000  0.4660800000000  0.4711980000000 1.0
C      1  0.5397180000000  0.4556480000000  0.5554010000000 1.0
C      1  0.4492800000000  0.4320880000000  0.5301300000000 1.0
C      1  0.4804040000000  0.4273540000000  0.4480740000000 1.0
C      1  0.4934300000000  0.4289740000000  0.5464060000000 1.0
C      1  0.5007380000000  0.5336620000000  0.4696770000000 1.0
C      1  0.4133100000000  0.5597830000000  0.5704680000000 1.0
C      1  0.5130240000000  0.4875610000000  0.4660780000000 1.0
C      1  0.5606050000000  0.5423160000000  0.5439440000000 1.0
C      1  0.5275830000000  0.4821790000000  0.5536850000000 1.0
C      1  0.4236740000000  0.5642880000000  0.5227580000000 1.0
C      1  0.6100810000000  0.4740700000000  0.5361800000000 1.0
C      1  0.4839840000000  0.4567960000000  0.5878940000000 1.0
C      1  0.4727410000000  0.5223190000000  0.4324370000000 1.0
C      1  0.5757420000000  0.5013110000000  0.4348330000000 1.0
C      1  0.5669670000000  0.5431770000000  0.4683420000000 1.0
C      1  0.5282340000000  0.4168330000000  0.5015520000000 1.0
C      1  0.4725740000000  0.5413510000000  0.5105880000000 1.0
C      1  0.4626290000000  0.4783030000000  0.5311600000000 1.0
C      1  0.4453480000000  0.4594460000000  0.4729120000000 1.0
C      1  0.5390870000000  0.5248040000000  0.5350940000000 1.0
END
