TITL C-627107-135-77 0.0736523425203707 125000 -1161.32677215174 0 0 190 (C1) n - 1
REM
REM in /home/nfs/bkarasulu/CARBON/AIRSS/Generating-Clusters/LCBOP/Only-C1/SD-CG/FIRE-CG
REM
REM
REM
REM
REM
REM ./C.cell (11c1c37f851c82e70ff6c80c92926a4b)
REM AIRSS Version 0.9.1 bugfix July 2018 build 013d7b7c2542+ Fri, 06 Jul 2018 19:26:36 +0100
REM compiler GCC version 9.2.1 20190827 (Red Hat 9.2.1-1)
REM options -cpp -mtune=generic -march=x86-64 -g -O0 -fpre-include=/usr/include/finclude/math-vector-fortran.h
REM seed -391923171 18250037 -416702425 1847628866 -1602356988 1918214091 21210815 -1478030730 -60677360 -1768572533 1977126501 645868588 -674956393 1722215722 -840766672 -376803105 972120220 2070669353 556288850 -1719873871 -558371018 -1803619306 -233588738 779592313 589337964 1360550485 -1127935310 -420998265 1793417162 -16288245 7199698 1215129697 630035396
REM
CELL 1.54180   50.00000   50.00000   50.00000   90.00000   90.00000   90.00000
LATT -1
SFAC C  
C      1  0.4736360000000  0.5946590000000  0.5272170000000 1.0
C      1  0.5949890000000  0.4278210000000  0.4621140000000 1.0
C      1  0.5553280000000  0.4831380000000  0.4566810000000 1.0
C      1  0.5225220000000  0.4862360000000  0.5942190000000 1.0
C      1  0.4725520000000  0.4703050000000  0.4280460000000 1.0
C      1  0.4983080000000  0.6144350000000  0.4011180000000 1.0
C      1  0.4614990000000  0.4794300000000  0.5893080000000 1.0
C      1  0.4195610000000  0.4211440000000  0.4478750000000 1.0
C      1  0.4977950000000  0.6234240000000  0.4298760000000 1.0
C      1  0.5271890000000  0.5446110000000  0.5084200000000 1.0
C      1  0.4268680000000  0.4627310000000  0.4216170000000 1.0
C      1  0.5597990000000  0.4177850000000  0.4284170000000 1.0
C      1  0.5401190000000  0.4867010000000  0.4848270000000 1.0
C      1  0.4795200000000  0.5469890000000  0.5791700000000 1.0
C      1  0.4712220000000  0.6045000000000  0.3934900000000 1.0
C      1  0.5822230000000  0.4828330000000  0.4186900000000 1.0
C      1  0.5442650000000  0.6345620000000  0.4751400000000 1.0
C      1  0.4026420000000  0.4774060000000  0.5772640000000 1.0
C      1  0.5001450000000  0.5060100000000  0.5131780000000 1.0
C      1  0.5133710000000  0.5101130000000  0.4516930000000 1.0
C      1  0.4328120000000  0.5536550000000  0.4951410000000 1.0
C      1  0.4580470000000  0.6112410000000  0.4624180000000 1.0
C      1  0.4938180000000  0.5854440000000  0.6044320000000 1.0
C      1  0.6198280000000  0.5703630000000  0.5461850000000 1.0
C      1  0.4327150000000  0.4614010000000  0.4772230000000 1.0
C      1  0.5379080000000  0.5150900000000  0.3645660000000 1.0
C      1  0.4501660000000  0.5819260000000  0.5307940000000 1.0
C      1  0.4941030000000  0.4654380000000  0.4477620000000 1.0
C      1  0.3763510000000  0.4418780000000  0.5233010000000 1.0
C      1  0.4070580000000  0.4013060000000  0.4630910000000 1.0
C      1  0.4369510000000  0.4483520000000  0.5620750000000 1.0
C      1  0.4152480000000  0.5404730000000  0.5893260000000 1.0
C      1  0.5188780000000  0.4675680000000  0.4292450000000 1.0
C      1  0.5467300000000  0.5016100000000  0.5961500000000 1.0
C      1  0.5093680000000  0.3710750000000  0.5158160000000 1.0
C      1  0.6380260000000  0.4266080000000  0.5638510000000 1.0
C      1  0.3690970000000  0.4486090000000  0.4985900000000 1.0
C      1  0.5461170000000  0.4006970000000  0.5045810000000 1.0
C      1  0.3713270000000  0.4547400000000  0.4727600000000 1.0
C      1  0.5761820000000  0.4357760000000  0.4424450000000 1.0
C      1  0.6024500000000  0.5523300000000  0.4173240000000 1.0
C      1  0.4440120000000  0.5557190000000  0.5218470000000 1.0
C      1  0.5669880000000  0.4924100000000  0.3966760000000 1.0
C      1  0.6130990000000  0.4540290000000  0.5004210000000 1.0
C      1  0.5160570000000  0.4539630000000  0.3821890000000 1.0
C      1  0.4551590000000  0.5102070000000  0.6269470000000 1.0
C      1  0.5087800000000  0.6543910000000  0.5416770000000 1.0
C      1  0.4075160000000  0.3810480000000  0.4803970000000 1.0
C      1  0.3969360000000  0.5127620000000  0.5240350000000 1.0
C      1  0.5323690000000  0.4915800000000  0.4387140000000 1.0
C      1  0.5043410000000  0.5625290000000  0.5022720000000 1.0
C      1  0.5051380000000  0.4561700000000  0.5423200000000 1.0
C      1  0.5140920000000  0.5580050000000  0.4368980000000 1.0
C      1  0.4808380000000  0.4854500000000  0.5695230000000 1.0
C      1  0.5498870000000  0.4799670000000  0.5521100000000 1.0
C      1  0.5607990000000  0.4910580000000  0.5034270000000 1.0
C      1  0.4114620000000  0.5871470000000  0.6401190000000 1.0
C      1  0.4510300000000  0.4529370000000  0.5869440000000 1.0
C      1  0.4896380000000  0.6526170000000  0.5599250000000 1.0
C      1  0.4193270000000  0.2956030000000  0.5245170000000 1.0
C      1  0.5221520000000  0.5357040000000  0.6252050000000 1.0
C      1  0.3944440000000  0.5522780000000  0.5769540000000 1.0
C      1  0.4853880000000  0.4299240000000  0.5109100000000 1.0
C      1  0.5203290000000  0.6088940000000  0.4414750000000 1.0
C      1  0.4890770000000  0.4612390000000  0.3807880000000 1.0
C      1  0.5138240000000  0.5221950000000  0.5558820000000 1.0
C      1  0.4467770000000  0.4854510000000  0.4342680000000 1.0
C      1  0.4697520000000  0.6459160000000  0.5761160000000 1.0
C      1  0.5886810000000  0.5064080000000  0.5682310000000 1.0
C      1  0.5574960000000  0.4753470000000  0.5253200000000 1.0
C      1  0.4166520000000  0.4971830000000  0.5367050000000 1.0
C      1  0.6250100000000  0.4281540000000  0.5413300000000 1.0
C      1  0.6084890000000  0.5455990000000  0.5448550000000 1.0
C      1  0.4733190000000  0.5754850000000  0.3872180000000 1.0
C      1  0.4657720000000  0.3841370000000  0.5342720000000 1.0
C      1  0.5029400000000  0.4306400000000  0.5319000000000 1.0
C      1  0.4500610000000  0.4074480000000  0.5279890000000 1.0
C      1  0.4310250000000  0.3476110000000  0.5161680000000 1.0
C      1  0.5189150000000  0.5228750000000  0.5269420000000 1.0
C      1  0.4703960000000  0.6217700000000  0.4388220000000 1.0
C      1  0.4304880000000  0.4414970000000  0.3747480000000 1.0
C      1  0.4724290000000  0.5133420000000  0.5193190000000 1.0
C      1  0.6010060000000  0.5390180000000  0.4970550000000 1.0
C      1  0.3848060000000  0.4551460000000  0.4497010000000 1.0
C      1  0.5289210000000  0.4605080000000  0.5565810000000 1.0
C      1  0.4590630000000  0.5343560000000  0.5354360000000 1.0
C      1  0.5679980000000  0.6151200000000  0.4368830000000 1.0
C      1  0.6078610000000  0.4821410000000  0.5053130000000 1.0
C      1  0.4834690000000  0.5588240000000  0.6054690000000 1.0
C      1  0.5375140000000  0.6449300000000  0.4985730000000 1.0
C      1  0.4566950000000  0.5136000000000  0.4233230000000 1.0
C      1  0.5281080000000  0.5188390000000  0.3407120000000 1.0
C      1  0.4433920000000  0.5063350000000  0.4817260000000 1.0
C      1  0.5316710000000  0.4402390000000  0.5777030000000 1.0
C      1  0.3814640000000  0.5499400000000  0.5535490000000 1.0
C      1  0.5319810000000  0.4511690000000  0.3602840000000 1.0
C      1  0.5388240000000  0.5418790000000  0.4807330000000 1.0
C      1  0.3825380000000  0.5341110000000  0.5318570000000 1.0
C      1  0.4801310000000  0.4683220000000  0.5471160000000 1.0
C      1  0.4686580000000  0.5440000000000  0.4686760000000 1.0
C      1  0.5861110000000  0.4932580000000  0.4905130000000 1.0
C      1  0.4529130000000  0.4972690000000  0.5067150000000 1.0
C      1  0.5248590000000  0.4488060000000  0.4087050000000 1.0
C      1  0.4516120000000  0.4572860000000  0.5361320000000 1.0
C      1  0.5129540000000  0.5910180000000  0.5857390000000 1.0
C      1  0.5434550000000  0.5234530000000  0.6137970000000 1.0
C      1  0.5249300000000  0.3836040000000  0.4958890000000 1.0
C      1  0.4162280000000  0.3627420000000  0.4976500000000 1.0
C      1  0.5938530000000  0.5342230000000  0.5663980000000 1.0
C      1  0.5053940000000  0.4991360000000  0.5737950000000 1.0
C      1  0.4753750000000  0.5242780000000  0.6375990000000 1.0
C      1  0.5468740000000  0.5118030000000  0.3907800000000 1.0
C      1  0.4271220000000  0.5762290000000  0.4786130000000 1.0
C      1  0.4599210000000  0.4142470000000  0.6232130000000 1.0
C      1  0.4483430000000  0.5017690000000  0.6011400000000 1.0
C      1  0.5926120000000  0.5821800000000  0.4786830000000 1.0
C      1  0.4439390000000  0.4456240000000  0.4008580000000 1.0
C      1  0.4169770000000  0.4991020000000  0.5651320000000 1.0
C      1  0.5681450000000  0.3969410000000  0.5226190000000 1.0
C      1  0.6099700000000  0.4303640000000  0.5178460000000 1.0
C      1  0.5857730000000  0.5550040000000  0.4791690000000 1.0
C      1  0.5112470000000  0.4898960000000  0.4916000000000 1.0
C      1  0.4950420000000  0.3844770000000  0.5366930000000 1.0
C      1  0.5052360000000  0.5474320000000  0.5655490000000 1.0
C      1  0.5077380000000  0.5378030000000  0.4162410000000 1.0
C      1  0.5824040000000  0.4987880000000  0.4632190000000 1.0
C      1  0.4700300000000  0.4609250000000  0.4008630000000 1.0
C      1  0.5627930000000  0.4961620000000  0.5727780000000 1.0
C      1  0.4086050000000  0.4462670000000  0.4378170000000 1.0
C      1  0.3855420000000  0.4798120000000  0.5982690000000 1.0
C      1  0.6146320000000  0.4997900000000  0.5266120000000 1.0
C      1  0.5194770000000  0.5718940000000  0.5674150000000 1.0
C      1  0.6107930000000  0.5286220000000  0.5215970000000 1.0
C      1  0.4480830000000  0.4185260000000  0.4432370000000 1.0
C      1  0.5364290000000  0.5284060000000  0.4115220000000 1.0
C      1  0.4482640000000  0.4398560000000  0.4864060000000 1.0
C      1  0.5605400000000  0.5384640000000  0.4356550000000 1.0
C      1  0.5247810000000  0.4572180000000  0.6002230000000 1.0
C      1  0.5164240000000  0.5900560000000  0.3989180000000 1.0
C      1  0.6031800000000  0.6052600000000  0.4846870000000 1.0
C      1  0.4520020000000  0.3599230000000  0.5302600000000 1.0
C      1  0.5339800000000  0.4129550000000  0.5633370000000 1.0
C      1  0.4528410000000  0.4203080000000  0.4153350000000 1.0
C      1  0.4621270000000  0.5607540000000  0.4102180000000 1.0
C      1  0.4646550000000  0.4286890000000  0.4647510000000 1.0
C      1  0.5378810000000  0.4246290000000  0.4145330000000 1.0
C      1  0.5131140000000  0.3972140000000  0.4737240000000 1.0
C      1  0.4476060000000  0.5800110000000  0.4287220000000 1.0
C      1  0.4449530000000  0.5338140000000  0.4788050000000 1.0
C      1  0.4577750000000  0.5340660000000  0.5647210000000 1.0
C      1  0.5015260000000  0.5721990000000  0.3818770000000 1.0
C      1  0.4942520000000  0.5411800000000  0.6254860000000 1.0
C      1  0.4973440000000  0.4900920000000  0.4664220000000 1.0
C      1  0.5621960000000  0.5459470000000  0.4649970000000 1.0
C      1  0.5600170000000  0.4091430000000  0.5483870000000 1.0
C      1  0.6130770000000  0.4469470000000  0.4726940000000 1.0
C      1  0.4227210000000  0.6034950000000  0.6232180000000 1.0
C      1  0.4921640000000  0.4393410000000  0.4627440000000 1.0
C      1  0.4512100000000  0.6345890000000  0.5912930000000 1.0
C      1  0.4382140000000  0.4857640000000  0.4635280000000 1.0
C      1  0.4758980000000  0.5348550000000  0.4155250000000 1.0
C      1  0.5097880000000  0.4074000000000  0.5470550000000 1.0
C      1  0.5443040000000  0.6200030000000  0.4513930000000 1.0
C      1  0.4249730000000  0.3207250000000  0.5204910000000 1.0
C      1  0.5927420000000  0.4077770000000  0.5088970000000 1.0
C      1  0.6078160000000  0.4916430000000  0.5530910000000 1.0
C      1  0.4552740000000  0.6073710000000  0.4172580000000 1.0
C      1  0.4355100000000  0.6198710000000  0.6067610000000 1.0
C      1  0.5153960000000  0.5397620000000  0.4613210000000 1.0
C      1  0.4561550000000  0.4341460000000  0.5151180000000 1.0
C      1  0.5865710000000  0.6010300000000  0.4238510000000 1.0
C      1  0.4085880000000  0.4526590000000  0.5638120000000 1.0
C      1  0.4958390000000  0.5855430000000  0.5152400000000 1.0
C      1  0.5681010000000  0.4358190000000  0.5423220000000 1.0
C      1  0.5872930000000  0.5310540000000  0.4273040000000 1.0
C      1  0.5556860000000  0.4475140000000  0.5185280000000 1.0
C      1  0.5148170000000  0.4261870000000  0.4747600000000 1.0
C      1  0.4547620000000  0.4331790000000  0.6060680000000 1.0
C      1  0.5999740000000  0.5790540000000  0.4166150000000 1.0
C      1  0.5216270000000  0.5834680000000  0.4273290000000 1.0
C      1  0.5699260000000  0.4630190000000  0.4373410000000 1.0
C      1  0.5252490000000  0.6516700000000  0.5210860000000 1.0
C      1  0.5920360000000  0.4057530000000  0.4799760000000 1.0
C      1  0.5926640000000  0.5044950000000  0.4360980000000 1.0
C      1  0.4421720000000  0.5872140000000  0.4573070000000 1.0
C      1  0.4349160000000  0.5196010000000  0.5804020000000 1.0
C      1  0.4934780000000  0.5513910000000  0.4779760000000 1.0
C      1  0.4374550000000  0.4819230000000  0.5244940000000 1.0
C      1  0.3902580000000  0.4414120000000  0.5460070000000 1.0
C      1  0.5407660000000  0.4298290000000  0.4987310000000 1.0
END
