TITL C-627112-676-1285 -1.12478172451584e-09 125000 -502.416731390434 0 0 82 (C1) n - 1
REM
REM in /home/nfs/bkarasulu/CARBON/AIRSS/Generating-Clusters/LCBOP/Only-C1/SD-CG/FIRE-CG
REM
REM
REM
REM
REM
REM ./C.cell (11c1c37f851c82e70ff6c80c92926a4b)
REM AIRSS Version 0.9.1 bugfix July 2018 build 013d7b7c2542+ Fri, 06 Jul 2018 19:26:36 +0100
REM compiler GCC version 9.2.1 20190827 (Red Hat 9.2.1-1)
REM options -cpp -mtune=generic -march=x86-64 -g -O0 -fpre-include=/usr/include/finclude/math-vector-fortran.h
REM seed 1398588957 539414845 1798670543 1704924034 1414945647 1190540569 -1616845065 -798721737 1997857612 -1447075954 -1595817235 784913246 1696659672 -473268492 849779290 -167662004 -1981180679 1774743964 -1776342636 -268888386 -2025515129 682276258 203289654 -313883941 1664617997 -139099857 -1247807838 -585948417 1943278701 2084774657 415289058 -1984362940 -1326394549
REM
CELL 1.54180   50.00000   50.00000   50.00000   90.00000   90.00000   90.00000
LATT -1
SFAC C  
C      1  0.5655250000000  0.4696580000000  0.4469480000000 1.0
C      1  0.5342500000000  0.4382610000000  0.5343750000000 1.0
C      1  0.5759140000000  0.5376410000000  0.5855960000000 1.0
C      1  0.4557940000000  0.5149430000000  0.5065040000000 1.0
C      1  0.4806420000000  0.5800770000000  0.5265160000000 1.0
C      1  0.4563450000000  0.4836670000000  0.4075810000000 1.0
C      1  0.4263800000000  0.5043140000000  0.4699560000000 1.0
C      1  0.5283870000000  0.4698840000000  0.4089010000000 1.0
C      1  0.5833380000000  0.4623770000000  0.5427110000000 1.0
C      1  0.5153740000000  0.5124400000000  0.4412860000000 1.0
C      1  0.5144030000000  0.4658820000000  0.5699430000000 1.0
C      1  0.4097710000000  0.4693610000000  0.4384010000000 1.0
C      1  0.4686510000000  0.4135850000000  0.4331700000000 1.0
C      1  0.4976760000000  0.5392560000000  0.5048630000000 1.0
C      1  0.4224850000000  0.4518640000000  0.4216820000000 1.0
C      1  0.4884530000000  0.4545660000000  0.5705670000000 1.0
C      1  0.4958590000000  0.5813400000000  0.4792270000000 1.0
C      1  0.4516990000000  0.4723250000000  0.5487250000000 1.0
C      1  0.4306530000000  0.5041770000000  0.5165910000000 1.0
C      1  0.5485100000000  0.4675440000000  0.4264180000000 1.0
C      1  0.4693970000000  0.4409850000000  0.4274050000000 1.0
C      1  0.5896280000000  0.5047130000000  0.4710650000000 1.0
C      1  0.4811240000000  0.4923870000000  0.3961320000000 1.0
C      1  0.4860240000000  0.4564680000000  0.4438740000000 1.0
C      1  0.5965760000000  0.5250800000000  0.4867450000000 1.0
C      1  0.4926410000000  0.5038470000000  0.4538140000000 1.0
C      1  0.5479250000000  0.5361150000000  0.5862980000000 1.0
C      1  0.5104270000000  0.5910430000000  0.5635860000000 1.0
C      1  0.4911320000000  0.5672560000000  0.5030080000000 1.0
C      1  0.4315750000000  0.4892960000000  0.5400320000000 1.0
C      1  0.5000770000000  0.5657270000000  0.4054680000000 1.0
C      1  0.4220070000000  0.4945680000000  0.4438100000000 1.0
C      1  0.4658840000000  0.4554040000000  0.5303710000000 1.0
C      1  0.4795340000000  0.5231110000000  0.5200890000000 1.0
C      1  0.5186270000000  0.4753050000000  0.5011180000000 1.0
C      1  0.4507130000000  0.5148630000000  0.5980090000000 1.0
C      1  0.5606520000000  0.4693330000000  0.5576630000000 1.0
C      1  0.5218000000000  0.5411360000000  0.5770490000000 1.0
C      1  0.4761770000000  0.4508640000000  0.5035020000000 1.0
C      1  0.5015600000000  0.5857680000000  0.4535650000000 1.0
C      1  0.4922000000000  0.5443850000000  0.3915300000000 1.0
C      1  0.5377620000000  0.4510160000000  0.5594910000000 1.0
C      1  0.4975530000000  0.5975360000000  0.5408890000000 1.0
C      1  0.5201350000000  0.4943710000000  0.5651350000000 1.0
C      1  0.4496480000000  0.4558680000000  0.4135190000000 1.0
C      1  0.5212220000000  0.5269350000000  0.4947930000000 1.0
C      1  0.4821590000000  0.4216450000000  0.5031460000000 1.0
C      1  0.5066690000000  0.5196100000000  0.5645930000000 1.0
C      1  0.5036430000000  0.5803040000000  0.4275340000000 1.0
C      1  0.5811740000000  0.4779830000000  0.4687920000000 1.0
C      1  0.5383200000000  0.5408570000000  0.4785290000000 1.0
C      1  0.5143890000000  0.5681510000000  0.5767620000000 1.0
C      1  0.5874360000000  0.4616100000000  0.4909030000000 1.0
C      1  0.5479360000000  0.5044840000000  0.5269020000000 1.0
C      1  0.4515390000000  0.5374300000000  0.5834840000000 1.0
C      1  0.3855620000000  0.4949150000000  0.4971930000000 1.0
C      1  0.4523890000000  0.5149810000000  0.4776750000000 1.0
C      1  0.4609620000000  0.5673230000000  0.5428760000000 1.0
C      1  0.4732870000000  0.4001430000000  0.4558990000000 1.0
C      1  0.4840250000000  0.5192400000000  0.3880100000000 1.0
C      1  0.4792100000000  0.4045210000000  0.4815370000000 1.0
C      1  0.4713450000000  0.5219590000000  0.4584390000000 1.0
C      1  0.4649890000000  0.4716660000000  0.5745630000000 1.0
C      1  0.5906140000000  0.5338560000000  0.6083280000000 1.0
C      1  0.4930610000000  0.4695200000000  0.4895670000000 1.0
C      1  0.4899150000000  0.4768270000000  0.4624520000000 1.0
C      1  0.4830400000000  0.5256800000000  0.5487030000000 1.0
C      1  0.5885700000000  0.5430130000000  0.5611400000000 1.0
C      1  0.5314450000000  0.4521170000000  0.5113140000000 1.0
C      1  0.4639060000000  0.5445350000000  0.5594430000000 1.0
C      1  0.5989500000000  0.5380330000000  0.5098500000000 1.0
C      1  0.5471080000000  0.4945290000000  0.5530690000000 1.0
C      1  0.4393370000000  0.5018790000000  0.4219760000000 1.0
C      1  0.5049510000000  0.4771580000000  0.3981070000000 1.0
C      1  0.5961360000000  0.5436000000000  0.5356860000000 1.0
C      1  0.4668580000000  0.5443680000000  0.4435960000000 1.0
C      1  0.5294420000000  0.5017750000000  0.5056630000000 1.0
C      1  0.5909300000000  0.4585640000000  0.5172650000000 1.0
C      1  0.4816290000000  0.4366800000000  0.5485360000000 1.0
C      1  0.4120230000000  0.5005170000000  0.4947650000000 1.0
C      1  0.4872640000000  0.4148220000000  0.5308610000000 1.0
C      1  0.4576760000000  0.4891610000000  0.5949220000000 1.0
END
