TITL C-627111-6168-1957 0.0417249616933374 125000 -321.031092084698 0 0 53 (C1) n - 1
REM
REM in /home/nfs/bkarasulu/CARBON/AIRSS/Generating-Clusters/LCBOP/Only-C1/SD-CG/FIRE-CG
REM
REM
REM
REM
REM
REM ./C.cell (11c1c37f851c82e70ff6c80c92926a4b)
REM AIRSS Version 0.9.1 bugfix July 2018 build 013d7b7c2542+ Fri, 06 Jul 2018 19:26:36 +0100
REM compiler GCC version 9.2.1 20190827 (Red Hat 9.2.1-1)
REM options -cpp -mtune=generic -march=x86-64 -g -O0 -fpre-include=/usr/include/finclude/math-vector-fortran.h
REM seed -1502561905 -1806349412 -1031670053 -2066041113 2145088226 -979889135 1655823664 -1172718504 -1083311208 -427534909 1168890542 302629044 -662375044 -706468688 1682790264 573367711 1133060976 339824477 655550643 -42581209 1507149536 1011194427 1651639521 848453388 106904153 -256215675 1374465732 388277990 1363604328 1184744094 -871031066 833001334 -288923527
REM
CELL 1.54180   50.00000   50.00000   50.00000   90.00000   90.00000   90.00000
LATT -1
SFAC C  
C      1  0.5019430000000  0.5826730000000  0.5505160000000 1.0
C      1  0.5542420000000  0.5157700000000  0.5793530000000 1.0
C      1  0.4428010000000  0.4352840000000  0.4187350000000 1.0
C      1  0.5523470000000  0.4833990000000  0.4511430000000 1.0
C      1  0.6017050000000  0.5418590000000  0.5665160000000 1.0
C      1  0.4366980000000  0.4847860000000  0.5188410000000 1.0
C      1  0.4795560000000  0.4687640000000  0.5032200000000 1.0
C      1  0.4789410000000  0.5310210000000  0.4648040000000 1.0
C      1  0.5364060000000  0.5537980000000  0.4956920000000 1.0
C      1  0.5953040000000  0.5043700000000  0.4721280000000 1.0
C      1  0.5124250000000  0.4604060000000  0.4351520000000 1.0
C      1  0.4761700000000  0.5778120000000  0.5578020000000 1.0
C      1  0.5763090000000  0.4924250000000  0.4580000000000 1.0
C      1  0.5154930000000  0.5369750000000  0.5577050000000 1.0
C      1  0.4457570000000  0.4154190000000  0.4998530000000 1.0
C      1  0.5497230000000  0.5020490000000  0.6025830000000 1.0
C      1  0.4420430000000  0.5421810000000  0.5510950000000 1.0
C      1  0.6158760000000  0.5584250000000  0.5830080000000 1.0
C      1  0.5000620000000  0.4686340000000  0.4112800000000 1.0
C      1  0.4200970000000  0.5402220000000  0.5672180000000 1.0
C      1  0.4641110000000  0.4104570000000  0.4559520000000 1.0
C      1  0.4552580000000  0.4496590000000  0.3999350000000 1.0
C      1  0.5250910000000  0.5391110000000  0.4765820000000 1.0
C      1  0.4324470000000  0.5112100000000  0.5103930000000 1.0
C      1  0.6104220000000  0.5368510000000  0.5404190000000 1.0
C      1  0.5782000000000  0.5296060000000  0.5754090000000 1.0
C      1  0.4521300000000  0.4640370000000  0.5075120000000 1.0
C      1  0.4219730000000  0.4715490000000  0.4582840000000 1.0
C      1  0.4535570000000  0.5510610000000  0.5026170000000 1.0
C      1  0.5226040000000  0.4843030000000  0.5182690000000 1.0
C      1  0.4669440000000  0.5510990000000  0.5611530000000 1.0
C      1  0.5247760000000  0.4789510000000  0.4525620000000 1.0
C      1  0.4331090000000  0.4469500000000  0.4656200000000 1.0
C      1  0.4402410000000  0.4424790000000  0.4933490000000 1.0
C      1  0.5333430000000  0.4961680000000  0.5394340000000 1.0
C      1  0.5048860000000  0.5211190000000  0.4690660000000 1.0
C      1  0.5345730000000  0.5161830000000  0.5589370000000 1.0
C      1  0.4576710000000  0.3994610000000  0.4813180000000 1.0
C      1  0.6075620000000  0.5170090000000  0.4919510000000 1.0
C      1  0.4907630000000  0.4144090000000  0.4481980000000 1.0
C      1  0.4778440000000  0.4637480000000  0.3971930000000 1.0
C      1  0.4884820000000  0.5331090000000  0.5657780000000 1.0
C      1  0.4238580000000  0.4977070000000  0.4631030000000 1.0
C      1  0.4445540000000  0.4292910000000  0.4460410000000 1.0
C      1  0.5207070000000  0.5621350000000  0.5445010000000 1.0
C      1  0.4348220000000  0.5154590000000  0.4814020000000 1.0
C      1  0.5040260000000  0.4811120000000  0.4975300000000 1.0
C      1  0.6124770000000  0.5283340000000  0.5154120000000 1.0
C      1  0.4547820000000  0.5362790000000  0.4776690000000 1.0
C      1  0.5356000000000  0.5625230000000  0.5208600000000 1.0
C      1  0.5085020000000  0.4336450000000  0.4428690000000 1.0
C      1  0.5097800000000  0.4931270000000  0.4722290000000 1.0
C      1  0.4410050000000  0.5355860000000  0.5238050000000 1.0
END
