TITL C-627106-156-819 -118.257978839332 125000 -74.7231774146378 0 0 14 (C1) n - 1
REM
REM in /home/nfs/bkarasulu/CARBON/AIRSS/Generating-Clusters/LCBOP/Only-C1/SD-CG/FIRE-CG
REM
REM
REM
REM
REM
REM ./C.cell (11c1c37f851c82e70ff6c80c92926a4b)
REM AIRSS Version 0.9.1 bugfix July 2018 build 013d7b7c2542+ Fri, 06 Jul 2018 19:26:36 +0100
REM compiler GCC version 9.2.1 20190827 (Red Hat 9.2.1-1)
REM options -cpp -mtune=generic -march=x86-64 -g -O0 -fpre-include=/usr/include/finclude/math-vector-fortran.h
REM seed 378224638 189887127 782168627 1886437141 1403627738 1077801509 2014143574 -750828590 -1573200596 488504631 2099945660 -1927422329 1817314347 1770090122 1922792741 -1867309323 1528342483 396616369 908384110 -1869829764 360229850 1534781126 1864784890 1076442156 1927965490 210249885 1539303559 1804613479 1262635006 -298516909 -2015296249 139634042 61512311
REM
CELL 1.54180   50.00000   50.00000   50.00000   90.00000   90.00000   90.00000
LATT -1
SFAC C  
C      1  0.4892500000000  0.5651360000000  0.5316350000000 1.0
C      1  0.5131680000000  0.4109330000000  0.4772500000000 1.0
C      1  0.5283520000000  0.5181850000000  0.4551180000000 1.0
C      1  0.5095300000000  0.4829500000000  0.4824150000000 1.0
C      1  0.4995430000000  0.4301540000000  0.4911460000000 1.0
C      1  0.4622510000000  0.4163630000000  0.5277270000000 1.0
C      1  0.4809620000000  0.5831760000000  0.5491980000000 1.0
C      1  0.5058220000000  0.5290740000000  0.4965280000000 1.0
C      1  0.4802560000000  0.4229300000000  0.5100650000000 1.0
C      1  0.4975360000000  0.5470990000000  0.5140780000000 1.0
C      1  0.4728100000000  0.6009180000000  0.5664730000000 1.0
C      1  0.5412100000000  0.5257670000000  0.4337540000000 1.0
C      1  0.5145680000000  0.5100690000000  0.4780210000000 1.0
C      1  0.5047420000000  0.4572480000000  0.4865940000000 1.0
END
