TITL C-627106-156-1505 0.0060933790305826 125000 -278.816912079951 0 0 47 (C1) n - 1
REM
REM in /home/nfs/bkarasulu/CARBON/AIRSS/Generating-Clusters/LCBOP/Only-C1/SD-CG/FIRE-CG
REM
REM
REM
REM
REM
REM ./C.cell (11c1c37f851c82e70ff6c80c92926a4b)
REM AIRSS Version 0.9.1 bugfix July 2018 build 013d7b7c2542+ Fri, 06 Jul 2018 19:26:36 +0100
REM compiler GCC version 9.2.1 20190827 (Red Hat 9.2.1-1)
REM options -cpp -mtune=generic -march=x86-64 -g -O0 -fpre-include=/usr/include/finclude/math-vector-fortran.h
REM seed 513932054 -1331756823 -932320343 26852221 1035667052 -486556752 -183981690 1178988473 623144171 -663848390 603187798 -118555202 1411123773 -433016485 -1432930411 -313613811 1244054819 -413004470 1019041297 -465454774 91054685 98410449 -1698812336 573688582 1494220104 688280824 -1463563800 2136852066 -1811952229 636140347 1828633652 -857402241 -766081974
REM
CELL 1.54180   50.00000   50.00000   50.00000   90.00000   90.00000   90.00000
LATT -1
SFAC C  
C      1  0.6194580000000  0.4399270000000  0.4942160000000 1.0
C      1  0.5780000000000  0.4738410000000  0.4852330000000 1.0
C      1  0.5103230000000  0.5243220000000  0.4987040000000 1.0
C      1  0.5415860000000  0.4389810000000  0.5377960000000 1.0
C      1  0.4174130000000  0.5340330000000  0.5243340000000 1.0
C      1  0.6387340000000  0.4226530000000  0.4999290000000 1.0
C      1  0.4326510000000  0.5233230000000  0.5035210000000 1.0
C      1  0.4638160000000  0.4480140000000  0.5417400000000 1.0
C      1  0.4514150000000  0.5393860000000  0.4894240000000 1.0
C      1  0.4043560000000  0.5436760000000  0.5447200000000 1.0
C      1  0.4872550000000  0.5386520000000  0.5510240000000 1.0
C      1  0.6576590000000  0.4056400000000  0.5055910000000 1.0
C      1  0.4827210000000  0.5134780000000  0.5383880000000 1.0
C      1  0.4329530000000  0.4764520000000  0.5154200000000 1.0
C      1  0.5027940000000  0.5396340000000  0.5735840000000 1.0
C      1  0.5998590000000  0.4569510000000  0.4889640000000 1.0
C      1  0.4441390000000  0.5664380000000  0.4821800000000 1.0
C      1  0.4969280000000  0.5053830000000  0.5150760000000 1.0
C      1  0.5508010000000  0.4617540000000  0.5242250000000 1.0
C      1  0.4763420000000  0.5624860000000  0.5406810000000 1.0
C      1  0.4507960000000  0.4723470000000  0.5368400000000 1.0
C      1  0.4460100000000  0.4956350000000  0.4469050000000 1.0
C      1  0.4629920000000  0.4955720000000  0.5474630000000 1.0
C      1  0.4703780000000  0.5287090000000  0.4706970000000 1.0
C      1  0.5365860000000  0.5157870000000  0.4400920000000 1.0
C      1  0.4555910000000  0.5225810000000  0.4463830000000 1.0
C      1  0.4641850000000  0.4747310000000  0.4415590000000 1.0
C      1  0.5151540000000  0.5275000000000  0.4507170000000 1.0
C      1  0.4984400000000  0.5289170000000  0.4731700000000 1.0
C      1  0.5596130000000  0.4208450000000  0.5475920000000 1.0
C      1  0.4419570000000  0.5461960000000  0.4374540000000 1.0
C      1  0.5372800000000  0.5303350000000  0.5052980000000 1.0
C      1  0.5540960000000  0.5082770000000  0.5099080000000 1.0
C      1  0.5614500000000  0.4813220000000  0.5072330000000 1.0
C      1  0.4286230000000  0.4960310000000  0.4956380000000 1.0
C      1  0.5462080000000  0.5560300000000  0.5073400000000 1.0
C      1  0.4957270000000  0.4795360000000  0.5038850000000 1.0
C      1  0.5717670000000  0.4840790000000  0.4599010000000 1.0
C      1  0.4925610000000  0.4645340000000  0.4820030000000 1.0
C      1  0.4875870000000  0.4359940000000  0.5432590000000 1.0
C      1  0.5140910000000  0.4345820000000  0.5413530000000 1.0
C      1  0.5572200000000  0.4993630000000  0.4437090000000 1.0
C      1  0.4644750000000  0.5806020000000  0.5250000000000 1.0
C      1  0.4274250000000  0.4904940000000  0.4679420000000 1.0
C      1  0.4373930000000  0.5674940000000  0.4544190000000 1.0
C      1  0.4821000000000  0.4625330000000  0.4574630000000 1.0
C      1  0.4510880000000  0.5849530000000  0.5020250000000 1.0
END
