TITL C-627108-131-957 1.87268072517962e-05 125000 -1186.01239351614 0 0 197 (C1) n - 1
REM
REM in /home/nfs/bkarasulu/CARBON/AIRSS/Generating-Clusters/LCBOP/Only-C1/SD-CG/FIRE-CG
REM
REM
REM
REM
REM
REM ./C.cell (11c1c37f851c82e70ff6c80c92926a4b)
REM AIRSS Version 0.9.1 bugfix July 2018 build 013d7b7c2542+ Fri, 06 Jul 2018 19:26:36 +0100
REM compiler GCC version 9.2.1 20190827 (Red Hat 9.2.1-1)
REM options -cpp -mtune=generic -march=x86-64 -g -O0 -fpre-include=/usr/include/finclude/math-vector-fortran.h
REM seed -990863567 -613694691 1554465598 -2056221496 2000612708 906535169 406486821 48461486 -1298753955 -943782684 1525552535 -2034210528 1547689315 -170673881 -530656580 161786170 -998199208 1092675723 980842659 -34135254 1124540013 1241108895 -1179741930 -957705140 -2007809348 1880606803 1750532386 842866291 1237411695 851620514 417159890 1709208792 -891001084
REM
CELL 1.54180   50.00000   50.00000   50.00000   90.00000   90.00000   90.00000
LATT -1
SFAC C  
C      1  0.5786890000000  0.4765980000000  0.5091340000000 1.0
C      1  0.5234090000000  0.5175830000000  0.4120870000000 1.0
C      1  0.4378950000000  0.5302640000000  0.5960550000000 1.0
C      1  0.4635780000000  0.4179460000000  0.3904550000000 1.0
C      1  0.5792500000000  0.5808050000000  0.4661940000000 1.0
C      1  0.5182750000000  0.5769380000000  0.5570330000000 1.0
C      1  0.4029360000000  0.4636740000000  0.4872560000000 1.0
C      1  0.4820960000000  0.4412510000000  0.6388520000000 1.0
C      1  0.5204870000000  0.4314240000000  0.6124270000000 1.0
C      1  0.5060900000000  0.5284110000000  0.5026840000000 1.0
C      1  0.5918340000000  0.4154340000000  0.4612510000000 1.0
C      1  0.6063020000000  0.4382490000000  0.4640050000000 1.0
C      1  0.6119290000000  0.5872550000000  0.5605690000000 1.0
C      1  0.5801050000000  0.5383710000000  0.5043960000000 1.0
C      1  0.4074850000000  0.4316740000000  0.5230440000000 1.0
C      1  0.6222350000000  0.4464140000000  0.5079890000000 1.0
C      1  0.5613890000000  0.5469470000000  0.4090660000000 1.0
C      1  0.5283080000000  0.5108290000000  0.4957510000000 1.0
C      1  0.4871420000000  0.6233530000000  0.4918880000000 1.0
C      1  0.6184620000000  0.4943250000000  0.5135150000000 1.0
C      1  0.4422100000000  0.4381000000000  0.4641850000000 1.0
C      1  0.4595880000000  0.3834490000000  0.4882010000000 1.0
C      1  0.4294970000000  0.5306190000000  0.4247030000000 1.0
C      1  0.4788000000000  0.5626440000000  0.4078450000000 1.0
C      1  0.3953460000000  0.5286390000000  0.5400600000000 1.0
C      1  0.4962410000000  0.5942250000000  0.5671660000000 1.0
C      1  0.4527160000000  0.4095990000000  0.5506330000000 1.0
C      1  0.4637910000000  0.4309850000000  0.4833110000000 1.0
C      1  0.4719710000000  0.6047230000000  0.5520700000000 1.0
C      1  0.4547340000000  0.4101350000000  0.5017850000000 1.0
C      1  0.4577020000000  0.5151420000000  0.5559770000000 1.0
C      1  0.3882610000000  0.4811950000000  0.5310400000000 1.0
C      1  0.5353070000000  0.5888280000000  0.4402140000000 1.0
C      1  0.4591830000000  0.6005560000000  0.5248070000000 1.0
C      1  0.5813900000000  0.6438800000000  0.4314100000000 1.0
C      1  0.5258090000000  0.5826210000000  0.6012960000000 1.0
C      1  0.3913100000000  0.4872570000000  0.5011220000000 1.0
C      1  0.4542670000000  0.5548310000000  0.5952840000000 1.0
C      1  0.4461070000000  0.4742170000000  0.5073070000000 1.0
C      1  0.5223850000000  0.4399090000000  0.5185580000000 1.0
C      1  0.5102150000000  0.4425180000000  0.6376700000000 1.0
C      1  0.4323860000000  0.5893980000000  0.5219790000000 1.0
C      1  0.4913100000000  0.4486770000000  0.5640580000000 1.0
C      1  0.4508810000000  0.4284110000000  0.4114410000000 1.0
C      1  0.5181720000000  0.4182510000000  0.4231980000000 1.0
C      1  0.4358590000000  0.4860270000000  0.4543410000000 1.0
C      1  0.5358700000000  0.5412330000000  0.4218680000000 1.0
C      1  0.4685970000000  0.6190990000000  0.4473760000000 1.0
C      1  0.4110210000000  0.5346420000000  0.4441600000000 1.0
C      1  0.4879300000000  0.5492190000000  0.5036730000000 1.0
C      1  0.4707690000000  0.4292100000000  0.6146500000000 1.0
C      1  0.5455940000000  0.5250350000000  0.5902670000000 1.0
C      1  0.5457290000000  0.5134940000000  0.5201610000000 1.0
C      1  0.3999940000000  0.4156580000000  0.4765150000000 1.0
C      1  0.5571310000000  0.5493240000000  0.5766500000000 1.0
C      1  0.4957550000000  0.4171880000000  0.6032620000000 1.0
C      1  0.4186590000000  0.5660870000000  0.5117950000000 1.0
C      1  0.4553400000000  0.4941980000000  0.3991490000000 1.0
C      1  0.4434900000000  0.4167080000000  0.5765540000000 1.0
C      1  0.5461720000000  0.3997510000000  0.5317550000000 1.0
C      1  0.5006180000000  0.5741320000000  0.3925480000000 1.0
C      1  0.5760920000000  0.4053990000000  0.5335870000000 1.0
C      1  0.4535230000000  0.4598960000000  0.3337200000000 1.0
C      1  0.4566150000000  0.4834310000000  0.5930790000000 1.0
C      1  0.4976990000000  0.5389970000000  0.6168860000000 1.0
C      1  0.4503840000000  0.5986750000000  0.5709610000000 1.0
C      1  0.5519550000000  0.5373560000000  0.4613770000000 1.0
C      1  0.4564740000000  0.5164130000000  0.4200120000000 1.0
C      1  0.4379270000000  0.4232170000000  0.5262810000000 1.0
C      1  0.3949250000000  0.4534850000000  0.5383040000000 1.0
C      1  0.5031700000000  0.4060060000000  0.4966440000000 1.0
C      1  0.5312100000000  0.6008930000000  0.5028160000000 1.0
C      1  0.5016620000000  0.4213020000000  0.5587320000000 1.0
C      1  0.5267970000000  0.5740480000000  0.3844510000000 1.0
C      1  0.4443090000000  0.5254020000000  0.4909120000000 1.0
C      1  0.5139060000000  0.5032740000000  0.4520470000000 1.0
C      1  0.4847790000000  0.5119310000000  0.5499260000000 1.0
C      1  0.5917800000000  0.4723360000000  0.6001470000000 1.0
C      1  0.5755360000000  0.3951520000000  0.4690980000000 1.0
C      1  0.5235870000000  0.4933090000000  0.4279080000000 1.0
C      1  0.4005910000000  0.4984250000000  0.5786280000000 1.0
C      1  0.5527660000000  0.5653220000000  0.3883230000000 1.0
C      1  0.6092210000000  0.4800910000000  0.5390030000000 1.0
C      1  0.4099040000000  0.5220220000000  0.5939610000000 1.0
C      1  0.5110180000000  0.4277820000000  0.3967970000000 1.0
C      1  0.4615860000000  0.4729520000000  0.3547840000000 1.0
C      1  0.5773190000000  0.4842770000000  0.4289880000000 1.0
C      1  0.5013130000000  0.4694780000000  0.5828970000000 1.0
C      1  0.5939150000000  0.5724570000000  0.5459270000000 1.0
C      1  0.5331880000000  0.5176690000000  0.4676290000000 1.0
C      1  0.5908760000000  0.5085820000000  0.4373270000000 1.0
C      1  0.4223380000000  0.5849820000000  0.4625080000000 1.0
C      1  0.4481210000000  0.4354900000000  0.5975090000000 1.0
C      1  0.5189710000000  0.4827740000000  0.5369090000000 1.0
C      1  0.4783400000000  0.5339290000000  0.4072950000000 1.0
C      1  0.5217480000000  0.4645940000000  0.4248680000000 1.0
C      1  0.5240540000000  0.4246440000000  0.4918510000000 1.0
C      1  0.4817060000000  0.4043670000000  0.5458770000000 1.0
C      1  0.5234510000000  0.5323580000000  0.6068650000000 1.0
C      1  0.5619870000000  0.5965520000000  0.4491080000000 1.0
C      1  0.5007100000000  0.5192680000000  0.3954770000000 1.0
C      1  0.5393770000000  0.5724780000000  0.5773670000000 1.0
C      1  0.4075830000000  0.4605190000000  0.3876620000000 1.0
C      1  0.5422820000000  0.5767400000000  0.5060490000000 1.0
C      1  0.4499330000000  0.4516890000000  0.5282850000000 1.0
C      1  0.4175970000000  0.5429800000000  0.5301710000000 1.0
C      1  0.4713900000000  0.4867920000000  0.3767520000000 1.0
C      1  0.4499550000000  0.4396350000000  0.4355500000000 1.0
C      1  0.3979190000000  0.4361150000000  0.4957050000000 1.0
C      1  0.4944600000000  0.4727410000000  0.4784640000000 1.0
C      1  0.4883210000000  0.4926060000000  0.6264870000000 1.0
C      1  0.5721230000000  0.6210390000000  0.4398650000000 1.0
C      1  0.6162860000000  0.4580130000000  0.4820100000000 1.0
C      1  0.4139790000000  0.5636320000000  0.4828540000000 1.0
C      1  0.4038780000000  0.5377270000000  0.4719630000000 1.0
C      1  0.4832910000000  0.5583150000000  0.5302880000000 1.0
C      1  0.5342770000000  0.4371440000000  0.4677990000000 1.0
C      1  0.5303750000000  0.4729890000000  0.5883620000000 1.0
C      1  0.5144820000000  0.6211220000000  0.4974730000000 1.0
C      1  0.4251090000000  0.4113900000000  0.4643770000000 1.0
C      1  0.5686420000000  0.4672010000000  0.4499500000000 1.0
C      1  0.5297050000000  0.4224450000000  0.5447150000000 1.0
C      1  0.5662110000000  0.5630360000000  0.5102610000000 1.0
C      1  0.3876640000000  0.4893910000000  0.4434240000000 1.0
C      1  0.5863530000000  0.3864100000000  0.5144110000000 1.0
C      1  0.5910330000000  0.4290430000000  0.5405000000000 1.0
C      1  0.4400350000000  0.3861120000000  0.4665070000000 1.0
C      1  0.6087550000000  0.4507300000000  0.5332720000000 1.0
C      1  0.4793800000000  0.5549250000000  0.4753530000000 1.0
C      1  0.4287830000000  0.4935050000000  0.5222480000000 1.0
C      1  0.4526730000000  0.5910930000000  0.4527090000000 1.0
C      1  0.5163500000000  0.4559200000000  0.3972630000000 1.0
C      1  0.5926280000000  0.5342610000000  0.4793110000000 1.0
C      1  0.4760630000000  0.4519400000000  0.5399830000000 1.0
C      1  0.4926910000000  0.4459510000000  0.5173110000000 1.0
C      1  0.5168130000000  0.6088680000000  0.4320950000000 1.0
C      1  0.5579600000000  0.4635780000000  0.4994630000000 1.0
C      1  0.5836650000000  0.5317260000000  0.4199760000000 1.0
C      1  0.4834950000000  0.4495480000000  0.4901400000000 1.0
C      1  0.5098840000000  0.5266750000000  0.5526230000000 1.0
C      1  0.5379040000000  0.4448430000000  0.5932060000000 1.0
C      1  0.4725180000000  0.4884340000000  0.5106170000000 1.0
C      1  0.4861080000000  0.3665910000000  0.4902000000000 1.0
C      1  0.5492680000000  0.4845100000000  0.3817040000000 1.0
C      1  0.4830130000000  0.4801920000000  0.6018520000000 1.0
C      1  0.5071500000000  0.5538370000000  0.5457820000000 1.0
C      1  0.5322170000000  0.4670070000000  0.5142090000000 1.0
C      1  0.4429050000000  0.5355070000000  0.5417070000000 1.0
C      1  0.4591410000000  0.5582680000000  0.5464290000000 1.0
C      1  0.4149510000000  0.4706510000000  0.4105650000000 1.0
C      1  0.5306480000000  0.5085720000000  0.5435800000000 1.0
C      1  0.4963800000000  0.5843680000000  0.5966820000000 1.0
C      1  0.5179020000000  0.4820630000000  0.4923240000000 1.0
C      1  0.6140380000000  0.4881930000000  0.4837300000000 1.0
C      1  0.5724180000000  0.5196910000000  0.5226340000000 1.0
C      1  0.4027720000000  0.6008710000000  0.4517180000000 1.0
C      1  0.4741690000000  0.6356620000000  0.4699670000000 1.0
C      1  0.5234770000000  0.4397830000000  0.4417120000000 1.0
C      1  0.4110790000000  0.4727950000000  0.5875940000000 1.0
C      1  0.4673350000000  0.5819040000000  0.4781050000000 1.0
C      1  0.4327530000000  0.4663580000000  0.4781750000000 1.0
C      1  0.4874720000000  0.5186230000000  0.6333440000000 1.0
C      1  0.4611120000000  0.5757630000000  0.4265810000000 1.0
C      1  0.5850010000000  0.5218550000000  0.5478190000000 1.0
C      1  0.4908740000000  0.4911870000000  0.5316390000000 1.0
C      1  0.4501620000000  0.5704010000000  0.5716280000000 1.0
C      1  0.4893540000000  0.4168520000000  0.3830990000000 1.0
C      1  0.5243890000000  0.5618950000000  0.4390250000000 1.0
C      1  0.4879680000000  0.4921290000000  0.4584740000000 1.0
C      1  0.4912080000000  0.3976000000000  0.5200660000000 1.0
C      1  0.3935790000000  0.5142600000000  0.4877790000000 1.0
C      1  0.4723880000000  0.6005110000000  0.4997890000000 1.0
C      1  0.5940730000000  0.5910010000000  0.4906550000000 1.0
C      1  0.5786520000000  0.4875080000000  0.5813160000000 1.0
C      1  0.5145060000000  0.3643630000000  0.4978400000000 1.0
C      1  0.5880760000000  0.5804420000000  0.5177750000000 1.0
C      1  0.5211510000000  0.4776030000000  0.3794660000000 1.0
C      1  0.4509430000000  0.5086310000000  0.5822740000000 1.0
C      1  0.6015930000000  0.5097440000000  0.4659420000000 1.0
C      1  0.4912670000000  0.6171630000000  0.4302470000000 1.0
C      1  0.3913210000000  0.5024420000000  0.5509900000000 1.0
C      1  0.5673020000000  0.3815320000000  0.4926850000000 1.0
C      1  0.5932230000000  0.4962590000000  0.5579670000000 1.0
C      1  0.5559710000000  0.4552670000000  0.4724010000000 1.0
C      1  0.5460170000000  0.4320500000000  0.5689260000000 1.0
C      1  0.4984090000000  0.4961490000000  0.3784100000000 1.0
C      1  0.5806870000000  0.5483920000000  0.5592280000000 1.0
C      1  0.5507820000000  0.4955070000000  0.5866370000000 1.0
C      1  0.5679890000000  0.4826750000000  0.4016980000000 1.0
C      1  0.4618240000000  0.5056470000000  0.4498310000000 1.0
C      1  0.5022230000000  0.5562430000000  0.4559130000000 1.0
C      1  0.4608090000000  0.5303970000000  0.4698770000000 1.0
C      1  0.5403060000000  0.3796290000000  0.5072590000000 1.0
C      1  0.5764550000000  0.5521750000000  0.4631320000000 1.0
C      1  0.4372200000000  0.4625670000000  0.5940260000000 1.0
C      1  0.4133600000000  0.4830420000000  0.4356710000000 1.0
C      1  0.4813320000000  0.5602750000000  0.6059890000000 1.0
END
