TITL C-627109-622-1624 -229.214327159568 125000 -1241.24615310794 0 0 200 (C1) n - 1
REM
REM in /home/nfs/bkarasulu/CARBON/AIRSS/Generating-Clusters/LCBOP/Only-C1/SD-CG/FIRE-CG
REM
REM
REM
REM
REM
REM ./C.cell (11c1c37f851c82e70ff6c80c92926a4b)
REM AIRSS Version 0.9.1 bugfix July 2018 build 013d7b7c2542+ Fri, 06 Jul 2018 19:26:36 +0100
REM compiler GCC version 9.2.1 20190827 (Red Hat 9.2.1-1)
REM options -cpp -mtune=generic -march=x86-64 -g -O0 -fpre-include=/usr/include/finclude/math-vector-fortran.h
REM seed 1595380283 486451956 252802026 1193025850 -253567992 434832570 378593161 1423456440 -1424798802 -1217988523 -1012008925 -1555384945 1482549504 -336044122 1787059445 1700107138 707172280 -565287115 770174223 1408773181 -1927382452 -1767338129 929680439 -999938055 699386388 1645653877 1728853692 -1034591057 -1108667158 -1248381996 -594415 1321133533 513617594
REM
CELL 1.54180   50.00000   50.00000   50.00000   90.00000   90.00000   90.00000
LATT -1
SFAC C  
C      1  0.4997710000000  0.3937360000000  0.4644020000000 1.0
C      1  0.5506990000000  0.4846600000000  0.5190530000000 1.0
C      1  0.5670930000000  0.4162700000000  0.4693630000000 1.0
C      1  0.4600040000000  0.6121680000000  0.6165930000000 1.0
C      1  0.5696820000000  0.5918920000000  0.4608620000000 1.0
C      1  0.4601280000000  0.5924560000000  0.5970350000000 1.0
C      1  0.4664250000000  0.4704970000000  0.5078200000000 1.0
C      1  0.4564530000000  0.5751990000000  0.5377000000000 1.0
C      1  0.5165910000000  0.4194520000000  0.5003210000000 1.0
C      1  0.5700020000000  0.3676180000000  0.4654900000000 1.0
C      1  0.5029110000000  0.5746160000000  0.5840110000000 1.0
C      1  0.5490950000000  0.4247950000000  0.4270900000000 1.0
C      1  0.4506360000000  0.6232540000000  0.5111440000000 1.0
C      1  0.4282360000000  0.5522510000000  0.4847190000000 1.0
C      1  0.6397730000000  0.4320710000000  0.4552030000000 1.0
C      1  0.6054310000000  0.5810890000000  0.5411650000000 1.0
C      1  0.4773970000000  0.4587860000000  0.5312090000000 1.0
C      1  0.5358290000000  0.5829470000000  0.4949880000000 1.0
C      1  0.3804650000000  0.5191640000000  0.5267730000000 1.0
C      1  0.5469280000000  0.3250320000000  0.5243570000000 1.0
C      1  0.4841910000000  0.5174630000000  0.5732970000000 1.0
C      1  0.5944910000000  0.6000490000000  0.5257970000000 1.0
C      1  0.4500440000000  0.4546070000000  0.5752990000000 1.0
C      1  0.5772740000000  0.6071270000000  0.5065780000000 1.0
C      1  0.4909180000000  0.5167020000000  0.4579210000000 1.0
C      1  0.5372300000000  0.5116790000000  0.5272460000000 1.0
C      1  0.5731010000000  0.4758820000000  0.5374960000000 1.0
C      1  0.5222220000000  0.5016590000000  0.3815570000000 1.0
C      1  0.4603160000000  0.6311690000000  0.6350430000000 1.0
C      1  0.5170220000000  0.5302080000000  0.3869670000000 1.0
C      1  0.5239800000000  0.5456760000000  0.4319130000000 1.0
C      1  0.4640260000000  0.6586310000000  0.4781040000000 1.0
C      1  0.4725970000000  0.4312670000000  0.3863940000000 1.0
C      1  0.4018270000000  0.5152810000000  0.5722010000000 1.0
C      1  0.4492730000000  0.5346340000000  0.4768690000000 1.0
C      1  0.5377640000000  0.4377610000000  0.5045780000000 1.0
C      1  0.4223870000000  0.4500040000000  0.5830080000000 1.0
C      1  0.4940980000000  0.4042510000000  0.5647670000000 1.0
C      1  0.4860670000000  0.5094910000000  0.5261290000000 1.0
C      1  0.5074980000000  0.6113020000000  0.4571970000000 1.0
C      1  0.4343350000000  0.6058100000000  0.4389050000000 1.0
C      1  0.4703450000000  0.5970290000000  0.5501960000000 1.0
C      1  0.5594810000000  0.5979050000000  0.4867680000000 1.0
C      1  0.4832110000000  0.4730910000000  0.6131760000000 1.0
C      1  0.5564090000000  0.4783890000000  0.6113510000000 1.0
C      1  0.3999000000000  0.4615110000000  0.4165270000000 1.0
C      1  0.5299070000000  0.5162720000000  0.5556090000000 1.0
C      1  0.4024030000000  0.4700550000000  0.5794940000000 1.0
C      1  0.5578710000000  0.5289110000000  0.5999930000000 1.0
C      1  0.5405940000000  0.5535030000000  0.4551320000000 1.0
C      1  0.5697190000000  0.4860450000000  0.4658680000000 1.0
C      1  0.5444950000000  0.5634540000000  0.5170990000000 1.0
C      1  0.5149540000000  0.5493580000000  0.5890510000000 1.0
C      1  0.6157760000000  0.3921480000000  0.5111140000000 1.0
C      1  0.5595320000000  0.5031830000000  0.4455440000000 1.0
C      1  0.5662880000000  0.5650100000000  0.4530630000000 1.0
C      1  0.5188510000000  0.4628560000000  0.4114860000000 1.0
C      1  0.4447360000000  0.5063720000000  0.4780740000000 1.0
C      1  0.5014330000000  0.4200320000000  0.4764260000000 1.0
C      1  0.4190370000000  0.5558070000000  0.5119560000000 1.0
C      1  0.5621740000000  0.4277530000000  0.4946000000000 1.0
C      1  0.4753070000000  0.3798300000000  0.4714260000000 1.0
C      1  0.5675890000000  0.3175080000000  0.5091640000000 1.0
C      1  0.4158840000000  0.4763410000000  0.5183520000000 1.0
C      1  0.4392540000000  0.4290490000000  0.5347940000000 1.0
C      1  0.5712510000000  0.5474260000000  0.5812530000000 1.0
C      1  0.4995120000000  0.4673840000000  0.4578010000000 1.0
C      1  0.5113930000000  0.4214250000000  0.5759780000000 1.0
C      1  0.4790940000000  0.3898220000000  0.5477790000000 1.0
C      1  0.5106390000000  0.5153450000000  0.5136120000000 1.0
C      1  0.4363950000000  0.6191170000000  0.4649300000000 1.0
C      1  0.4220490000000  0.5996180000000  0.4822490000000 1.0
C      1  0.4632180000000  0.4551800000000  0.3988020000000 1.0
C      1  0.6131560000000  0.4893500000000  0.4218560000000 1.0
C      1  0.5979370000000  0.5420050000000  0.5710510000000 1.0
C      1  0.5308470000000  0.4617100000000  0.5182390000000 1.0
C      1  0.4187160000000  0.4441680000000  0.4299050000000 1.0
C      1  0.6181460000000  0.5239220000000  0.4762840000000 1.0
C      1  0.4248900000000  0.5301170000000  0.5648320000000 1.0
C      1  0.5759690000000  0.5210940000000  0.5009070000000 1.0
C      1  0.4140770000000  0.4067670000000  0.4967650000000 1.0
C      1  0.5306720000000  0.5343280000000  0.6087120000000 1.0
C      1  0.5262520000000  0.3721740000000  0.5252930000000 1.0
C      1  0.5078950000000  0.5865370000000  0.4728220000000 1.0
C      1  0.4906600000000  0.5972200000000  0.4073600000000 1.0
C      1  0.5091210000000  0.5288200000000  0.5698900000000 1.0
C      1  0.4287280000000  0.4961970000000  0.5303630000000 1.0
C      1  0.4698590000000  0.3737880000000  0.4983850000000 1.0
C      1  0.6075080000000  0.4368910000000  0.5373380000000 1.0
C      1  0.5295210000000  0.5431370000000  0.4788120000000 1.0
C      1  0.4606850000000  0.6502040000000  0.6534750000000 1.0
C      1  0.4203010000000  0.4280980000000  0.5139890000000 1.0
C      1  0.4103620000000  0.5000100000000  0.6198890000000 1.0
C      1  0.5961970000000  0.4868890000000  0.4010340000000 1.0
C      1  0.4716820000000  0.5540330000000  0.5282980000000 1.0
C      1  0.5744260000000  0.4879020000000  0.3851470000000 1.0
C      1  0.4406170000000  0.5724270000000  0.5950970000000 1.0
C      1  0.4556060000000  0.3869200000000  0.4518220000000 1.0
C      1  0.4900260000000  0.3994000000000  0.4188210000000 1.0
C      1  0.4754680000000  0.5408550000000  0.4660080000000 1.0
C      1  0.5756500000000  0.4606710000000  0.4556870000000 1.0
C      1  0.6106630000000  0.5199030000000  0.5831400000000 1.0
C      1  0.5354450000000  0.4404650000000  0.4082130000000 1.0
C      1  0.4230830000000  0.5784580000000  0.4401460000000 1.0
C      1  0.4768890000000  0.4794370000000  0.3908250000000 1.0
C      1  0.5058110000000  0.4608430000000  0.5323840000000 1.0
C      1  0.4884760000000  0.4413420000000  0.4610730000000 1.0
C      1  0.4667760000000  0.4985350000000  0.5787890000000 1.0
C      1  0.3970230000000  0.5418410000000  0.5221870000000 1.0
C      1  0.3840750000000  0.5045080000000  0.5511930000000 1.0
C      1  0.4610640000000  0.6692490000000  0.6719070000000 1.0
C      1  0.5573600000000  0.3912590000000  0.4583210000000 1.0
C      1  0.3654940000000  0.4576580000000  0.5476000000000 1.0
C      1  0.3656750000000  0.5110110000000  0.5041390000000 1.0
C      1  0.3846810000000  0.5119940000000  0.4281090000000 1.0
C      1  0.5002950000000  0.4917750000000  0.6234770000000 1.0
C      1  0.4614400000000  0.6879840000000  0.6900320000000 1.0
C      1  0.5495530000000  0.4940850000000  0.3766190000000 1.0
C      1  0.4300030000000  0.4939200000000  0.4575880000000 1.0
C      1  0.6039770000000  0.5262140000000  0.5010900000000 1.0
C      1  0.4399220000000  0.5186770000000  0.5430330000000 1.0
C      1  0.5736710000000  0.5242140000000  0.4314110000000 1.0
C      1  0.5842400000000  0.3296990000000  0.4921510000000 1.0
C      1  0.4156020000000  0.4259910000000  0.5944300000000 1.0
C      1  0.4207150000000  0.5742880000000  0.4687330000000 1.0
C      1  0.4872160000000  0.4904920000000  0.4691870000000 1.0
C      1  0.4176870000000  0.5041960000000  0.6445430000000 1.0
C      1  0.5568100000000  0.5673380000000  0.5673920000000 1.0
C      1  0.5320580000000  0.4980380000000  0.4404420000000 1.0
C      1  0.5137420000000  0.5190950000000  0.4415240000000 1.0
C      1  0.5547700000000  0.5353220000000  0.5154090000000 1.0
C      1  0.6268690000000  0.4839490000000  0.4461610000000 1.0
C      1  0.5101900000000  0.5393120000000  0.4986340000000 1.0
C      1  0.5164010000000  0.6347480000000  0.4682790000000 1.0
C      1  0.4279830000000  0.3872830000000  0.4553510000000 1.0
C      1  0.3989230000000  0.5353880000000  0.4205930000000 1.0
C      1  0.4676800000000  0.6207110000000  0.5340610000000 1.0
C      1  0.4917210000000  0.5454550000000  0.3874680000000 1.0
C      1  0.4656410000000  0.4890520000000  0.4871540000000 1.0
C      1  0.4577830000000  0.4460950000000  0.5484980000000 1.0
C      1  0.5811520000000  0.6106730000000  0.4447920000000 1.0
C      1  0.5190340000000  0.3955560000000  0.5149710000000 1.0
C      1  0.5112130000000  0.3928530000000  0.4374130000000 1.0
C      1  0.6106650000000  0.5430200000000  0.4570810000000 1.0
C      1  0.5158790000000  0.5140320000000  0.6229140000000 1.0
C      1  0.4123740000000  0.5584900000000  0.4236570000000 1.0
C      1  0.6344960000000  0.5024700000000  0.4670160000000 1.0
C      1  0.4315110000000  0.5786950000000  0.5245040000000 1.0
C      1  0.5666210000000  0.4940990000000  0.4930750000000 1.0
C      1  0.3895810000000  0.4865300000000  0.4162150000000 1.0
C      1  0.5324590000000  0.3467410000000  0.5297560000000 1.0
C      1  0.4665590000000  0.4343630000000  0.4429040000000 1.0
C      1  0.5856430000000  0.5458960000000  0.4456310000000 1.0
C      1  0.5057560000000  0.4801530000000  0.3923780000000 1.0
C      1  0.4638640000000  0.5033650000000  0.3836730000000 1.0
C      1  0.3830740000000  0.4757030000000  0.5579480000000 1.0
C      1  0.5581180000000  0.4708290000000  0.6377470000000 1.0
C      1  0.4315270000000  0.5518710000000  0.5809250000000 1.0
C      1  0.4804290000000  0.5910040000000  0.5767660000000 1.0
C      1  0.6154800000000  0.4141760000000  0.5260180000000 1.0
C      1  0.4455880000000  0.4817480000000  0.4371670000000 1.0
C      1  0.3685320000000  0.5131490000000  0.4514690000000 1.0
C      1  0.5460390000000  0.5736680000000  0.5436680000000 1.0
C      1  0.5427530000000  0.4611740000000  0.5934990000000 1.0
C      1  0.4660610000000  0.4731050000000  0.5903260000000 1.0
C      1  0.3624150000000  0.5114840000000  0.4775130000000 1.0
C      1  0.6594620000000  0.4996990000000  0.4782740000000 1.0
C      1  0.4704360000000  0.3789680000000  0.5247500000000 1.0
C      1  0.4901740000000  0.5656720000000  0.4594030000000 1.0
C      1  0.4650510000000  0.5271250000000  0.5333080000000 1.0
C      1  0.5927460000000  0.4585100000000  0.5421110000000 1.0
C      1  0.4113740000000  0.4530860000000  0.5036600000000 1.0
C      1  0.4486430000000  0.4534680000000  0.4265250000000 1.0
C      1  0.5886940000000  0.3557520000000  0.4828090000000 1.0
C      1  0.6075150000000  0.3721880000000  0.4955920000000 1.0
C      1  0.6343030000000  0.4570840000000  0.4503330000000 1.0
C      1  0.4054910000000  0.4550200000000  0.4758260000000 1.0
C      1  0.5628800000000  0.5328510000000  0.4066060000000 1.0
C      1  0.4991710000000  0.5613910000000  0.4319830000000 1.0
C      1  0.5391450000000  0.3984390000000  0.4362260000000 1.0
C      1  0.5279690000000  0.4409090000000  0.5840260000000 1.0
C      1  0.4905450000000  0.5685280000000  0.4057020000000 1.0
C      1  0.5669050000000  0.4355150000000  0.4476900000000 1.0
C      1  0.4109230000000  0.4339580000000  0.4566200000000 1.0
C      1  0.4926770000000  0.5582290000000  0.5101740000000 1.0
C      1  0.4663810000000  0.4066700000000  0.4342270000000 1.0
C      1  0.4881480000000  0.4100060000000  0.3928500000000 1.0
C      1  0.4520450000000  0.6348740000000  0.4839840000000 1.0
C      1  0.6143110000000  0.5369020000000  0.5249210000000 1.0
C      1  0.5973320000000  0.5013750000000  0.5975430000000 1.0
C      1  0.5696410000000  0.5024980000000  0.6035740000000 1.0
C      1  0.4298170000000  0.6026360000000  0.5093700000000 1.0
C      1  0.4982840000000  0.6109870000000  0.4298780000000 1.0
C      1  0.5361210000000  0.5411200000000  0.4052270000000 1.0
C      1  0.4690060000000  0.5297030000000  0.3816080000000 1.0
C      1  0.4064950000000  0.4810500000000  0.4654880000000 1.0
C      1  0.4054230000000  0.4956460000000  0.5930920000000 1.0
C      1  0.5191030000000  0.4731280000000  0.4379400000000 1.0
C      1  0.4139630000000  0.4077960000000  0.4682450000000 1.0
C      1  0.6077180000000  0.5535680000000  0.5468150000000 1.0
END
