TITL C-627108-131-388 0.000129360556466806 125000 -216.651101274615 0 0 36 (C1) n - 1
REM
REM in /home/nfs/bkarasulu/CARBON/AIRSS/Generating-Clusters/LCBOP/Only-C1/SD-CG/FIRE-CG
REM
REM
REM
REM
REM
REM ./C.cell (11c1c37f851c82e70ff6c80c92926a4b)
REM AIRSS Version 0.9.1 bugfix July 2018 build 013d7b7c2542+ Fri, 06 Jul 2018 19:26:36 +0100
REM compiler GCC version 9.2.1 20190827 (Red Hat 9.2.1-1)
REM options -cpp -mtune=generic -march=x86-64 -g -O0 -fpre-include=/usr/include/finclude/math-vector-fortran.h
REM seed -520490743 1675016424 2088218881 1811363997 1336658568 1617065891 530932082 407556302 -954394625 1709198054 -1971761092 1378941150 901514619 1290766099 -113795062 1318325015 2056519702 120074418 632081489 -1945785247 -1788134888 -276881705 -1424915927 -1195780133 -1720010083 -934697630 747218258 -1707023833 827654531 -966920295 -1399586218 1352862320 -1004779934
REM
CELL 1.54180   50.00000   50.00000   50.00000   90.00000   90.00000   90.00000
LATT -1
SFAC C  
C      1  0.5055400000000  0.4390280000000  0.5520020000000 1.0
C      1  0.4855310000000  0.5085760000000  0.4521580000000 1.0
C      1  0.5163160000000  0.4421080000000  0.5263370000000 1.0
C      1  0.4744990000000  0.4842290000000  0.4432110000000 1.0
C      1  0.5196310000000  0.4916600000000  0.4811410000000 1.0
C      1  0.5057880000000  0.4849690000000  0.5054370000000 1.0
C      1  0.5382130000000  0.5198360000000  0.4509800000000 1.0
C      1  0.5256570000000  0.4675610000000  0.5189600000000 1.0
C      1  0.4677230000000  0.4623020000000  0.5791210000000 1.0
C      1  0.4725880000000  0.5183500000000  0.5182130000000 1.0
C      1  0.5494370000000  0.4851490000000  0.5163350000000 1.0
C      1  0.5890750000000  0.5353460000000  0.5238750000000 1.0
C      1  0.5083600000000  0.4252660000000  0.5052060000000 1.0
C      1  0.4954770000000  0.4246190000000  0.4818050000000 1.0
C      1  0.4561500000000  0.5476820000000  0.4491080000000 1.0
C      1  0.5826990000000  0.5272450000000  0.4753230000000 1.0
C      1  0.5129860000000  0.5079280000000  0.4584400000000 1.0
C      1  0.5943480000000  0.5366560000000  0.4975850000000 1.0
C      1  0.4464340000000  0.5014550000000  0.5605840000000 1.0
C      1  0.4829220000000  0.4366210000000  0.4615600000000 1.0
C      1  0.4477460000000  0.4819460000000  0.5807010000000 1.0
C      1  0.4201780000000  0.6019360000000  0.4042360000000 1.0
C      1  0.4660120000000  0.5277580000000  0.4925540000000 1.0
C      1  0.5203460000000  0.5167670000000  0.5375380000000 1.0
C      1  0.5701420000000  0.5237580000000  0.5389510000000 1.0
C      1  0.4440940000000  0.5658760000000  0.4341020000000 1.0
C      1  0.4982900000000  0.5072370000000  0.5218510000000 1.0
C      1  0.4299280000000  0.4820700000000  0.6014260000000 1.0
C      1  0.4320370000000  0.5840550000000  0.4190460000000 1.0
C      1  0.4541510000000  0.5147930000000  0.5389100000000 1.0
C      1  0.5490540000000  0.4932380000000  0.4877300000000 1.0
C      1  0.5475800000000  0.5078360000000  0.5344700000000 1.0
C      1  0.4689550000000  0.5283040000000  0.4645030000000 1.0
C      1  0.5598010000000  0.5126570000000  0.4690430000000 1.0
C      1  0.4876150000000  0.4473040000000  0.5698630000000 1.0
C      1  0.4746970000000  0.4578790000000  0.4476980000000 1.0
END
