TITL C-627106-156-1396 1427.92559497892 125000 -931.642981735877 0 0 154 (C1) n - 1
REM
REM in /home/nfs/bkarasulu/CARBON/AIRSS/Generating-Clusters/LCBOP/Only-C1/SD-CG/FIRE-CG
REM
REM
REM
REM
REM
REM ./C.cell (11c1c37f851c82e70ff6c80c92926a4b)
REM AIRSS Version 0.9.1 bugfix July 2018 build 013d7b7c2542+ Fri, 06 Jul 2018 19:26:36 +0100
REM compiler GCC version 9.2.1 20190827 (Red Hat 9.2.1-1)
REM options -cpp -mtune=generic -march=x86-64 -g -O0 -fpre-include=/usr/include/finclude/math-vector-fortran.h
REM seed 705032138 1412655650 -470232287 -761997415 1112696314 -202344559 690147458 1640329191 -1308153220 1566040032 -501560089 1511156821 793530816 196221997 -2099369902 1997194462 1621638274 -783315417 795358075 2055045088 -1780943511 -1607256958 1656319432 -54879362 -1501702184 860809435 480344839 462036838 66808618 790044515 -1683672300 2145496262 -2145545033
REM
CELL 1.54180   50.00000   50.00000   50.00000   90.00000   90.00000   90.00000
LATT -1
SFAC C  
C      1  0.4607290000000  0.5620240000000  0.4291290000000 1.0
C      1  0.5014840000000  0.4325310000000  0.5856010000000 1.0
C      1  0.4051780000000  0.5577510000000  0.4652180000000 1.0
C      1  0.4264740000000  0.5413630000000  0.5918160000000 1.0
C      1  0.4836480000000  0.5667450000000  0.4959660000000 1.0
C      1  0.4380510000000  0.4736690000000  0.4175170000000 1.0
C      1  0.4826440000000  0.4930040000000  0.4133820000000 1.0
C      1  0.4809010000000  0.4842600000000  0.4701660000000 1.0
C      1  0.5251940000000  0.4753400000000  0.4637200000000 1.0
C      1  0.5458200000000  0.5340530000000  0.4718840000000 1.0
C      1  0.4476410000000  0.4547950000000  0.5447810000000 1.0
C      1  0.3935280000000  0.5339900000000  0.4593380000000 1.0
C      1  0.4843600000000  0.6189180000000  0.5322790000000 1.0
C      1  0.4581180000000  0.5236720000000  0.5425360000000 1.0
C      1  0.4753060000000  0.5301130000000  0.6020350000000 1.0
C      1  0.5227750000000  0.4626230000000  0.5490220000000 1.0
C      1  0.5912070000000  0.5236960000000  0.5549490000000 1.0
C      1  0.5264970000000  0.4479440000000  0.5945610000000 1.0
C      1  0.5517260000000  0.5390790000000  0.4024950000000 1.0
C      1  0.3808180000000  0.4809350000000  0.5108860000000 1.0
C      1  0.5026550000000  0.5369190000000  0.5950660000000 1.0
C      1  0.5490620000000  0.5463050000000  0.5897000000000 1.0
C      1  0.5180160000000  0.4281510000000  0.4384630000000 1.0
C      1  0.4261880000000  0.4707170000000  0.5306320000000 1.0
C      1  0.5565520000000  0.5657820000000  0.5713870000000 1.0
C      1  0.5973040000000  0.5374210000000  0.5034570000000 1.0
C      1  0.4405790000000  0.4912930000000  0.5129180000000 1.0
C      1  0.4066300000000  0.5107870000000  0.4504570000000 1.0
C      1  0.5638720000000  0.4156540000000  0.5951890000000 1.0
C      1  0.4021470000000  0.5109560000000  0.5593830000000 1.0
C      1  0.4564130000000  0.5738590000000  0.4574080000000 1.0
C      1  0.5716230000000  0.5340810000000  0.5401090000000 1.0
C      1  0.5074190000000  0.4966880000000  0.4766650000000 1.0
C      1  0.5426370000000  0.5660980000000  0.4388900000000 1.0
C      1  0.4269110000000  0.4736570000000  0.5813660000000 1.0
C      1  0.4239520000000  0.3985500000000  0.4734310000000 1.0
C      1  0.5433500000000  0.4635190000000  0.4834950000000 1.0
C      1  0.4536740000000  0.5494020000000  0.5908100000000 1.0
C      1  0.4800810000000  0.4960340000000  0.4416130000000 1.0
C      1  0.4013230000000  0.4634430000000  0.5153970000000 1.0
C      1  0.5288780000000  0.4789490000000  0.4353740000000 1.0
C      1  0.5033830000000  0.6012710000000  0.4707000000000 1.0
C      1  0.5531910000000  0.5347840000000  0.5208890000000 1.0
C      1  0.4163030000000  0.5359900000000  0.5201020000000 1.0
C      1  0.5170270000000  0.4751720000000  0.6053980000000 1.0
C      1  0.4729570000000  0.4295650000000  0.5164560000000 1.0
C      1  0.5830260000000  0.4829660000000  0.5194500000000 1.0
C      1  0.4608910000000  0.6155560000000  0.5481440000000 1.0
C      1  0.4110640000000  0.5186250000000  0.5863560000000 1.0
C      1  0.5446120000000  0.4329540000000  0.4321570000000 1.0
C      1  0.5565900000000  0.4888950000000  0.5251570000000 1.0
C      1  0.4194580000000  0.4941870000000  0.5999650000000 1.0
C      1  0.4798420000000  0.5350110000000  0.5294010000000 1.0
C      1  0.5412570000000  0.4202900000000  0.5208460000000 1.0
C      1  0.4991710000000  0.4325390000000  0.4585680000000 1.0
C      1  0.5013430000000  0.4098760000000  0.5675500000000 1.0
C      1  0.5390400000000  0.5275380000000  0.4981430000000 1.0
C      1  0.5654370000000  0.5519500000000  0.4248500000000 1.0
C      1  0.5500280000000  0.4605370000000  0.4294660000000 1.0
C      1  0.5952550000000  0.5051440000000  0.4676980000000 1.0
C      1  0.5035410000000  0.5321500000000  0.4592180000000 1.0
C      1  0.4742270000000  0.5412570000000  0.5021420000000 1.0
C      1  0.5027500000000  0.3981970000000  0.4915580000000 1.0
C      1  0.5329380000000  0.5068890000000  0.4298780000000 1.0
C      1  0.5814050000000  0.4322960000000  0.4643520000000 1.0
C      1  0.5289970000000  0.5273180000000  0.6009600000000 1.0
C      1  0.5661440000000  0.4835560000000  0.5711650000000 1.0
C      1  0.5863050000000  0.4912020000000  0.3971280000000 1.0
C      1  0.4849540000000  0.4551200000000  0.4675900000000 1.0
C      1  0.4603990000000  0.5730860000000  0.5735710000000 1.0
C      1  0.5034270000000  0.6056480000000  0.5166680000000 1.0
C      1  0.5601070000000  0.4906200000000  0.5993000000000 1.0
C      1  0.4920710000000  0.4949500000000  0.5563180000000 1.0
C      1  0.4535010000000  0.5277850000000  0.4579560000000 1.0
C      1  0.5278070000000  0.5835290000000  0.4219780000000 1.0
C      1  0.5907480000000  0.5402020000000  0.4324380000000 1.0
C      1  0.4804840000000  0.5822820000000  0.4721700000000 1.0
C      1  0.4093810000000  0.4190320000000  0.4597960000000 1.0
C      1  0.5654700000000  0.4185300000000  0.4448470000000 1.0
C      1  0.5229950000000  0.5041920000000  0.4990240000000 1.0
C      1  0.5910120000000  0.4993510000000  0.5660160000000 1.0
C      1  0.4859150000000  0.4661820000000  0.4035680000000 1.0
C      1  0.4532720000000  0.4295700000000  0.4344630000000 1.0
C      1  0.5030620000000  0.5527680000000  0.5716990000000 1.0
C      1  0.4647020000000  0.4056300000000  0.4496610000000 1.0
C      1  0.5723880000000  0.4713920000000  0.4424400000000 1.0
C      1  0.5667680000000  0.5818080000000  0.5182400000000 1.0
C      1  0.4535030000000  0.4115480000000  0.5119720000000 1.0
C      1  0.6046570000000  0.4917020000000  0.4206570000000 1.0
C      1  0.5111250000000  0.4631700000000  0.3894160000000 1.0
C      1  0.4670190000000  0.5058950000000  0.5614030000000 1.0
C      1  0.5512500000000  0.5136480000000  0.4525630000000 1.0
C      1  0.5180310000000  0.5606190000000  0.5293190000000 1.0
C      1  0.5026170000000  0.5452850000000  0.4045300000000 1.0
C      1  0.6044060000000  0.5154160000000  0.4405130000000 1.0
C      1  0.5534090000000  0.4389300000000  0.5845210000000 1.0
C      1  0.4009970000000  0.4829830000000  0.4479950000000 1.0
C      1  0.4612650000000  0.4528820000000  0.4148150000000 1.0
C      1  0.4881690000000  0.4079600000000  0.4679140000000 1.0
C      1  0.4583520000000  0.5237040000000  0.4857290000000 1.0
C      1  0.4495630000000  0.4572520000000  0.5742880000000 1.0
C      1  0.4372880000000  0.5172330000000  0.5253600000000 1.0
C      1  0.5218050000000  0.6082710000000  0.4938510000000 1.0
C      1  0.4886830000000  0.5764650000000  0.5737050000000 1.0
C      1  0.4640820000000  0.5140340000000  0.4042460000000 1.0
C      1  0.5623800000000  0.4822160000000  0.3863350000000 1.0
C      1  0.5260390000000  0.5267830000000  0.4091650000000 1.0
C      1  0.4314290000000  0.4019160000000  0.5003070000000 1.0
C      1  0.5170640000000  0.5100570000000  0.5516570000000 1.0
C      1  0.5054620000000  0.3982260000000  0.5429700000000 1.0
C      1  0.5651290000000  0.4434560000000  0.4859330000000 1.0
C      1  0.4256610000000  0.5616860000000  0.5088030000000 1.0
C      1  0.5340300000000  0.4988050000000  0.6060820000000 1.0
C      1  0.4284750000000  0.5666610000000  0.4790090000000 1.0
C      1  0.5701700000000  0.4940570000000  0.4591400000000 1.0
C      1  0.5413700000000  0.4896410000000  0.5516630000000 1.0
C      1  0.5002150000000  0.5775250000000  0.5162540000000 1.0
C      1  0.4346780000000  0.5794110000000  0.5292420000000 1.0
C      1  0.5867070000000  0.5629520000000  0.5068180000000 1.0
C      1  0.5067730000000  0.5385830000000  0.5453650000000 1.0
C      1  0.5486830000000  0.5981420000000  0.5011370000000 1.0
C      1  0.3822240000000  0.4210330000000  0.4615210000000 1.0
C      1  0.5267840000000  0.5499570000000  0.4579030000000 1.0
C      1  0.4589740000000  0.4941800000000  0.4905240000000 1.0
C      1  0.5181210000000  0.4021730000000  0.5164760000000 1.0
C      1  0.5998370000000  0.4664540000000  0.4356770000000 1.0
C      1  0.5104280000000  0.5729390000000  0.4040080000000 1.0
C      1  0.4178300000000  0.4633070000000  0.4359850000000 1.0
C      1  0.4398170000000  0.5034990000000  0.4161460000000 1.0
C      1  0.5702380000000  0.4534750000000  0.5640480000000 1.0
C      1  0.4491580000000  0.6372180000000  0.5601700000000 1.0
C      1  0.6310780000000  0.4356360000000  0.4591110000000 1.0
C      1  0.5618630000000  0.5790470000000  0.5475700000000 1.0
C      1  0.4736640000000  0.5019980000000  0.6089330000000 1.0
C      1  0.3768590000000  0.5067500000000  0.5184950000000 1.0
C      1  0.4135670000000  0.4836810000000  0.5562730000000 1.0
C      1  0.4444840000000  0.3871700000000  0.4574260000000 1.0
C      1  0.4327950000000  0.5168040000000  0.4409850000000 1.0
C      1  0.4931410000000  0.4659100000000  0.5524970000000 1.0
C      1  0.4801880000000  0.5245910000000  0.4479960000000 1.0
C      1  0.3938560000000  0.5234440000000  0.5342840000000 1.0
C      1  0.5667630000000  0.4325770000000  0.5127500000000 1.0
C      1  0.4736100000000  0.5417900000000  0.4089220000000 1.0
C      1  0.4491370000000  0.5890620000000  0.5516820000000 1.0
C      1  0.4252560000000  0.4367290000000  0.4438930000000 1.0
C      1  0.6059380000000  0.4442970000000  0.4532380000000 1.0
C      1  0.5964750000000  0.5085270000000  0.4968390000000 1.0
C      1  0.5813150000000  0.4506440000000  0.5331320000000 1.0
C      1  0.4803210000000  0.4561450000000  0.5813940000000 1.0
C      1  0.5320070000000  0.4385370000000  0.5404730000000 1.0
C      1  0.4879360000000  0.4778350000000  0.6025450000000 1.0
C      1  0.5392690000000  0.4819870000000  0.5051970000000 1.0
C      1  0.5368050000000  0.4719110000000  0.3836760000000 1.0
C      1  0.4737720000000  0.4514160000000  0.5336200000000 1.0
END
