TITL C-627108-131-594 2.74298882458163e-07 125000 -869.593503159172 0 0 140 (C1) n - 1
REM
REM in /home/nfs/bkarasulu/CARBON/AIRSS/Generating-Clusters/LCBOP/Only-C1/SD-CG/FIRE-CG
REM
REM
REM
REM
REM
REM ./C.cell (11c1c37f851c82e70ff6c80c92926a4b)
REM AIRSS Version 0.9.1 bugfix July 2018 build 013d7b7c2542+ Fri, 06 Jul 2018 19:26:36 +0100
REM compiler GCC version 9.2.1 20190827 (Red Hat 9.2.1-1)
REM options -cpp -mtune=generic -march=x86-64 -g -O0 -fpre-include=/usr/include/finclude/math-vector-fortran.h
REM seed 1009986944 -1230020513 1547078072 932841598 -1387251027 1222563980 -1949153597 1182292288 -1216588326 1484931173 1562450401 1850197053 659573218 418060736 644320430 1560225791 -1194904565 874360725 120329088 -727725537 46071810 1666894765 -768188061 -1328078313 834426863 -1557672061 -59262840 1967831622 -1246048168 -782052847 2063164203 1584055295 780885785
REM
CELL 1.54180   50.00000   50.00000   50.00000   90.00000   90.00000   90.00000
LATT -1
SFAC C  
C      1  0.6018170000000  0.4746710000000  0.5230760000000 1.0
C      1  0.5476140000000  0.4890610000000  0.5074180000000 1.0
C      1  0.4804150000000  0.4483280000000  0.6013900000000 1.0
C      1  0.3954230000000  0.5424740000000  0.4863310000000 1.0
C      1  0.5121530000000  0.4635940000000  0.4406120000000 1.0
C      1  0.4426730000000  0.5095900000000  0.5986500000000 1.0
C      1  0.5189550000000  0.4215680000000  0.5541360000000 1.0
C      1  0.3910920000000  0.5106490000000  0.5387630000000 1.0
C      1  0.4780590000000  0.5509700000000  0.5050270000000 1.0
C      1  0.4533490000000  0.4432350000000  0.5568450000000 1.0
C      1  0.5404280000000  0.4944880000000  0.4606010000000 1.0
C      1  0.4673170000000  0.4802080000000  0.4155480000000 1.0
C      1  0.5310640000000  0.5853300000000  0.4095080000000 1.0
C      1  0.4200530000000  0.4258210000000  0.5000580000000 1.0
C      1  0.5057650000000  0.4579490000000  0.6020050000000 1.0
C      1  0.4697220000000  0.4636240000000  0.5160260000000 1.0
C      1  0.4849210000000  0.3926840000000  0.5700700000000 1.0
C      1  0.4714350000000  0.4380380000000  0.4582260000000 1.0
C      1  0.4712160000000  0.5596050000000  0.4107510000000 1.0
C      1  0.5496810000000  0.5070950000000  0.4848120000000 1.0
C      1  0.5334280000000  0.4084130000000  0.4790280000000 1.0
C      1  0.5133890000000  0.6227300000000  0.5316720000000 1.0
C      1  0.4545960000000  0.4946480000000  0.5532080000000 1.0
C      1  0.4512030000000  0.4633480000000  0.4946380000000 1.0
C      1  0.4931010000000  0.5522000000000  0.5487800000000 1.0
C      1  0.5395850000000  0.4851170000000  0.4119170000000 1.0
C      1  0.5159140000000  0.4103980000000  0.5271500000000 1.0
C      1  0.4163250000000  0.4320060000000  0.4719930000000 1.0
C      1  0.5111650000000  0.5284700000000  0.4818480000000 1.0
C      1  0.4831350000000  0.4173800000000  0.4750840000000 1.0
C      1  0.5294810000000  0.4586140000000  0.4179980000000 1.0
C      1  0.6456450000000  0.4300520000000  0.4817010000000 1.0
C      1  0.4321870000000  0.5730580000000  0.5199400000000 1.0
C      1  0.5416310000000  0.5602840000000  0.4952580000000 1.0
C      1  0.5581010000000  0.4373560000000  0.5134740000000 1.0
C      1  0.4030760000000  0.4910030000000  0.4973360000000 1.0
C      1  0.5242680000000  0.5828130000000  0.5038540000000 1.0
C      1  0.5686320000000  0.4701290000000  0.5577010000000 1.0
C      1  0.5094090000000  0.4104630000000  0.4628240000000 1.0
C      1  0.5177640000000  0.5308960000000  0.3607340000000 1.0
C      1  0.4256890000000  0.4750450000000  0.4935100000000 1.0
C      1  0.5732950000000  0.5800960000000  0.4375050000000 1.0
C      1  0.5275950000000  0.4300060000000  0.4165130000000 1.0
C      1  0.4724640000000  0.4522520000000  0.4101840000000 1.0
C      1  0.5288930000000  0.4893190000000  0.5291560000000 1.0
C      1  0.4998820000000  0.5334890000000  0.5064980000000 1.0
C      1  0.4690940000000  0.4426980000000  0.3846900000000 1.0
C      1  0.5249150000000  0.5975240000000  0.5289270000000 1.0
C      1  0.4899180000000  0.5112900000000  0.5855930000000 1.0
C      1  0.5206790000000  0.4734600000000  0.4646260000000 1.0
C      1  0.6342770000000  0.4115010000000  0.4658060000000 1.0
C      1  0.4541540000000  0.5785620000000  0.5385610000000 1.0
C      1  0.4807470000000  0.4343570000000  0.4310640000000 1.0
C      1  0.4508980000000  0.5139260000000  0.5081970000000 1.0
C      1  0.5090940000000  0.4044450000000  0.5745360000000 1.0
C      1  0.5848320000000  0.4335530000000  0.4989150000000 1.0
C      1  0.6080080000000  0.4060810000000  0.4643380000000 1.0
C      1  0.4718210000000  0.4096410000000  0.4997560000000 1.0
C      1  0.4721240000000  0.5579420000000  0.5308300000000 1.0
C      1  0.4869040000000  0.5701900000000  0.4329810000000 1.0
C      1  0.4651700000000  0.5611130000000  0.4817240000000 1.0
C      1  0.5288780000000  0.5466160000000  0.5887480000000 1.0
C      1  0.4452270000000  0.4173350000000  0.5114880000000 1.0
C      1  0.5141070000000  0.5827400000000  0.4326330000000 1.0
C      1  0.4890720000000  0.4011430000000  0.5217350000000 1.0
C      1  0.5429430000000  0.5423600000000  0.5393170000000 1.0
C      1  0.5216910000000  0.4689510000000  0.5793750000000 1.0
C      1  0.5177490000000  0.4598580000000  0.4888160000000 1.0
C      1  0.4983710000000  0.5319700000000  0.4570480000000 1.0
C      1  0.5154200000000  0.5964110000000  0.4806620000000 1.0
C      1  0.5830290000000  0.5170700000000  0.5425500000000 1.0
C      1  0.5558630000000  0.5017940000000  0.5965300000000 1.0
C      1  0.4977370000000  0.4598630000000  0.5101740000000 1.0
C      1  0.5336560000000  0.5042500000000  0.4338770000000 1.0
C      1  0.5801360000000  0.5637390000000  0.5170150000000 1.0
C      1  0.6327380000000  0.4463480000000  0.4986980000000 1.0
C      1  0.5350580000000  0.5118450000000  0.3676150000000 1.0
C      1  0.4874400000000  0.6681000000000  0.5371500000000 1.0
C      1  0.4168840000000  0.5262960000000  0.5405030000000 1.0
C      1  0.4718460000000  0.3988810000000  0.5458700000000 1.0
C      1  0.5636510000000  0.5822050000000  0.4634580000000 1.0
C      1  0.4380740000000  0.5696000000000  0.4900300000000 1.0
C      1  0.5006480000000  0.6458020000000  0.5343370000000 1.0
C      1  0.3875990000000  0.5501110000000  0.5131840000000 1.0
C      1  0.5440210000000  0.4949170000000  0.3861550000000 1.0
C      1  0.5590970000000  0.4063970000000  0.4671860000000 1.0
C      1  0.5037830000000  0.5335470000000  0.5975100000000 1.0
C      1  0.5282760000000  0.5897920000000  0.4569510000000 1.0
C      1  0.4603980000000  0.4427260000000  0.5842780000000 1.0
C      1  0.5067490000000  0.4189030000000  0.4335310000000 1.0
C      1  0.3963970000000  0.5141970000000  0.4823530000000 1.0
C      1  0.4403650000000  0.4889680000000  0.4220230000000 1.0
C      1  0.5866980000000  0.4883390000000  0.5429600000000 1.0
C      1  0.4676000000000  0.4908720000000  0.4648980000000 1.0
C      1  0.5586490000000  0.5805600000000  0.4147210000000 1.0
C      1  0.5596370000000  0.5264780000000  0.5562570000000 1.0
C      1  0.5933320000000  0.5381330000000  0.5245190000000 1.0
C      1  0.4124690000000  0.5539970000000  0.5293750000000 1.0
C      1  0.5152300000000  0.5068770000000  0.5457090000000 1.0
C      1  0.5683470000000  0.5703710000000  0.4901390000000 1.0
C      1  0.4980880000000  0.5477000000000  0.3670010000000 1.0
C      1  0.3917210000000  0.4865050000000  0.5235720000000 1.0
C      1  0.5228440000000  0.5965030000000  0.3860240000000 1.0
C      1  0.5386470000000  0.5334750000000  0.4863870000000 1.0
C      1  0.4807760000000  0.5555980000000  0.4571370000000 1.0
C      1  0.5239870000000  0.5733910000000  0.5738820000000 1.0
C      1  0.4492870000000  0.5415090000000  0.4159790000000 1.0
C      1  0.4162540000000  0.4487220000000  0.4504070000000 1.0
C      1  0.5078550000000  0.4956780000000  0.5705600000000 1.0
C      1  0.5506980000000  0.5268270000000  0.5832570000000 1.0
C      1  0.4414340000000  0.5125900000000  0.5349380000000 1.0
C      1  0.5062660000000  0.5155900000000  0.4340430000000 1.0
C      1  0.4591940000000  0.5092370000000  0.4830210000000 1.0
C      1  0.4818880000000  0.5591100000000  0.3848030000000 1.0
C      1  0.6063260000000  0.4517390000000  0.5069070000000 1.0
C      1  0.4873060000000  0.5004910000000  0.4187170000000 1.0
C      1  0.5843760000000  0.4152440000000  0.4763650000000 1.0
C      1  0.5645070000000  0.5003400000000  0.6223870000000 1.0
C      1  0.4624270000000  0.5053550000000  0.5793280000000 1.0
C      1  0.5181680000000  0.4499140000000  0.5561570000000 1.0
C      1  0.3725900000000  0.5308870000000  0.5287270000000 1.0
C      1  0.5360000000000  0.4153940000000  0.5076050000000 1.0
C      1  0.5637680000000  0.4455710000000  0.5426660000000 1.0
C      1  0.5579220000000  0.5672840000000  0.5373210000000 1.0
C      1  0.4508490000000  0.4188340000000  0.5412030000000 1.0
C      1  0.4005950000000  0.4364740000000  0.5183250000000 1.0
C      1  0.5136170000000  0.5343410000000  0.5352760000000 1.0
C      1  0.4372870000000  0.5173900000000  0.4195700000000 1.0
C      1  0.3902170000000  0.4588740000000  0.5296000000000 1.0
C      1  0.4230180000000  0.4697140000000  0.4343960000000 1.0
C      1  0.4695030000000  0.5895020000000  0.5616550000000 1.0
C      1  0.4154180000000  0.5596260000000  0.4754390000000 1.0
C      1  0.5453880000000  0.4610120000000  0.4994910000000 1.0
C      1  0.4593880000000  0.4677110000000  0.5428150000000 1.0
C      1  0.5396730000000  0.5851220000000  0.5507970000000 1.0
C      1  0.5513820000000  0.4779430000000  0.5803730000000 1.0
C      1  0.5143270000000  0.4645370000000  0.5325330000000 1.0
C      1  0.4640330000000  0.4629090000000  0.4690460000000 1.0
C      1  0.4951940000000  0.5746990000000  0.5673900000000 1.0
C      1  0.4232770000000  0.5134470000000  0.6156170000000 1.0
END
