TITL C-627108-131-1103 -7.17954612846942e-05 125000 -1125.80128780444 0 0 183 (C1) n - 1
REM
REM in /home/nfs/bkarasulu/CARBON/AIRSS/Generating-Clusters/LCBOP/Only-C1/SD-CG/FIRE-CG
REM
REM
REM
REM
REM
REM ./C.cell (11c1c37f851c82e70ff6c80c92926a4b)
REM AIRSS Version 0.9.1 bugfix July 2018 build 013d7b7c2542+ Fri, 06 Jul 2018 19:26:36 +0100
REM compiler GCC version 9.2.1 20190827 (Red Hat 9.2.1-1)
REM options -cpp -mtune=generic -march=x86-64 -g -O0 -fpre-include=/usr/include/finclude/math-vector-fortran.h
REM seed -1823588365 -825173179 -158245532 -194588873 1320092348 -2012141792 296429458 -1430437836 -1369611959 -103217956 -217753553 1121122938 -147820234 -323252890 608155707 -1696432104 -230209621 -1178303488 -1867746373 -864333546 1249103505 586312785 353183010 1422798695 1405194851 -1812518481 199899020 1309178502 -163538095 -1147413493 -1944976432 830108584 -128861533
REM
CELL 1.54180   50.00000   50.00000   50.00000   90.00000   90.00000   90.00000
LATT -1
SFAC C  
C      1  0.3931010000000  0.4872040000000  0.5559810000000 1.0
C      1  0.4287120000000  0.4852780000000  0.4381300000000 1.0
C      1  0.5599270000000  0.5040810000000  0.4677390000000 1.0
C      1  0.5772330000000  0.4830390000000  0.4616640000000 1.0
C      1  0.4825840000000  0.4861270000000  0.4459820000000 1.0
C      1  0.5157240000000  0.5014130000000  0.4898010000000 1.0
C      1  0.5499540000000  0.5596980000000  0.4264480000000 1.0
C      1  0.5123530000000  0.3947730000000  0.4265330000000 1.0
C      1  0.5092890000000  0.4491240000000  0.4569790000000 1.0
C      1  0.4711430000000  0.5909820000000  0.4760760000000 1.0
C      1  0.6042770000000  0.5302400000000  0.4413060000000 1.0
C      1  0.5086760000000  0.4286060000000  0.6286150000000 1.0
C      1  0.6177560000000  0.5356310000000  0.4886370000000 1.0
C      1  0.5484830000000  0.4675760000000  0.5600980000000 1.0
C      1  0.4648170000000  0.4080130000000  0.5239020000000 1.0
C      1  0.5329440000000  0.6106140000000  0.4501400000000 1.0
C      1  0.5765430000000  0.4706290000000  0.4350650000000 1.0
C      1  0.5358810000000  0.6141560000000  0.5071560000000 1.0
C      1  0.5008010000000  0.4463450000000  0.3856930000000 1.0
C      1  0.4411750000000  0.5426370000000  0.5687820000000 1.0
C      1  0.5326990000000  0.4382000000000  0.6223200000000 1.0
C      1  0.5271380000000  0.4562990000000  0.3883930000000 1.0
C      1  0.6183900000000  0.4791400000000  0.5198250000000 1.0
C      1  0.5678470000000  0.4721550000000  0.5070950000000 1.0
C      1  0.5081710000000  0.6110800000000  0.5152150000000 1.0
C      1  0.4389150000000  0.4132190000000  0.4157200000000 1.0
C      1  0.4850300000000  0.5669790000000  0.6089720000000 1.0
C      1  0.4039090000000  0.4291570000000  0.4525300000000 1.0
C      1  0.4679010000000  0.5094640000000  0.5492350000000 1.0
C      1  0.4843770000000  0.3886700000000  0.5161870000000 1.0
C      1  0.3956890000000  0.5606720000000  0.5089570000000 1.0
C      1  0.5346280000000  0.5903620000000  0.4685950000000 1.0
C      1  0.5633740000000  0.5268860000000  0.4816710000000 1.0
C      1  0.5297770000000  0.4654480000000  0.4618830000000 1.0
C      1  0.5627810000000  0.5216210000000  0.3792930000000 1.0
C      1  0.4276090000000  0.4691960000000  0.5865620000000 1.0
C      1  0.3803240000000  0.5327310000000  0.4702540000000 1.0
C      1  0.5464990000000  0.4400380000000  0.4005170000000 1.0
C      1  0.4771140000000  0.5842150000000  0.4489300000000 1.0
C      1  0.4032120000000  0.4424640000000  0.4763650000000 1.0
C      1  0.5003040000000  0.5248540000000  0.4847080000000 1.0
C      1  0.5733250000000  0.4958720000000  0.5214730000000 1.0
C      1  0.4600600000000  0.5574780000000  0.6201570000000 1.0
C      1  0.5774110000000  0.4907820000000  0.4143800000000 1.0
C      1  0.5990270000000  0.5497830000000  0.5310520000000 1.0
C      1  0.5321230000000  0.4949760000000  0.4648410000000 1.0
C      1  0.4858050000000  0.5907820000000  0.4029290000000 1.0
C      1  0.4739420000000  0.5242970000000  0.4751740000000 1.0
C      1  0.3732900000000  0.5168080000000  0.5176920000000 1.0
C      1  0.4997850000000  0.5570560000000  0.5159240000000 1.0
C      1  0.5453750000000  0.3741040000000  0.5370950000000 1.0
C      1  0.4168410000000  0.4188080000000  0.4307460000000 1.0
C      1  0.5068390000000  0.4067520000000  0.5768220000000 1.0
C      1  0.5111840000000  0.4268640000000  0.5577960000000 1.0
C      1  0.5292560000000  0.5235530000000  0.5417490000000 1.0
C      1  0.3853870000000  0.4921320000000  0.5280370000000 1.0
C      1  0.5838760000000  0.5654370000000  0.4699320000000 1.0
C      1  0.4864510000000  0.3961880000000  0.4191490000000 1.0
C      1  0.4996020000000  0.5665070000000  0.4469400000000 1.0
C      1  0.4959940000000  0.3686350000000  0.5324130000000 1.0
C      1  0.5192640000000  0.3688880000000  0.5487280000000 1.0
C      1  0.5765260000000  0.5675220000000  0.5241830000000 1.0
C      1  0.3963550000000  0.5191030000000  0.4200110000000 1.0
C      1  0.4133350000000  0.5809550000000  0.5797130000000 1.0
C      1  0.6086360000000  0.5288520000000  0.5142280000000 1.0
C      1  0.5105700000000  0.5508980000000  0.4904700000000 1.0
C      1  0.4393880000000  0.4028710000000  0.4721210000000 1.0
C      1  0.4840720000000  0.5916630000000  0.5566300000000 1.0
C      1  0.6096370000000  0.4315620000000  0.5058220000000 1.0
C      1  0.4978580000000  0.5371170000000  0.4006310000000 1.0
C      1  0.5372640000000  0.5444360000000  0.5832590000000 1.0
C      1  0.4153910000000  0.5766200000000  0.5188140000000 1.0
C      1  0.4463270000000  0.5341690000000  0.6203880000000 1.0
C      1  0.5664060000000  0.4461400000000  0.5509310000000 1.0
C      1  0.3768170000000  0.5082530000000  0.3519250000000 1.0
C      1  0.5838590000000  0.5404970000000  0.5768550000000 1.0
C      1  0.5601450000000  0.5555120000000  0.5709850000000 1.0
C      1  0.4144560000000  0.4576360000000  0.4980050000000 1.0
C      1  0.4094380000000  0.5113700000000  0.3951240000000 1.0
C      1  0.4999610000000  0.5314090000000  0.6397460000000 1.0
C      1  0.5766410000000  0.4635950000000  0.4819750000000 1.0
C      1  0.5524580000000  0.5130520000000  0.5298970000000 1.0
C      1  0.4838180000000  0.4586430000000  0.4512650000000 1.0
C      1  0.5103680000000  0.4845110000000  0.5130360000000 1.0
C      1  0.5155480000000  0.5296640000000  0.3784420000000 1.0
C      1  0.6263300000000  0.4519340000000  0.5167330000000 1.0
C      1  0.4658120000000  0.5828420000000  0.4224960000000 1.0
C      1  0.3983530000000  0.5065910000000  0.5784650000000 1.0
C      1  0.6014500000000  0.5019660000000  0.5207710000000 1.0
C      1  0.5774760000000  0.4367550000000  0.4707180000000 1.0
C      1  0.5793940000000  0.5168970000000  0.5921660000000 1.0
C      1  0.5724510000000  0.5766970000000  0.4959920000000 1.0
C      1  0.5132260000000  0.5898860000000  0.4004410000000 1.0
C      1  0.3863740000000  0.5261480000000  0.4444680000000 1.0
C      1  0.4635230000000  0.4404470000000  0.6082110000000 1.0
C      1  0.4413450000000  0.5185400000000  0.5525780000000 1.0
C      1  0.5099210000000  0.5065050000000  0.6282290000000 1.0
C      1  0.3951210000000  0.5345130000000  0.5789360000000 1.0
C      1  0.5171210000000  0.5681590000000  0.4692320000000 1.0
C      1  0.5592030000000  0.4959330000000  0.3918360000000 1.0
C      1  0.5232770000000  0.4712330000000  0.5437950000000 1.0
C      1  0.5336000000000  0.4835370000000  0.3830090000000 1.0
C      1  0.5323770000000  0.5438090000000  0.6109940000000 1.0
C      1  0.5688710000000  0.5682990000000  0.4455600000000 1.0
C      1  0.4665570000000  0.4133030000000  0.4080300000000 1.0
C      1  0.4402480000000  0.5366660000000  0.4299360000000 1.0
C      1  0.5486740000000  0.3850540000000  0.5091490000000 1.0
C      1  0.4628140000000  0.5854820000000  0.5368580000000 1.0
C      1  0.6046600000000  0.5453370000000  0.4658600000000 1.0
C      1  0.4581480000000  0.4356300000000  0.5251600000000 1.0
C      1  0.4198870000000  0.4967230000000  0.5958170000000 1.0
C      1  0.5062420000000  0.5493720000000  0.4253390000000 1.0
C      1  0.4531050000000  0.5420830000000  0.4830060000000 1.0
C      1  0.4827890000000  0.4286550000000  0.6223140000000 1.0
C      1  0.4795450000000  0.4537100000000  0.5342480000000 1.0
C      1  0.5084400000000  0.5999370000000  0.5427620000000 1.0
C      1  0.5573660000000  0.5009130000000  0.6014480000000 1.0
C      1  0.3809360000000  0.5378630000000  0.4988840000000 1.0
C      1  0.5608260000000  0.4192180000000  0.5389620000000 1.0
C      1  0.5263120000000  0.3857920000000  0.4918090000000 1.0
C      1  0.5373600000000  0.5794200000000  0.4085550000000 1.0
C      1  0.4098310000000  0.4641850000000  0.5643260000000 1.0
C      1  0.5475690000000  0.4540120000000  0.6069880000000 1.0
C      1  0.4845430000000  0.4934730000000  0.3676020000000 1.0
C      1  0.5123740000000  0.5009240000000  0.3716740000000 1.0
C      1  0.5375490000000  0.5146590000000  0.6187050000000 1.0
C      1  0.4374100000000  0.5050810000000  0.3899880000000 1.0
C      1  0.5056800000000  0.5381250000000  0.5354320000000 1.0
C      1  0.5667510000000  0.4087130000000  0.5099640000000 1.0
C      1  0.4822470000000  0.5735510000000  0.5802820000000 1.0
C      1  0.5860340000000  0.4210020000000  0.4932390000000 1.0
C      1  0.4691400000000  0.5503300000000  0.5690260000000 1.0
C      1  0.5016350000000  0.4524730000000  0.5516300000000 1.0
C      1  0.5537970000000  0.4269650000000  0.4245030000000 1.0
C      1  0.4419780000000  0.5102970000000  0.4414320000000 1.0
C      1  0.5239130000000  0.5093260000000  0.4387550000000 1.0
C      1  0.5420520000000  0.5383720000000  0.3737230000000 1.0
C      1  0.4224460000000  0.5982500000000  0.5611120000000 1.0
C      1  0.5635150000000  0.3917200000000  0.5532950000000 1.0
C      1  0.4211160000000  0.5076330000000  0.5044870000000 1.0
C      1  0.4877810000000  0.6086010000000  0.4937650000000 1.0
C      1  0.4291770000000  0.5274850000000  0.4864010000000 1.0
C      1  0.4163430000000  0.5531270000000  0.5779290000000 1.0
C      1  0.5575320000000  0.5724680000000  0.5474000000000 1.0
C      1  0.4340940000000  0.5894490000000  0.5368300000000 1.0
C      1  0.4659720000000  0.4897720000000  0.6066580000000 1.0
C      1  0.5344920000000  0.5894180000000  0.5489880000000 1.0
C      1  0.5323340000000  0.5365950000000  0.4313120000000 1.0
C      1  0.5719180000000  0.4412740000000  0.4416250000000 1.0
C      1  0.5516520000000  0.4752110000000  0.5886470000000 1.0
C      1  0.4937760000000  0.4966910000000  0.6061630000000 1.0
C      1  0.5368220000000  0.4052110000000  0.4308990000000 1.0
C      1  0.4414280000000  0.4521440000000  0.5064090000000 1.0
C      1  0.5263640000000  0.5213430000000  0.5700540000000 1.0
C      1  0.4779710000000  0.4337200000000  0.3919730000000 1.0
C      1  0.4605260000000  0.5683040000000  0.4910640000000 1.0
C      1  0.4653960000000  0.5052330000000  0.4568930000000 1.0
C      1  0.4844470000000  0.5321960000000  0.5526990000000 1.0
C      1  0.6044370000000  0.5459920000000  0.5587130000000 1.0
C      1  0.5943950000000  0.5131740000000  0.4226290000000 1.0
C      1  0.4536130000000  0.4643650000000  0.5980410000000 1.0
C      1  0.5074210000000  0.5540070000000  0.6221580000000 1.0
C      1  0.5504320000000  0.5952680000000  0.4917230000000 1.0
C      1  0.4429930000000  0.5083920000000  0.6095570000000 1.0
C      1  0.4376640000000  0.4603150000000  0.4435910000000 1.0
C      1  0.4857740000000  0.4078620000000  0.4723100000000 1.0
C      1  0.4472450000000  0.5611180000000  0.4202960000000 1.0
C      1  0.4657300000000  0.5021660000000  0.3879930000000 1.0
C      1  0.4607320000000  0.4186070000000  0.4651410000000 1.0
C      1  0.5140280000000  0.3806820000000  0.5742140000000 1.0
C      1  0.5073920000000  0.5034190000000  0.5818690000000 1.0
C      1  0.6516300000000  0.4449060000000  0.5247930000000 1.0
C      1  0.4595060000000  0.4445930000000  0.4529900000000 1.0
C      1  0.4990750000000  0.4988510000000  0.4274000000000 1.0
C      1  0.4840430000000  0.4738800000000  0.5136510000000 1.0
C      1  0.4838250000000  0.5131340000000  0.4077100000000 1.0
C      1  0.4603880000000  0.4729810000000  0.4983290000000 1.0
C      1  0.4991690000000  0.3935390000000  0.4920130000000 1.0
C      1  0.4734550000000  0.5688840000000  0.5163440000000 1.0
C      1  0.3924850000000  0.5097370000000  0.3726980000000 1.0
C      1  0.5304430000000  0.4204690000000  0.5382250000000 1.0
C      1  0.4254570000000  0.5163660000000  0.5307570000000 1.0
C      1  0.4047580000000  0.4833410000000  0.5067800000000 1.0
END
