TITL C-627108-131-1841 151178.848447738 125000 -778.556636733496 0 0 128 (C1) n - 1
REM
REM in /home/nfs/bkarasulu/CARBON/AIRSS/Generating-Clusters/LCBOP/Only-C1/SD-CG/FIRE-CG
REM
REM
REM
REM
REM
REM ./C.cell (11c1c37f851c82e70ff6c80c92926a4b)
REM AIRSS Version 0.9.1 bugfix July 2018 build 013d7b7c2542+ Fri, 06 Jul 2018 19:26:36 +0100
REM compiler GCC version 9.2.1 20190827 (Red Hat 9.2.1-1)
REM options -cpp -mtune=generic -march=x86-64 -g -O0 -fpre-include=/usr/include/finclude/math-vector-fortran.h
REM seed -1618018390 -576344482 392476876 614926254 -233935118 -278953180 -634484696 145525878 2095470268 1053399405 -1879589765 -1793151158 182374798 -992571933 1659059425 -892491068 1718485591 -770180247 -630491804 1380973630 -1758802582 1211443377 328311524 -486471774 -1974720509 -1478795089 -173130378 756239247 1803928785 1861840936 -1813921399 -1146295342 -1243822407
REM
CELL 1.54180   50.00000   50.00000   50.00000   90.00000   90.00000   90.00000
LATT -1
SFAC C  
C      1  0.4979150000000  0.5624790000000  0.5233240000000 1.0
C      1  0.4558350000000  0.5423460000000  0.5318790000000 1.0
C      1  0.5490900000000  0.4621720000000  0.5061060000000 1.0
C      1  0.3889560000000  0.5746360000000  0.5498870000000 1.0
C      1  0.4732900000000  0.5191800000000  0.4924610000000 1.0
C      1  0.5748420000000  0.5864350000000  0.4890450000000 1.0
C      1  0.5141300000000  0.4243880000000  0.5575160000000 1.0
C      1  0.4868150000000  0.4531590000000  0.4723980000000 1.0
C      1  0.4921360000000  0.4366800000000  0.4141740000000 1.0
C      1  0.4758070000000  0.5060210000000  0.4677160000000 1.0
C      1  0.5682220000000  0.4456800000000  0.4664680000000 1.0
C      1  0.5045250000000  0.4637840000000  0.5158900000000 1.0
C      1  0.5793650000000  0.5282890000000  0.4341570000000 1.0
C      1  0.3956960000000  0.4439460000000  0.4993380000000 1.0
C      1  0.4096240000000  0.4411760000000  0.5254520000000 1.0
C      1  0.4062910000000  0.4615630000000  0.5458130000000 1.0
C      1  0.5365380000000  0.4104340000000  0.5527930000000 1.0
C      1  0.4483130000000  0.4338320000000  0.4338550000000 1.0
C      1  0.4683500000000  0.4552300000000  0.4914810000000 1.0
C      1  0.4353600000000  0.5514470000000  0.4388450000000 1.0
C      1  0.4222680000000  0.5369700000000  0.4965640000000 1.0
C      1  0.4667050000000  0.4493180000000  0.4178560000000 1.0
C      1  0.5831110000000  0.5029380000000  0.4473530000000 1.0
C      1  0.4049490000000  0.5330650000000  0.5200340000000 1.0
C      1  0.5374750000000  0.5408340000000  0.5087010000000 1.0
C      1  0.5591310000000  0.4398690000000  0.6150000000000 1.0
C      1  0.5055400000000  0.5962280000000  0.4743060000000 1.0
C      1  0.5149000000000  0.4313680000000  0.4301960000000 1.0
C      1  0.5258520000000  0.4548070000000  0.4427770000000 1.0
C      1  0.4783710000000  0.5548480000000  0.5424550000000 1.0
C      1  0.5282590000000  0.6015570000000  0.4910290000000 1.0
C      1  0.4129110000000  0.4043520000000  0.4754750000000 1.0
C      1  0.5405340000000  0.4892580000000  0.5107520000000 1.0
C      1  0.4615950000000  0.4695260000000  0.5891650000000 1.0
C      1  0.5255640000000  0.4450040000000  0.5081860000000 1.0
C      1  0.4983490000000  0.5657670000000  0.4324150000000 1.0
C      1  0.5928910000000  0.4446960000000  0.5781290000000 1.0
C      1  0.5034700000000  0.4955650000000  0.5494740000000 1.0
C      1  0.5539270000000  0.4589280000000  0.4457360000000 1.0
C      1  0.5845420000000  0.5372250000000  0.5024400000000 1.0
C      1  0.5070380000000  0.4509870000000  0.5642650000000 1.0
C      1  0.4153600000000  0.4886430000000  0.5487880000000 1.0
C      1  0.5850760000000  0.4252960000000  0.5592310000000 1.0
C      1  0.4544350000000  0.4733560000000  0.5077950000000 1.0
C      1  0.5509050000000  0.5599370000000  0.5639710000000 1.0
C      1  0.3980350000000  0.4282230000000  0.4745880000000 1.0
C      1  0.4512820000000  0.5352190000000  0.5039210000000 1.0
C      1  0.4036920000000  0.4461040000000  0.4518110000000 1.0
C      1  0.4091930000000  0.5334460000000  0.4708530000000 1.0
C      1  0.5846900000000  0.5372520000000  0.5316190000000 1.0
C      1  0.5348380000000  0.4473080000000  0.6064720000000 1.0
C      1  0.4348120000000  0.4881550000000  0.4939570000000 1.0
C      1  0.4814110000000  0.5453710000000  0.4283820000000 1.0
C      1  0.6025800000000  0.5215220000000  0.4890580000000 1.0
C      1  0.5690580000000  0.5607350000000  0.5404200000000 1.0
C      1  0.5103060000000  0.5403230000000  0.5111090000000 1.0
C      1  0.5916920000000  0.5096230000000  0.5403760000000 1.0
C      1  0.5807780000000  0.5715900000000  0.4176420000000 1.0
C      1  0.3937220000000  0.4713770000000  0.4889280000000 1.0
C      1  0.4318990000000  0.4895800000000  0.4641530000000 1.0
C      1  0.4079410000000  0.4899250000000  0.5045060000000 1.0
C      1  0.4041810000000  0.5056000000000  0.5275160000000 1.0
C      1  0.5542150000000  0.6048640000000  0.4785780000000 1.0
C      1  0.5176930000000  0.5134240000000  0.4468310000000 1.0
C      1  0.4428400000000  0.5260970000000  0.5500840000000 1.0
C      1  0.4889790000000  0.5225260000000  0.5806390000000 1.0
C      1  0.3929710000000  0.5539700000000  0.5337830000000 1.0
C      1  0.5221650000000  0.5644330000000  0.5610880000000 1.0
C      1  0.5727460000000  0.4584110000000  0.4913310000000 1.0
C      1  0.4545800000000  0.5914710000000  0.4680940000000 1.0
C      1  0.4917820000000  0.4686040000000  0.5430300000000 1.0
C      1  0.5843210000000  0.4953180000000  0.5646480000000 1.0
C      1  0.5128340000000  0.5022850000000  0.3984740000000 1.0
C      1  0.5236530000000  0.4627500000000  0.5858010000000 1.0
C      1  0.5054690000000  0.4682400000000  0.4577230000000 1.0
C      1  0.4622280000000  0.4775760000000  0.5355190000000 1.0
C      1  0.4574540000000  0.5331590000000  0.4366540000000 1.0
C      1  0.4629670000000  0.4776940000000  0.4093670000000 1.0
C      1  0.4977630000000  0.5160140000000  0.5060620000000 1.0
C      1  0.4540530000000  0.4460170000000  0.5770030000000 1.0
C      1  0.4369350000000  0.4923490000000  0.4116700000000 1.0
C      1  0.5594700000000  0.4977700000000  0.5788520000000 1.0
C      1  0.5617980000000  0.5567690000000  0.5895410000000 1.0
C      1  0.5657950000000  0.5564470000000  0.3999260000000 1.0
C      1  0.4062940000000  0.4732590000000  0.4613640000000 1.0
C      1  0.5355850000000  0.5916340000000  0.5179200000000 1.0
C      1  0.5208320000000  0.4058640000000  0.4730360000000 1.0
C      1  0.5887340000000  0.5719240000000  0.4675310000000 1.0
C      1  0.4409590000000  0.4073360000000  0.4800580000000 1.0
C      1  0.4466980000000  0.4305540000000  0.5557040000000 1.0
C      1  0.5639820000000  0.5811490000000  0.5182670000000 1.0
C      1  0.5982850000000  0.4712420000000  0.5704190000000 1.0
C      1  0.4342110000000  0.4257640000000  0.5300070000000 1.0
C      1  0.4398400000000  0.5762270000000  0.4514630000000 1.0
C      1  0.5171440000000  0.5797530000000  0.5356570000000 1.0
C      1  0.4943060000000  0.5491150000000  0.5675180000000 1.0
C      1  0.5096860000000  0.5833780000000  0.4492050000000 1.0
C      1  0.5679430000000  0.4814980000000  0.4366300000000 1.0
C      1  0.5874480000000  0.5571120000000  0.4422780000000 1.0
C      1  0.3894900000000  0.5944610000000  0.5668140000000 1.0
C      1  0.4205440000000  0.4381790000000  0.4309160000000 1.0
C      1  0.5925230000000  0.4786650000000  0.4940600000000 1.0
C      1  0.5325210000000  0.5348020000000  0.4496240000000 1.0
C      1  0.4462960000000  0.4123370000000  0.5077640000000 1.0
C      1  0.5588240000000  0.5412710000000  0.4914460000000 1.0
C      1  0.5838710000000  0.4400380000000  0.6045220000000 1.0
C      1  0.5114860000000  0.5061920000000  0.5741640000000 1.0
C      1  0.5376990000000  0.5137970000000  0.4012520000000 1.0
C      1  0.5705340000000  0.5538860000000  0.6139230000000 1.0
C      1  0.5230860000000  0.4200710000000  0.4957240000000 1.0
C      1  0.4875750000000  0.4917180000000  0.4011540000000 1.0
C      1  0.4996110000000  0.4955490000000  0.4568640000000 1.0
C      1  0.5956900000000  0.4995270000000  0.4729030000000 1.0
C      1  0.5606700000000  0.5293520000000  0.4095910000000 1.0
C      1  0.5324080000000  0.4903610000000  0.5840120000000 1.0
C      1  0.5632290000000  0.4117520000000  0.5517250000000 1.0
C      1  0.4525730000000  0.5075690000000  0.4518840000000 1.0
C      1  0.5179050000000  0.4082350000000  0.4462790000000 1.0
C      1  0.5997170000000  0.4927700000000  0.5178010000000 1.0
C      1  0.4134450000000  0.5324670000000  0.4420280000000 1.0
C      1  0.5121380000000  0.4912280000000  0.5068790000000 1.0
C      1  0.5504780000000  0.5037320000000  0.5311620000000 1.0
C      1  0.4175510000000  0.5097200000000  0.4226740000000 1.0
C      1  0.4777950000000  0.5993970000000  0.4794820000000 1.0
C      1  0.4631040000000  0.4973770000000  0.5804400000000 1.0
C      1  0.4547330000000  0.4169250000000  0.4565800000000 1.0
C      1  0.4448680000000  0.4968400000000  0.5550470000000 1.0
C      1  0.5506070000000  0.5452100000000  0.4655300000000 1.0
END
