TITL C-627106-156-1117 82491.9430156773 125000 -1195.7456339379 0 0 196 (C1) n - 1
REM
REM in /home/nfs/bkarasulu/CARBON/AIRSS/Generating-Clusters/LCBOP/Only-C1/SD-CG/FIRE-CG
REM
REM
REM
REM
REM
REM ./C.cell (11c1c37f851c82e70ff6c80c92926a4b)
REM AIRSS Version 0.9.1 bugfix July 2018 build 013d7b7c2542+ Fri, 06 Jul 2018 19:26:36 +0100
REM compiler GCC version 9.2.1 20190827 (Red Hat 9.2.1-1)
REM options -cpp -mtune=generic -march=x86-64 -g -O0 -fpre-include=/usr/include/finclude/math-vector-fortran.h
REM seed 540872957 -676084640 276935356 1612080611 798645839 512699400 639364918 -855655168 -1576013730 1289206438 -80939503 -1167051959 -1216321213 689459593 37448649 1440497292 -1286827991 -19940037 1560639015 1997207376 -1808736225 -9413384 1722122953 -1060397263 238468402 1237068040 -976102779 -212599014 677707069 -764193703 -2117952436 856838704 595889627
REM
CELL 1.54180   50.00000   50.00000   50.00000   90.00000   90.00000   90.00000
LATT -1
SFAC C  
C      1  0.3859170000000  0.4286520000000  0.5119470000000 1.0
C      1  0.4295140000000  0.4964820000000  0.4900040000000 1.0
C      1  0.5637560000000  0.4731390000000  0.6103720000000 1.0
C      1  0.4591910000000  0.5343850000000  0.5684610000000 1.0
C      1  0.5494050000000  0.4598460000000  0.4834470000000 1.0
C      1  0.4250720000000  0.5471940000000  0.4524610000000 1.0
C      1  0.5027420000000  0.5865970000000  0.5120040000000 1.0
C      1  0.5929810000000  0.4706310000000  0.4407690000000 1.0
C      1  0.4706140000000  0.4342630000000  0.5839850000000 1.0
C      1  0.5384570000000  0.4770550000000  0.5031260000000 1.0
C      1  0.5201530000000  0.4928710000000  0.6089810000000 1.0
C      1  0.4824610000000  0.3860870000000  0.5815250000000 1.0
C      1  0.4779680000000  0.3929010000000  0.4427460000000 1.0
C      1  0.6004710000000  0.5497230000000  0.5448190000000 1.0
C      1  0.3825690000000  0.4818460000000  0.4984450000000 1.0
C      1  0.5800310000000  0.5043970000000  0.5275790000000 1.0
C      1  0.5490360000000  0.5410120000000  0.4007090000000 1.0
C      1  0.4637080000000  0.4677960000000  0.4764770000000 1.0
C      1  0.5898030000000  0.4822170000000  0.6009660000000 1.0
C      1  0.4184040000000  0.4899130000000  0.5906410000000 1.0
C      1  0.6260420000000  0.5531080000000  0.5409530000000 1.0
C      1  0.4998380000000  0.4596730000000  0.3994740000000 1.0
C      1  0.5799920000000  0.4681910000000  0.5547670000000 1.0
C      1  0.5377420000000  0.4200600000000  0.6006390000000 1.0
C      1  0.5681130000000  0.4197100000000  0.4410370000000 1.0
C      1  0.4557810000000  0.5096820000000  0.4405110000000 1.0
C      1  0.3809110000000  0.4957160000000  0.5246870000000 1.0
C      1  0.5020740000000  0.5118450000000  0.4129040000000 1.0
C      1  0.5372270000000  0.5224230000000  0.4649080000000 1.0
C      1  0.4506850000000  0.3894220000000  0.5108000000000 1.0
C      1  0.5599260000000  0.5518540000000  0.4254240000000 1.0
C      1  0.5072140000000  0.4612320000000  0.5620500000000 1.0
C      1  0.4808630000000  0.4320000000000  0.5328820000000 1.0
C      1  0.5489630000000  0.4797290000000  0.4351890000000 1.0
C      1  0.4657430000000  0.4069320000000  0.4650380000000 1.0
C      1  0.4784940000000  0.5171620000000  0.3719730000000 1.0
C      1  0.4807870000000  0.3804300000000  0.5133150000000 1.0
C      1  0.4994900000000  0.4809580000000  0.5406670000000 1.0
C      1  0.4841690000000  0.5784000000000  0.6132380000000 1.0
C      1  0.6102010000000  0.4627890000000  0.4611250000000 1.0
C      1  0.4677370000000  0.4524920000000  0.6052040000000 1.0
C      1  0.5894660000000  0.4962010000000  0.5539780000000 1.0
C      1  0.5650500000000  0.4145820000000  0.4868940000000 1.0
C      1  0.4102910000000  0.5592120000000  0.5701780000000 1.0
C      1  0.5934140000000  0.4448800000000  0.5475390000000 1.0
C      1  0.5189850000000  0.6094100000000  0.5139280000000 1.0
C      1  0.4691970000000  0.4848940000000  0.4316650000000 1.0
C      1  0.3876230000000  0.5523080000000  0.4800360000000 1.0
C      1  0.5018330000000  0.5097830000000  0.5001130000000 1.0
C      1  0.5910560000000  0.5850840000000  0.4731480000000 1.0
C      1  0.5346690000000  0.4213860000000  0.5511870000000 1.0
C      1  0.5437260000000  0.4325160000000  0.4907540000000 1.0
C      1  0.5833480000000  0.4201400000000  0.4657890000000 1.0
C      1  0.6233440000000  0.5301270000000  0.4429690000000 1.0
C      1  0.5024420000000  0.3883860000000  0.5350800000000 1.0
C      1  0.5338630000000  0.4492360000000  0.5542000000000 1.0
C      1  0.4899740000000  0.5743390000000  0.4893830000000 1.0
C      1  0.3910890000000  0.4526650000000  0.4940260000000 1.0
C      1  0.4290720000000  0.5190680000000  0.4492360000000 1.0
C      1  0.4903580000000  0.4849030000000  0.4117310000000 1.0
C      1  0.4579130000000  0.4166030000000  0.3997500000000 1.0
C      1  0.5279780000000  0.4070830000000  0.5755470000000 1.0
C      1  0.5292650000000  0.6123200000000  0.5407630000000 1.0
C      1  0.4846780000000  0.4250880000000  0.4748790000000 1.0
C      1  0.5211320000000  0.5484630000000  0.3929110000000 1.0
C      1  0.4735930000000  0.6143460000000  0.4623720000000 1.0
C      1  0.5080330000000  0.5625420000000  0.4719730000000 1.0
C      1  0.5740340000000  0.5447560000000  0.4984240000000 1.0
C      1  0.4749200000000  0.5283830000000  0.4506330000000 1.0
C      1  0.6047400000000  0.4318090000000  0.5269570000000 1.0
C      1  0.4909710000000  0.5865770000000  0.4230800000000 1.0
C      1  0.5222520000000  0.4603090000000  0.3802810000000 1.0
C      1  0.5671390000000  0.4700670000000  0.4532480000000 1.0
C      1  0.5376570000000  0.5997260000000  0.5638870000000 1.0
C      1  0.4552690000000  0.5141540000000  0.5216840000000 1.0
C      1  0.4987840000000  0.4870750000000  0.6260340000000 1.0
C      1  0.4778760000000  0.4705420000000  0.6221810000000 1.0
C      1  0.4454370000000  0.5609180000000  0.4084580000000 1.0
C      1  0.4846190000000  0.4414800000000  0.5600610000000 1.0
C      1  0.5483490000000  0.4998940000000  0.6117830000000 1.0
C      1  0.6000300000000  0.4901780000000  0.4206060000000 1.0
C      1  0.3862180000000  0.5480200000000  0.5295170000000 1.0
C      1  0.4637020000000  0.5781240000000  0.4186100000000 1.0
C      1  0.5245220000000  0.4705760000000  0.4409870000000 1.0
C      1  0.5415180000000  0.5424240000000  0.5150020000000 1.0
C      1  0.5649280000000  0.5171300000000  0.4604530000000 1.0
C      1  0.4916640000000  0.3717660000000  0.4584530000000 1.0
C      1  0.5217580000000  0.4423420000000  0.4449350000000 1.0
C      1  0.4152410000000  0.4468660000000  0.4769720000000 1.0
C      1  0.5075980000000  0.5395350000000  0.5679770000000 1.0
C      1  0.5921650000000  0.5576510000000  0.4777220000000 1.0
C      1  0.5301360000000  0.4218580000000  0.4056150000000 1.0
C      1  0.3891590000000  0.4925800000000  0.5525850000000 1.0
C      1  0.5001280000000  0.5302610000000  0.4363270000000 1.0
C      1  0.4586940000000  0.6123530000000  0.5132380000000 1.0
C      1  0.4626940000000  0.5660850000000  0.6247460000000 1.0
C      1  0.5024290000000  0.5254750000000  0.3875840000000 1.0
C      1  0.5372380000000  0.4960220000000  0.5651700000000 1.0
C      1  0.6213390000000  0.4700040000000  0.5036870000000 1.0
C      1  0.5635790000000  0.5178590000000  0.3920790000000 1.0
C      1  0.4962640000000  0.6045930000000  0.4468740000000 1.0
C      1  0.4720920000000  0.5158540000000  0.4977980000000 1.0
C      1  0.5168820000000  0.4829390000000  0.5825480000000 1.0
C      1  0.4249240000000  0.4468430000000  0.4138270000000 1.0
C      1  0.4982570000000  0.5699030000000  0.5657500000000 1.0
C      1  0.4634880000000  0.5621170000000  0.4869160000000 1.0
C      1  0.3864400000000  0.5023110000000  0.4762190000000 1.0
C      1  0.6058990000000  0.4365850000000  0.4741150000000 1.0
C      1  0.5867320000000  0.5195610000000  0.5047930000000 1.0
C      1  0.4094420000000  0.5594050000000  0.5411930000000 1.0
C      1  0.4658800000000  0.5970730000000  0.5349550000000 1.0
C      1  0.4152900000000  0.5589070000000  0.4768460000000 1.0
C      1  0.4447490000000  0.5321360000000  0.5933810000000 1.0
C      1  0.4816420000000  0.4693630000000  0.4537850000000 1.0
C      1  0.4347950000000  0.4315020000000  0.5187710000000 1.0
C      1  0.4595520000000  0.5391340000000  0.3685780000000 1.0
C      1  0.4141180000000  0.5042370000000  0.4683950000000 1.0
C      1  0.5115360000000  0.5355610000000  0.5142140000000 1.0
C      1  0.4947830000000  0.4414390000000  0.4544510000000 1.0
C      1  0.5617530000000  0.5857680000000  0.5728760000000 1.0
C      1  0.3999000000000  0.5333480000000  0.5812110000000 1.0
C      1  0.5202050000000  0.4253170000000  0.5052600000000 1.0
C      1  0.5217510000000  0.6088740000000  0.4615150000000 1.0
C      1  0.5414420000000  0.4248970000000  0.4319180000000 1.0
C      1  0.4896660000000  0.5773330000000  0.5369840000000 1.0
C      1  0.5389830000000  0.4384390000000  0.3835820000000 1.0
C      1  0.4549720000000  0.4945850000000  0.5432020000000 1.0
C      1  0.5047760000000  0.4823050000000  0.5117290000000 1.0
C      1  0.4849410000000  0.5215050000000  0.5687930000000 1.0
C      1  0.4242830000000  0.4689360000000  0.4316500000000 1.0
C      1  0.5007310000000  0.4290950000000  0.4080620000000 1.0
C      1  0.4857360000000  0.5488430000000  0.5278330000000 1.0
C      1  0.4320750000000  0.4627400000000  0.4598800000000 1.0
C      1  0.4583050000000  0.4942490000000  0.3799210000000 1.0
C      1  0.5667200000000  0.5243590000000  0.5957550000000 1.0
C      1  0.4335090000000  0.5580970000000  0.5255590000000 1.0
C      1  0.4816740000000  0.5835370000000  0.5853560000000 1.0
C      1  0.3754790000000  0.5242710000000  0.5225730000000 1.0
C      1  0.4410370000000  0.5388980000000  0.3911770000000 1.0
C      1  0.5517740000000  0.4462260000000  0.6051740000000 1.0
C      1  0.5766980000000  0.5352300000000  0.4413650000000 1.0
C      1  0.4319490000000  0.4759560000000  0.5059140000000 1.0
C      1  0.4366970000000  0.5094420000000  0.3957090000000 1.0
C      1  0.4360360000000  0.5643160000000  0.4970040000000 1.0
C      1  0.5671380000000  0.5991380000000  0.4771320000000 1.0
C      1  0.4422250000000  0.5568340000000  0.6076220000000 1.0
C      1  0.5324920000000  0.4057290000000  0.6239000000000 1.0
C      1  0.5428530000000  0.5674930000000  0.4424660000000 1.0
C      1  0.4286360000000  0.4042080000000  0.5274250000000 1.0
C      1  0.4451190000000  0.4416110000000  0.3946340000000 1.0
C      1  0.5818680000000  0.4995970000000  0.4004980000000 1.0
C      1  0.5671470000000  0.5562500000000  0.5799840000000 1.0
C      1  0.6215950000000  0.5078220000000  0.4274550000000 1.0
C      1  0.4561450000000  0.5407700000000  0.5365130000000 1.0
C      1  0.5160830000000  0.5056410000000  0.4741460000000 1.0
C      1  0.4910820000000  0.4350100000000  0.5027940000000 1.0
C      1  0.5499480000000  0.5381950000000  0.5418230000000 1.0
C      1  0.4665370000000  0.4067100000000  0.5884020000000 1.0
C      1  0.5095920000000  0.5728560000000  0.4049500000000 1.0
C      1  0.5900840000000  0.5041430000000  0.4811410000000 1.0
C      1  0.5232280000000  0.4086130000000  0.5279240000000 1.0
C      1  0.4830610000000  0.4642820000000  0.4984880000000 1.0
C      1  0.6140540000000  0.4417220000000  0.5024780000000 1.0
C      1  0.3809330000000  0.5157540000000  0.5689190000000 1.0
C      1  0.5563630000000  0.4904670000000  0.5190410000000 1.0
C      1  0.4536810000000  0.5900310000000  0.5783040000000 1.0
C      1  0.4223210000000  0.4932660000000  0.4150480000000 1.0
C      1  0.4911430000000  0.3700750000000  0.4866690000000 1.0
C      1  0.5740730000000  0.5470280000000  0.5532420000000 1.0
C      1  0.5320550000000  0.5246680000000  0.5595820000000 1.0
C      1  0.6109590000000  0.4842580000000  0.4811800000000 1.0
C      1  0.4453310000000  0.4026720000000  0.4834690000000 1.0
C      1  0.3988990000000  0.4062320000000  0.5242140000000 1.0
C      1  0.6011870000000  0.5435820000000  0.4538530000000 1.0
C      1  0.5687310000000  0.6096810000000  0.5039020000000 1.0
C      1  0.4619760000000  0.6178200000000  0.4867590000000 1.0
C      1  0.5225890000000  0.5462830000000  0.4521860000000 1.0
C      1  0.5214790000000  0.6216620000000  0.4880020000000 1.0
C      1  0.5886030000000  0.5052820000000  0.5820920000000 1.0
C      1  0.4809330000000  0.4974300000000  0.5540780000000 1.0
C      1  0.5815860000000  0.5977220000000  0.5543330000000 1.0
C      1  0.5057740000000  0.3881790000000  0.5656290000000 1.0
C      1  0.5069600000000  0.4852950000000  0.4574350000000 1.0
C      1  0.5454050000000  0.5926120000000  0.4580030000000 1.0
C      1  0.4207910000000  0.5177340000000  0.5938970000000 1.0
C      1  0.4357410000000  0.4745270000000  0.5491700000000 1.0
C      1  0.4545530000000  0.4652040000000  0.3799160000000 1.0
C      1  0.4306630000000  0.5740280000000  0.5861580000000 1.0
C      1  0.4801250000000  0.4096920000000  0.4169700000000 1.0
C      1  0.4684930000000  0.5354410000000  0.4772400000000 1.0
C      1  0.4333270000000  0.4576110000000  0.5270780000000 1.0
C      1  0.4313350000000  0.4271980000000  0.4897900000000 1.0
C      1  0.5519120000000  0.4711870000000  0.5563950000000 1.0
C      1  0.5796390000000  0.6068150000000  0.5286300000000 1.0
C      1  0.4127490000000  0.4802720000000  0.5644120000000 1.0
C      1  0.3745310000000  0.5284630000000  0.4759690000000 1.0
END
