TITL C-627107-135-2028 25.0418464054445 125000 -178.007581850857 0 0 32 (C1) n - 1
REM
REM in /home/nfs/bkarasulu/CARBON/AIRSS/Generating-Clusters/LCBOP/Only-C1/SD-CG/FIRE-CG
REM
REM
REM
REM
REM
REM ./C.cell (11c1c37f851c82e70ff6c80c92926a4b)
REM AIRSS Version 0.9.1 bugfix July 2018 build 013d7b7c2542+ Fri, 06 Jul 2018 19:26:36 +0100
REM compiler GCC version 9.2.1 20190827 (Red Hat 9.2.1-1)
REM options -cpp -mtune=generic -march=x86-64 -g -O0 -fpre-include=/usr/include/finclude/math-vector-fortran.h
REM seed 784870047 741775371 1181950463 666955320 -122409816 -2124202543 -2142443475 1922051296 -1488427715 -1479439949 -453257892 874964831 711599303 -772323069 1313602414 -585337664 -927989139 760444847 -1175934118 -1841279820 -1902117996 494985507 946655594 -1953555235 912977981 -231947437 -1713570084 -2024439389 1231919783 352853350 -2095497032 287988039 2028328267
REM
CELL 1.54180   50.00000   50.00000   50.00000   90.00000   90.00000   90.00000
LATT -1
SFAC C  
C      1  0.4353960000000  0.5153630000000  0.3901820000000 1.0
C      1  0.4577820000000  0.5077320000000  0.4011320000000 1.0
C      1  0.4832910000000  0.4929170000000  0.4873940000000 1.0
C      1  0.3838720000000  0.4790070000000  0.6181900000000 1.0
C      1  0.5320480000000  0.4957000000000  0.3996370000000 1.0
C      1  0.6173670000000  0.4458880000000  0.4729760000000 1.0
C      1  0.4582180000000  0.5256210000000  0.5569990000000 1.0
C      1  0.4749100000000  0.5035100000000  0.5101770000000 1.0
C      1  0.4923830000000  0.5502170000000  0.5815540000000 1.0
C      1  0.4019770000000  0.4902380000000  0.6031660000000 1.0
C      1  0.6319140000000  0.4678820000000  0.4333440000000 1.0
C      1  0.6118000000000  0.4598920000000  0.4501150000000 1.0
C      1  0.5357710000000  0.5490070000000  0.6119550000000 1.0
C      1  0.5140690000000  0.5496410000000  0.5967500000000 1.0
C      1  0.4823670000000  0.4896730000000  0.4390890000000 1.0
C      1  0.5852580000000  0.4661060000000  0.4438230000000 1.0
C      1  0.4695240000000  0.5502510000000  0.5655200000000 1.0
C      1  0.4816850000000  0.4995800000000  0.4128880000000 1.0
C      1  0.5518160000000  0.4851590000000  0.4140100000000 1.0
C      1  0.4666070000000  0.5140600000000  0.5330080000000 1.0
C      1  0.4464230000000  0.5966510000000  0.5504250000000 1.0
C      1  0.4203850000000  0.5016570000000  0.5878910000000 1.0
C      1  0.5059670000000  0.5009750000000  0.3989840000000 1.0
C      1  0.5587470000000  0.4720870000000  0.4377990000000 1.0
C      1  0.4924050000000  0.4811330000000  0.4637660000000 1.0
C      1  0.4988450000000  0.4126430000000  0.4858840000000 1.0
C      1  0.5121280000000  0.4606230000000  0.4649800000000 1.0
C      1  0.5379660000000  0.4652480000000  0.4553020000000 1.0
C      1  0.5571160000000  0.5483830000000  0.6269100000000 1.0
C      1  0.5054640000000  0.4356880000000  0.4756730000000 1.0
C      1  0.4577140000000  0.5743550000000  0.5578120000000 1.0
C      1  0.4387840000000  0.5131120000000  0.5726670000000 1.0
END
