TITL C-627108-131-105 -1.18657541094088e-06 125000 -650.03374429492 0 0 108 (C1) n - 1
REM
REM in /home/nfs/bkarasulu/CARBON/AIRSS/Generating-Clusters/LCBOP/Only-C1/SD-CG/FIRE-CG
REM
REM
REM
REM
REM
REM ./C.cell (11c1c37f851c82e70ff6c80c92926a4b)
REM AIRSS Version 0.9.1 bugfix July 2018 build 013d7b7c2542+ Fri, 06 Jul 2018 19:26:36 +0100
REM compiler GCC version 9.2.1 20190827 (Red Hat 9.2.1-1)
REM options -cpp -mtune=generic -march=x86-64 -g -O0 -fpre-include=/usr/include/finclude/math-vector-fortran.h
REM seed -1938853395 365677081 24731348 -1255320530 741395722 1697604962 1058321228 959335539 -1124075034 -1334533701 1022718766 77388361 -1372144349 -385491398 2032877865 264523318 427207822 -610379149 192511720 -1676478482 -1864650901 49653374 -841700029 -740916790 950952469 1007972313 298398687 580924329 665828340 -872010574 -1933824835 -1239495659 11080761
REM
CELL 1.54180   50.00000   50.00000   50.00000   90.00000   90.00000   90.00000
LATT -1
SFAC C  
C      1  0.5300160000000  0.5188400000000  0.5804680000000 1.0
C      1  0.5457230000000  0.5555090000000  0.4335550000000 1.0
C      1  0.4478070000000  0.4946710000000  0.5231120000000 1.0
C      1  0.5793440000000  0.4891360000000  0.4468780000000 1.0
C      1  0.4339790000000  0.5851990000000  0.5256530000000 1.0
C      1  0.5341940000000  0.5331990000000  0.5564080000000 1.0
C      1  0.5293590000000  0.4181230000000  0.4741030000000 1.0
C      1  0.5693130000000  0.4487720000000  0.4732940000000 1.0
C      1  0.4967950000000  0.5649160000000  0.4488700000000 1.0
C      1  0.4703890000000  0.6125850000000  0.4821030000000 1.0
C      1  0.4202460000000  0.5581590000000  0.4713250000000 1.0
C      1  0.5126720000000  0.4204610000000  0.5464370000000 1.0
C      1  0.5827210000000  0.4970410000000  0.4939510000000 1.0
C      1  0.5003140000000  0.5905670000000  0.5143930000000 1.0
C      1  0.4816020000000  0.5785830000000  0.5339920000000 1.0
C      1  0.4436810000000  0.5002470000000  0.5700410000000 1.0
C      1  0.5790700000000  0.4766950000000  0.4729430000000 1.0
C      1  0.4798040000000  0.4774830000000  0.4503810000000 1.0
C      1  0.5355280000000  0.4925180000000  0.4722350000000 1.0
C      1  0.5488060000000  0.4808950000000  0.6037230000000 1.0
C      1  0.5011750000000  0.4815210000000  0.5959960000000 1.0
C      1  0.4769710000000  0.4675280000000  0.5987440000000 1.0
C      1  0.5306150000000  0.4916050000000  0.5293990000000 1.0
C      1  0.4460080000000  0.4832200000000  0.5489600000000 1.0
C      1  0.4564190000000  0.4812680000000  0.4368890000000 1.0
C      1  0.5304860000000  0.4670310000000  0.5394660000000 1.0
C      1  0.4328650000000  0.5830460000000  0.4759600000000 1.0
C      1  0.4469280000000  0.5085950000000  0.4365000000000 1.0
C      1  0.4959680000000  0.6091620000000  0.4931850000000 1.0
C      1  0.4098630000000  0.5377130000000  0.4855910000000 1.0
C      1  0.4562260000000  0.5260530000000  0.5679920000000 1.0
C      1  0.5801420000000  0.5263350000000  0.4959610000000 1.0
C      1  0.4184070000000  0.5038650000000  0.4373730000000 1.0
C      1  0.6039590000000  0.4747100000000  0.5574160000000 1.0
C      1  0.5452050000000  0.5596200000000  0.5035340000000 1.0
C      1  0.4779440000000  0.4783300000000  0.4794470000000 1.0
C      1  0.4953520000000  0.4005390000000  0.5045730000000 1.0
C      1  0.4612350000000  0.4936570000000  0.4974150000000 1.0
C      1  0.5215000000000  0.4203900000000  0.5731580000000 1.0
C      1  0.4271970000000  0.4309380000000  0.4784140000000 1.0
C      1  0.4475250000000  0.5404050000000  0.5433680000000 1.0
C      1  0.3963850000000  0.4945240000000  0.5093220000000 1.0
C      1  0.5805230000000  0.5395390000000  0.4700170000000 1.0
C      1  0.5258400000000  0.4385270000000  0.5924920000000 1.0
C      1  0.4259180000000  0.5936250000000  0.5014830000000 1.0
C      1  0.6151380000000  0.4958970000000  0.5676980000000 1.0
C      1  0.4748710000000  0.5832170000000  0.4455090000000 1.0
C      1  0.4975810000000  0.5647170000000  0.5527450000000 1.0
C      1  0.5000550000000  0.4136800000000  0.4790980000000 1.0
C      1  0.4997070000000  0.4652880000000  0.4346940000000 1.0
C      1  0.5713640000000  0.5117780000000  0.4318970000000 1.0
C      1  0.3749050000000  0.4934240000000  0.5264670000000 1.0
C      1  0.5248740000000  0.5718850000000  0.4460920000000 1.0
C      1  0.5444550000000  0.4158010000000  0.4488910000000 1.0
C      1  0.4663240000000  0.5277400000000  0.4452150000000 1.0
C      1  0.4374450000000  0.4602070000000  0.4422660000000 1.0
C      1  0.5666490000000  0.4329910000000  0.4483820000000 1.0
C      1  0.5661810000000  0.5372360000000  0.4453810000000 1.0
C      1  0.4396790000000  0.4456000000000  0.5207420000000 1.0
C      1  0.4932650000000  0.4514640000000  0.5151980000000 1.0
C      1  0.4204540000000  0.4480420000000  0.5004000000000 1.0
C      1  0.5033870000000  0.5092820000000  0.5872270000000 1.0
C      1  0.5134940000000  0.4457470000000  0.5338780000000 1.0
C      1  0.5207460000000  0.5103940000000  0.5116800000000 1.0
C      1  0.5253060000000  0.4657230000000  0.5996580000000 1.0
C      1  0.5592530000000  0.5361270000000  0.5431000000000 1.0
C      1  0.5550260000000  0.5321460000000  0.3893380000000 1.0
C      1  0.4959060000000  0.4010910000000  0.5331130000000 1.0
C      1  0.5658710000000  0.5426400000000  0.5162960000000 1.0
C      1  0.5356290000000  0.5745020000000  0.3851770000000 1.0
C      1  0.4111130000000  0.5196110000000  0.5072770000000 1.0
C      1  0.5232850000000  0.4675380000000  0.4739040000000 1.0
C      1  0.4556810000000  0.4217850000000  0.5857080000000 1.0
C      1  0.4859840000000  0.5366180000000  0.4908070000000 1.0
C      1  0.4542810000000  0.5681210000000  0.5350380000000 1.0
C      1  0.4744830000000  0.3917000000000  0.5488330000000 1.0
C      1  0.4665030000000  0.4454490000000  0.5220940000000 1.0
C      1  0.4619440000000  0.4456900000000  0.5957340000000 1.0
C      1  0.4032550000000  0.4707560000000  0.4942670000000 1.0
C      1  0.4339050000000  0.5213570000000  0.5249510000000 1.0
C      1  0.5000070000000  0.4648310000000  0.4911510000000 1.0
C      1  0.4570400000000  0.5941390000000  0.4649110000000 1.0
C      1  0.5596380000000  0.3939190000000  0.5196710000000 1.0
C      1  0.5273590000000  0.5792560000000  0.5135900000000 1.0
C      1  0.5622440000000  0.4207430000000  0.5148250000000 1.0
C      1  0.5451880000000  0.5556180000000  0.4050580000000 1.0
C      1  0.5210430000000  0.4563880000000  0.4480320000000 1.0
C      1  0.5319100000000  0.5153700000000  0.4863540000000 1.0
C      1  0.5779470000000  0.4365400000000  0.5317440000000 1.0
C      1  0.4623380000000  0.5212150000000  0.4915630000000 1.0
C      1  0.5307970000000  0.5972390000000  0.4575540000000 1.0
C      1  0.5106130000000  0.5422430000000  0.5425650000000 1.0
C      1  0.5022390000000  0.5318180000000  0.5162090000000 1.0
C      1  0.4123010000000  0.4761170000000  0.4448040000000 1.0
C      1  0.5388400000000  0.5639320000000  0.3596640000000 1.0
C      1  0.4597210000000  0.4013030000000  0.5690490000000 1.0
C      1  0.5510150000000  0.5063050000000  0.5946500000000 1.0
C      1  0.5666990000000  0.5116700000000  0.4041720000000 1.0
C      1  0.5919190000000  0.4542370000000  0.5456520000000 1.0
C      1  0.5180940000000  0.6129260000000  0.4755470000000 1.0
C      1  0.3956530000000  0.4716280000000  0.4668640000000 1.0
C      1  0.4809180000000  0.5258900000000  0.5818670000000 1.0
C      1  0.4873040000000  0.5412690000000  0.4612680000000 1.0
C      1  0.4472560000000  0.4367320000000  0.4585190000000 1.0
C      1  0.5510190000000  0.4322490000000  0.4913050000000 1.0
C      1  0.5356830000000  0.5428830000000  0.4822030000000 1.0
C      1  0.5502980000000  0.5386940000000  0.3616010000000 1.0
C      1  0.4749020000000  0.4242530000000  0.4643310000000 1.0
END
