TITL C-627109-622-489 0.379863722665814 125000 -611.837935205584 0 0 101 (C1) n - 1
REM
REM in /home/nfs/bkarasulu/CARBON/AIRSS/Generating-Clusters/LCBOP/Only-C1/SD-CG/FIRE-CG
REM
REM
REM
REM
REM
REM ./C.cell (11c1c37f851c82e70ff6c80c92926a4b)
REM AIRSS Version 0.9.1 bugfix July 2018 build 013d7b7c2542+ Fri, 06 Jul 2018 19:26:36 +0100
REM compiler GCC version 9.2.1 20190827 (Red Hat 9.2.1-1)
REM options -cpp -mtune=generic -march=x86-64 -g -O0 -fpre-include=/usr/include/finclude/math-vector-fortran.h
REM seed -755849956 2033737691 1519934234 281846672 -1937517801 -478088894 -2029558868 -186745626 988961674 -1286499019 756569052 1029339485 -1221856559 58517194 1183904360 -2087423320 2060307769 632017273 1482265111 536316753 1049392757 -102634796 1786284805 -1696581971 1887779125 -1665753360 986199799 -678592708 -293055870 -787302936 211269452 941310678 1513024444
REM
CELL 1.54180   50.00000   50.00000   50.00000   90.00000   90.00000   90.00000
LATT -1
SFAC C  
C      1  0.4416590000000  0.5230260000000  0.5674650000000 1.0
C      1  0.5678320000000  0.4218250000000  0.5210450000000 1.0
C      1  0.5649010000000  0.5209250000000  0.4575620000000 1.0
C      1  0.4918900000000  0.3998570000000  0.4567560000000 1.0
C      1  0.5499330000000  0.3999500000000  0.4782360000000 1.0
C      1  0.5397040000000  0.4460100000000  0.4238760000000 1.0
C      1  0.5844190000000  0.4926000000000  0.4948820000000 1.0
C      1  0.4882070000000  0.5334730000000  0.5956710000000 1.0
C      1  0.5759970000000  0.4446950000000  0.4541870000000 1.0
C      1  0.5120300000000  0.4370760000000  0.4269510000000 1.0
C      1  0.5063560000000  0.5660810000000  0.4756710000000 1.0
C      1  0.5118430000000  0.6005790000000  0.5246480000000 1.0
C      1  0.4381980000000  0.5744600000000  0.5147730000000 1.0
C      1  0.4069500000000  0.4584690000000  0.5175700000000 1.0
C      1  0.4724300000000  0.5272670000000  0.4345990000000 1.0
C      1  0.5322560000000  0.5053290000000  0.5955080000000 1.0
C      1  0.4292550000000  0.5772260000000  0.4876890000000 1.0
C      1  0.5356250000000  0.5325410000000  0.5212800000000 1.0
C      1  0.5071090000000  0.3896180000000  0.5238700000000 1.0
C      1  0.4769540000000  0.5286900000000  0.5016720000000 1.0
C      1  0.5583900000000  0.5465840000000  0.4681980000000 1.0
C      1  0.5293860000000  0.5176790000000  0.4050990000000 1.0
C      1  0.5767890000000  0.4672370000000  0.5064680000000 1.0
C      1  0.4565980000000  0.6220120000000  0.5178850000000 1.0
C      1  0.5566730000000  0.4288800000000  0.4394830000000 1.0
C      1  0.4323690000000  0.5321150000000  0.4681660000000 1.0
C      1  0.5157280000000  0.4783820000000  0.4708170000000 1.0
C      1  0.4320230000000  0.4695910000000  0.5246780000000 1.0
C      1  0.5273190000000  0.4925670000000  0.4178640000000 1.0
C      1  0.4992220000000  0.4852210000000  0.4235080000000 1.0
C      1  0.4818720000000  0.5313500000000  0.5502580000000 1.0
C      1  0.5125900000000  0.4139950000000  0.4448020000000 1.0
C      1  0.4579570000000  0.5136980000000  0.5448920000000 1.0
C      1  0.4073650000000  0.4386000000000  0.4721660000000 1.0
C      1  0.5571420000000  0.5505240000000  0.5257830000000 1.0
C      1  0.4593500000000  0.5251820000000  0.5921330000000 1.0
C      1  0.4852690000000  0.5397520000000  0.4122800000000 1.0
C      1  0.4074540000000  0.5427100000000  0.5111860000000 1.0
C      1  0.5016620000000  0.5114040000000  0.5576860000000 1.0
C      1  0.5700940000000  0.4131000000000  0.4933830000000 1.0
C      1  0.5575750000000  0.5003360000000  0.5879460000000 1.0
C      1  0.4440850000000  0.4896540000000  0.5027250000000 1.0
C      1  0.4541430000000  0.5433120000000  0.4511050000000 1.0
C      1  0.4691370000000  0.6112270000000  0.4935960000000 1.0
C      1  0.4369850000000  0.5502160000000  0.5572920000000 1.0
C      1  0.5234770000000  0.5309710000000  0.4961530000000 1.0
C      1  0.4862230000000  0.5030750000000  0.4422880000000 1.0
C      1  0.4986780000000  0.5004080000000  0.4674200000000 1.0
C      1  0.4995080000000  0.5176090000000  0.4891300000000 1.0
C      1  0.4973560000000  0.6076360000000  0.5022050000000 1.0
C      1  0.5101020000000  0.5364530000000  0.4019830000000 1.0
C      1  0.4833330000000  0.4616730000000  0.5062620000000 1.0
C      1  0.5799390000000  0.5545930000000  0.4855990000000 1.0
C      1  0.5807300000000  0.5423260000000  0.5113060000000 1.0
C      1  0.4666870000000  0.5734610000000  0.5163110000000 1.0
C      1  0.5167360000000  0.4099630000000  0.5412320000000 1.0
C      1  0.4233040000000  0.5560870000000  0.5319910000000 1.0
C      1  0.5309730000000  0.5511740000000  0.4771350000000 1.0
C      1  0.5678850000000  0.5038420000000  0.5390170000000 1.0
C      1  0.5065020000000  0.4753820000000  0.5170640000000 1.0
C      1  0.4809710000000  0.3840970000000  0.4772430000000 1.0
C      1  0.4309640000000  0.4431710000000  0.4601280000000 1.0
C      1  0.5216890000000  0.5942340000000  0.5513040000000 1.0
C      1  0.5252480000000  0.4711230000000  0.4958470000000 1.0
C      1  0.5459170000000  0.6058880000000  0.5578900000000 1.0
C      1  0.4822860000000  0.5570800000000  0.5003000000000 1.0
C      1  0.4708750000000  0.5830140000000  0.5433490000000 1.0
C      1  0.4984530000000  0.5604800000000  0.5903150000000 1.0
C      1  0.4327990000000  0.3608730000000  0.4702060000000 1.0
C      1  0.3973170000000  0.4453490000000  0.4961780000000 1.0
C      1  0.4632340000000  0.4708810000000  0.4888040000000 1.0
C      1  0.5840240000000  0.5132580000000  0.5155700000000 1.0
C      1  0.5398010000000  0.5073770000000  0.5336270000000 1.0
C      1  0.4504890000000  0.5900160000000  0.4733710000000 1.0
C      1  0.5693170000000  0.4733020000000  0.4488330000000 1.0
C      1  0.5147810000000  0.4939120000000  0.5383390000000 1.0
C      1  0.5735230000000  0.4993290000000  0.5661860000000 1.0
C      1  0.4166090000000  0.5508740000000  0.4836050000000 1.0
C      1  0.4633020000000  0.5717930000000  0.4548880000000 1.0
C      1  0.5400870000000  0.4093550000000  0.4534300000000 1.0
C      1  0.4916160000000  0.5752130000000  0.4539330000000 1.0
C      1  0.4313180000000  0.5053560000000  0.4790600000000 1.0
C      1  0.4487360000000  0.4546010000000  0.5443800000000 1.0
C      1  0.4620560000000  0.6104170000000  0.5426030000000 1.0
C      1  0.4586200000000  0.5118670000000  0.5165550000000 1.0
C      1  0.5501800000000  0.4616350000000  0.4993500000000 1.0
C      1  0.5443300000000  0.4169420000000  0.5369740000000 1.0
C      1  0.4664770000000  0.5588850000000  0.5572200000000 1.0
C      1  0.4933280000000  0.4574660000000  0.4217200000000 1.0
C      1  0.4784000000000  0.4360940000000  0.5159700000000 1.0
C      1  0.4945690000000  0.3817800000000  0.5017120000000 1.0
C      1  0.5864930000000  0.4301060000000  0.4762170000000 1.0
C      1  0.5098630000000  0.5778100000000  0.5722270000000 1.0
C      1  0.4534040000000  0.4563280000000  0.4667720000000 1.0
C      1  0.4953710000000  0.4239710000000  0.5556470000000 1.0
C      1  0.5072750000000  0.5133870000000  0.5858320000000 1.0
C      1  0.4714810000000  0.4357440000000  0.5438250000000 1.0
C      1  0.4564610000000  0.3712800000000  0.4735220000000 1.0
C      1  0.5472390000000  0.4741790000000  0.4276280000000 1.0
C      1  0.5753370000000  0.4957760000000  0.4663830000000 1.0
C      1  0.5836010000000  0.4460810000000  0.5246520000000 1.0
END
