TITL C-627108-131-393 108533.771884551 125000 -1199.02786553594 0 0 195 (C1) n - 1
REM
REM in /home/nfs/bkarasulu/CARBON/AIRSS/Generating-Clusters/LCBOP/Only-C1/SD-CG/FIRE-CG
REM
REM
REM
REM
REM
REM ./C.cell (11c1c37f851c82e70ff6c80c92926a4b)
REM AIRSS Version 0.9.1 bugfix July 2018 build 013d7b7c2542+ Fri, 06 Jul 2018 19:26:36 +0100
REM compiler GCC version 9.2.1 20190827 (Red Hat 9.2.1-1)
REM options -cpp -mtune=generic -march=x86-64 -g -O0 -fpre-include=/usr/include/finclude/math-vector-fortran.h
REM seed -745194171 -2134120239 -1601966773 -14697743 -1492239121 -1468752023 -1007184285 458693080 -312090795 -627226916 -1495564583 -797633217 -1639367397 -342951171 -619485873 1114722180 689589005 -244294290 -622546158 -1909598920 899991165 269603253 -497979168 -335591334 1506969135 -1991518364 520893248 -79120601 180192099 442406707 -684545209 1668470428 1209240513
REM
CELL 1.54180   50.00000   50.00000   50.00000   90.00000   90.00000   90.00000
LATT -1
SFAC C  
C      1  0.5200990000000  0.4800410000000  0.5089360000000 1.0
C      1  0.5071880000000  0.5763510000000  0.4924700000000 1.0
C      1  0.4927840000000  0.3994650000000  0.5797480000000 1.0
C      1  0.5290370000000  0.4105110000000  0.4783440000000 1.0
C      1  0.4591550000000  0.5491090000000  0.4439020000000 1.0
C      1  0.5227670000000  0.4898490000000  0.4234390000000 1.0
C      1  0.4514910000000  0.3349730000000  0.3618010000000 1.0
C      1  0.4468390000000  0.5509690000000  0.5310000000000 1.0
C      1  0.5837000000000  0.5428080000000  0.5742470000000 1.0
C      1  0.4272180000000  0.6196370000000  0.5483620000000 1.0
C      1  0.4195310000000  0.5849780000000  0.5097280000000 1.0
C      1  0.5086560000000  0.5717000000000  0.3875010000000 1.0
C      1  0.3777030000000  0.4482080000000  0.4756590000000 1.0
C      1  0.4530740000000  0.5789700000000  0.5398830000000 1.0
C      1  0.4433040000000  0.5676780000000  0.4292330000000 1.0
C      1  0.3976180000000  0.5656490000000  0.5103640000000 1.0
C      1  0.6275390000000  0.5413850000000  0.5141280000000 1.0
C      1  0.5522000000000  0.3960180000000  0.5375030000000 1.0
C      1  0.5255480000000  0.5374850000000  0.5458330000000 1.0
C      1  0.4671220000000  0.4518890000000  0.5805840000000 1.0
C      1  0.5823370000000  0.5246330000000  0.5962950000000 1.0
C      1  0.5249150000000  0.5566230000000  0.4480110000000 1.0
C      1  0.5808070000000  0.5906940000000  0.5833140000000 1.0
C      1  0.5596710000000  0.5603710000000  0.3900320000000 1.0
C      1  0.4778360000000  0.4177360000000  0.4521830000000 1.0
C      1  0.4300000000000  0.5959820000000  0.5341080000000 1.0
C      1  0.5192810000000  0.3739670000000  0.3522860000000 1.0
C      1  0.4977510000000  0.5982720000000  0.3899690000000 1.0
C      1  0.3773700000000  0.4928300000000  0.4574370000000 1.0
C      1  0.6041200000000  0.4757780000000  0.4352950000000 1.0
C      1  0.5353020000000  0.5761850000000  0.4295640000000 1.0
C      1  0.5659750000000  0.5953760000000  0.4627720000000 1.0
C      1  0.4575300000000  0.5808640000000  0.4079380000000 1.0
C      1  0.3858810000000  0.5610700000000  0.4847460000000 1.0
C      1  0.4787560000000  0.5198400000000  0.5498200000000 1.0
C      1  0.4949400000000  0.4965720000000  0.4691000000000 1.0
C      1  0.5036870000000  0.4989690000000  0.4952790000000 1.0
C      1  0.4403780000000  0.4034050000000  0.4833330000000 1.0
C      1  0.4892660000000  0.6117280000000  0.5165280000000 1.0
C      1  0.4280290000000  0.4307650000000  0.5539500000000 1.0
C      1  0.5741470000000  0.5372820000000  0.3862520000000 1.0
C      1  0.4140330000000  0.4550610000000  0.5642990000000 1.0
C      1  0.5232670000000  0.6178190000000  0.4509820000000 1.0
C      1  0.4959390000000  0.5244390000000  0.5056760000000 1.0
C      1  0.4253260000000  0.5317740000000  0.5342140000000 1.0
C      1  0.5614550000000  0.4354970000000  0.3731450000000 1.0
C      1  0.5138280000000  0.3846810000000  0.5667820000000 1.0
C      1  0.4936370000000  0.5473580000000  0.5843440000000 1.0
C      1  0.3945400000000  0.4689000000000  0.5466170000000 1.0
C      1  0.3890060000000  0.4980770000000  0.5539150000000 1.0
C      1  0.5610230000000  0.5119720000000  0.3870410000000 1.0
C      1  0.5420810000000  0.6135550000000  0.5068320000000 1.0
C      1  0.6266740000000  0.5627680000000  0.5306430000000 1.0
C      1  0.4647780000000  0.4429000000000  0.5239880000000 1.0
C      1  0.4178940000000  0.4009750000000  0.4683900000000 1.0
C      1  0.5766540000000  0.5312600000000  0.5490420000000 1.0
C      1  0.4818630000000  0.3870300000000  0.6030700000000 1.0
C      1  0.5844010000000  0.5737170000000  0.4573960000000 1.0
C      1  0.4950340000000  0.4369990000000  0.4459020000000 1.0
C      1  0.5011960000000  0.6175930000000  0.4666840000000 1.0
C      1  0.3840590000000  0.4471680000000  0.5018090000000 1.0
C      1  0.4910240000000  0.5243690000000  0.3698120000000 1.0
C      1  0.5578640000000  0.4447670000000  0.4933500000000 1.0
C      1  0.3968560000000  0.4654140000000  0.5185550000000 1.0
C      1  0.4507300000000  0.5482570000000  0.5015850000000 1.0
C      1  0.5105400000000  0.4095790000000  0.5009940000000 1.0
C      1  0.5567400000000  0.5220490000000  0.6071290000000 1.0
C      1  0.4635200000000  0.6425370000000  0.5769260000000 1.0
C      1  0.4373320000000  0.3945520000000  0.5901930000000 1.0
C      1  0.4615180000000  0.5231920000000  0.6117040000000 1.0
C      1  0.4592990000000  0.4666450000000  0.5094720000000 1.0
C      1  0.5361840000000  0.3775250000000  0.5523950000000 1.0
C      1  0.5979640000000  0.5013010000000  0.6008920000000 1.0
C      1  0.5127350000000  0.5576600000000  0.5649800000000 1.0
C      1  0.4518250000000  0.4889930000000  0.5253860000000 1.0
C      1  0.5776630000000  0.4695620000000  0.4364210000000 1.0
C      1  0.4197250000000  0.4760020000000  0.5860800000000 1.0
C      1  0.5513590000000  0.3805940000000  0.4471490000000 1.0
C      1  0.6192250000000  0.4882310000000  0.5087060000000 1.0
C      1  0.5442530000000  0.5999790000000  0.4435600000000 1.0
C      1  0.4960530000000  0.5171700000000  0.4522720000000 1.0
C      1  0.4744480000000  0.6025460000000  0.4031420000000 1.0
C      1  0.4477470000000  0.5005710000000  0.6218240000000 1.0
C      1  0.3800700000000  0.5149780000000  0.4748440000000 1.0
C      1  0.4063360000000  0.4904820000000  0.5081850000000 1.0
C      1  0.4360410000000  0.5140310000000  0.4649310000000 1.0
C      1  0.5238550000000  0.5169810000000  0.4169930000000 1.0
C      1  0.4415930000000  0.5767810000000  0.4922860000000 1.0
C      1  0.4536740000000  0.4647380000000  0.4821080000000 1.0
C      1  0.5349090000000  0.5058930000000  0.6009290000000 1.0
C      1  0.5349360000000  0.5698700000000  0.4011520000000 1.0
C      1  0.5149590000000  0.4537700000000  0.4512420000000 1.0
C      1  0.5444960000000  0.4077020000000  0.4535610000000 1.0
C      1  0.4302940000000  0.5476940000000  0.3910540000000 1.0
C      1  0.6041240000000  0.4897630000000  0.5510740000000 1.0
C      1  0.5258340000000  0.5633460000000  0.4758340000000 1.0
C      1  0.5539580000000  0.4273100000000  0.4339800000000 1.0
C      1  0.5766640000000  0.4330040000000  0.5110800000000 1.0
C      1  0.4482200000000  0.5329520000000  0.5873110000000 1.0
C      1  0.5307540000000  0.4871630000000  0.3624250000000 1.0
C      1  0.4558970000000  0.4983880000000  0.3945380000000 1.0
C      1  0.5618290000000  0.4573500000000  0.3909940000000 1.0
C      1  0.4345370000000  0.5277260000000  0.4876740000000 1.0
C      1  0.6148050000000  0.5164510000000  0.5162390000000 1.0
C      1  0.5585000000000  0.5415720000000  0.5047010000000 1.0
C      1  0.4853810000000  0.3965210000000  0.4963330000000 1.0
C      1  0.4422860000000  0.4025560000000  0.5125500000000 1.0
C      1  0.3988820000000  0.5468310000000  0.4379450000000 1.0
C      1  0.4071830000000  0.5017840000000  0.5772110000000 1.0
C      1  0.5377470000000  0.4625600000000  0.4954650000000 1.0
C      1  0.5568470000000  0.5944490000000  0.4909880000000 1.0
C      1  0.5494710000000  0.5659850000000  0.4929930000000 1.0
C      1  0.5529010000000  0.5363300000000  0.5333070000000 1.0
C      1  0.5026620000000  0.5773780000000  0.5459410000000 1.0
C      1  0.5973450000000  0.5149580000000  0.5396960000000 1.0
C      1  0.4888510000000  0.6403430000000  0.5847710000000 1.0
C      1  0.5347320000000  0.3660420000000  0.4309580000000 1.0
C      1  0.5382440000000  0.3923580000000  0.3545110000000 1.0
C      1  0.5946180000000  0.5690740000000  0.5722240000000 1.0
C      1  0.5455570000000  0.4820100000000  0.5527340000000 1.0
C      1  0.5654270000000  0.4499240000000  0.4193020000000 1.0
C      1  0.5170120000000  0.4635150000000  0.5834710000000 1.0
C      1  0.5654090000000  0.5030580000000  0.4713590000000 1.0
C      1  0.5585230000000  0.4823730000000  0.4532850000000 1.0
C      1  0.4758980000000  0.4735150000000  0.5639100000000 1.0
C      1  0.5654550000000  0.4345530000000  0.5869460000000 1.0
C      1  0.5731520000000  0.4053680000000  0.5199190000000 1.0
C      1  0.4383380000000  0.4615160000000  0.4605260000000 1.0
C      1  0.4698910000000  0.3651770000000  0.5332010000000 1.0
C      1  0.5139530000000  0.6323960000000  0.5885000000000 1.0
C      1  0.4282090000000  0.5040250000000  0.5222500000000 1.0
C      1  0.5331140000000  0.5207290000000  0.3913890000000 1.0
C      1  0.5639510000000  0.4604460000000  0.5480350000000 1.0
C      1  0.4500990000000  0.5217840000000  0.4421190000000 1.0
C      1  0.4216060000000  0.5254000000000  0.5828930000000 1.0
C      1  0.4781160000000  0.5424530000000  0.4904300000000 1.0
C      1  0.5135050000000  0.5729240000000  0.5199820000000 1.0
C      1  0.4900260000000  0.4354450000000  0.5417870000000 1.0
C      1  0.4842550000000  0.4549590000000  0.6223460000000 1.0
C      1  0.5134520000000  0.4222820000000  0.5277270000000 1.0
C      1  0.4191750000000  0.5542790000000  0.4184350000000 1.0
C      1  0.4741630000000  0.4233760000000  0.5687630000000 1.0
C      1  0.4603850000000  0.4574280000000  0.6070860000000 1.0
C      1  0.4443280000000  0.4130320000000  0.5703130000000 1.0
C      1  0.6539590000000  0.4708520000000  0.4718860000000 1.0
C      1  0.5109870000000  0.5131060000000  0.6138770000000 1.0
C      1  0.5852030000000  0.4533370000000  0.5294180000000 1.0
C      1  0.4746330000000  0.3460650000000  0.3572080000000 1.0
C      1  0.5363950000000  0.4856400000000  0.5808850000000 1.0
C      1  0.3867990000000  0.5412970000000  0.4642400000000 1.0
C      1  0.4678440000000  0.4038490000000  0.4740240000000 1.0
C      1  0.3811220000000  0.5192680000000  0.5313440000000 1.0
C      1  0.5011980000000  0.5263850000000  0.5332940000000 1.0
C      1  0.4900950000000  0.5310990000000  0.6089640000000 1.0
C      1  0.5177950000000  0.6213290000000  0.5177630000000 1.0
C      1  0.4517190000000  0.5049950000000  0.4199640000000 1.0
C      1  0.4747680000000  0.5587250000000  0.4654570000000 1.0
C      1  0.4393420000000  0.4765770000000  0.6084210000000 1.0
C      1  0.5946280000000  0.4746250000000  0.6039730000000 1.0
C      1  0.5140990000000  0.5327680000000  0.4377830000000 1.0
C      1  0.5608490000000  0.6075790000000  0.5881800000000 1.0
C      1  0.6151240000000  0.5724830000000  0.5529130000000 1.0
C      1  0.5021600000000  0.4619120000000  0.5551050000000 1.0
C      1  0.5820190000000  0.4510150000000  0.6007660000000 1.0
C      1  0.4976610000000  0.3586860000000  0.3535760000000 1.0
C      1  0.4868480000000  0.5516620000000  0.3796690000000 1.0
C      1  0.4671360000000  0.4945490000000  0.5481710000000 1.0
C      1  0.5317540000000  0.4752290000000  0.4452420000000 1.0
C      1  0.3875660000000  0.4665090000000  0.4564550000000 1.0
C      1  0.4647500000000  0.5850510000000  0.4767160000000 1.0
C      1  0.5743900000000  0.3698050000000  0.4573110000000 1.0
C      1  0.5722220000000  0.5283400000000  0.4821020000000 1.0
C      1  0.4143430000000  0.4624250000000  0.4487230000000 1.0
C      1  0.5561040000000  0.4834880000000  0.3788940000000 1.0
C      1  0.4882390000000  0.5999840000000  0.4872590000000 1.0
C      1  0.5379030000000  0.4208940000000  0.5435710000000 1.0
C      1  0.4789360000000  0.5928590000000  0.5387150000000 1.0
C      1  0.3841770000000  0.5085420000000  0.5031150000000 1.0
C      1  0.4553190000000  0.3832450000000  0.6069600000000 1.0
C      1  0.5859260000000  0.5475480000000  0.4652030000000 1.0
C      1  0.5164730000000  0.5119130000000  0.3697190000000 1.0
C      1  0.4670790000000  0.3867460000000  0.5170260000000 1.0
C      1  0.4408130000000  0.4266380000000  0.5277840000000 1.0
C      1  0.4701660000000  0.5379030000000  0.5696270000000 1.0
C      1  0.4584250000000  0.5592830000000  0.3871300000000 1.0
C      1  0.5380460000000  0.6211930000000  0.5894460000000 1.0
C      1  0.5538010000000  0.4370180000000  0.5612250000000 1.0
C      1  0.4691530000000  0.5067760000000  0.3728640000000 1.0
C      1  0.4409750000000  0.6360890000000  0.5642800000000 1.0
C      1  0.3984880000000  0.5434110000000  0.5300920000000 1.0
C      1  0.5209500000000  0.4778660000000  0.5371840000000 1.0
C      1  0.5529100000000  0.4133890000000  0.3612670000000 1.0
C      1  0.6070980000000  0.4708380000000  0.5293800000000 1.0
C      1  0.6352470000000  0.4793810000000  0.4879020000000 1.0
C      1  0.5080890000000  0.4551000000000  0.6090140000000 1.0
END
