TITL C-627107-135-640 -5.34620952694667e-09 125000 -949.935505791487 0 0 154 (C1) n - 1
REM
REM in /home/nfs/bkarasulu/CARBON/AIRSS/Generating-Clusters/LCBOP/Only-C1/SD-CG/FIRE-CG
REM
REM
REM
REM
REM
REM ./C.cell (11c1c37f851c82e70ff6c80c92926a4b)
REM AIRSS Version 0.9.1 bugfix July 2018 build 013d7b7c2542+ Fri, 06 Jul 2018 19:26:36 +0100
REM compiler GCC version 9.2.1 20190827 (Red Hat 9.2.1-1)
REM options -cpp -mtune=generic -march=x86-64 -g -O0 -fpre-include=/usr/include/finclude/math-vector-fortran.h
REM seed -357352111 966683853 -524914753 2056858770 1598546470 -139701008 609758732 -1724555045 -1687705735 -1018492639 282309974 -420353015 1823438367 1492593048 -474114138 492268116 1449086931 800591900 90755592 320823603 -1054607337 -2145420393 -947370628 928492299 -1655536877 -1608193457 864277040 1752412207 -1557525344 756766738 -867150198 -890879770 837426423
REM
CELL 1.54180   50.00000   50.00000   50.00000   90.00000   90.00000   90.00000
LATT -1
SFAC C  
C      1  0.5941230000000  0.5383250000000  0.4784390000000 1.0
C      1  0.3971760000000  0.5131540000000  0.6204970000000 1.0
C      1  0.4580480000000  0.5330670000000  0.3834260000000 1.0
C      1  0.3870500000000  0.5431350000000  0.4865500000000 1.0
C      1  0.5032190000000  0.4439560000000  0.5913300000000 1.0
C      1  0.4350590000000  0.4248430000000  0.4594650000000 1.0
C      1  0.5769540000000  0.5990070000000  0.4810980000000 1.0
C      1  0.3897190000000  0.5640500000000  0.5029970000000 1.0
C      1  0.4437640000000  0.5628760000000  0.4888500000000 1.0
C      1  0.4633940000000  0.5705590000000  0.4155290000000 1.0
C      1  0.5954580000000  0.4885810000000  0.5149320000000 1.0
C      1  0.5282130000000  0.4849020000000  0.3991920000000 1.0
C      1  0.4810870000000  0.4620800000000  0.3927630000000 1.0
C      1  0.5549410000000  0.4706350000000  0.5854300000000 1.0
C      1  0.4766030000000  0.5934750000000  0.4269260000000 1.0
C      1  0.4755690000000  0.3976690000000  0.4679380000000 1.0
C      1  0.5803300000000  0.5183670000000  0.5820650000000 1.0
C      1  0.5387890000000  0.5073150000000  0.4149490000000 1.0
C      1  0.5426990000000  0.4702510000000  0.6117290000000 1.0
C      1  0.4543350000000  0.3878710000000  0.4835370000000 1.0
C      1  0.4752390000000  0.4484540000000  0.5852620000000 1.0
C      1  0.5057540000000  0.4691900000000  0.4081190000000 1.0
C      1  0.3999370000000  0.5825710000000  0.5193610000000 1.0
C      1  0.4897830000000  0.5856270000000  0.5184840000000 1.0
C      1  0.5419600000000  0.4208800000000  0.5641940000000 1.0
C      1  0.5080710000000  0.5516720000000  0.4593210000000 1.0
C      1  0.5266170000000  0.5325550000000  0.4665850000000 1.0
C      1  0.5022910000000  0.5984230000000  0.4690300000000 1.0
C      1  0.5534220000000  0.5742030000000  0.5489540000000 1.0
C      1  0.5719310000000  0.4302080000000  0.4810830000000 1.0
C      1  0.4983540000000  0.4689930000000  0.4367260000000 1.0
C      1  0.4495720000000  0.4742700000000  0.6182960000000 1.0
C      1  0.5031750000000  0.4002210000000  0.4754530000000 1.0
C      1  0.5765160000000  0.5100790000000  0.5189230000000 1.0
C      1  0.5367970000000  0.4901320000000  0.4604220000000 1.0
C      1  0.5163320000000  0.4891760000000  0.5229040000000 1.0
C      1  0.5405570000000  0.4787010000000  0.3748780000000 1.0
C      1  0.4424960000000  0.4458500000000  0.5448920000000 1.0
C      1  0.4888720000000  0.5975270000000  0.5444120000000 1.0
C      1  0.5442380000000  0.5650970000000  0.6174440000000 1.0
C      1  0.4307460000000  0.5147560000000  0.4203980000000 1.0
C      1  0.5559930000000  0.5094540000000  0.4992360000000 1.0
C      1  0.5336870000000  0.4698780000000  0.5640130000000 1.0
C      1  0.4176510000000  0.4485680000000  0.4624450000000 1.0
C      1  0.5064330000000  0.5930880000000  0.4968770000000 1.0
C      1  0.5573850000000  0.5290630000000  0.5694050000000 1.0
C      1  0.5254160000000  0.4370940000000  0.4570010000000 1.0
C      1  0.6083960000000  0.4934330000000  0.4894480000000 1.0
C      1  0.4709890000000  0.3816350000000  0.5580050000000 1.0
C      1  0.5371490000000  0.4724950000000  0.5340840000000 1.0
C      1  0.4294970000000  0.4794880000000  0.6350020000000 1.0
C      1  0.4383990000000  0.6085750000000  0.5447640000000 1.0
C      1  0.4323370000000  0.4060290000000  0.4833790000000 1.0
C      1  0.4397640000000  0.5344270000000  0.4395590000000 1.0
C      1  0.4269920000000  0.5229130000000  0.5809610000000 1.0
C      1  0.5519660000000  0.4719520000000  0.3524440000000 1.0
C      1  0.5438510000000  0.5338910000000  0.4892480000000 1.0
C      1  0.5722600000000  0.4424430000000  0.4538590000000 1.0
C      1  0.4459480000000  0.5094430000000  0.3940590000000 1.0
C      1  0.4603190000000  0.4611290000000  0.4791800000000 1.0
C      1  0.4596700000000  0.4208140000000  0.3756900000000 1.0
C      1  0.4860280000000  0.5586150000000  0.5723980000000 1.0
C      1  0.5220200000000  0.4100720000000  0.4962040000000 1.0
C      1  0.5967290000000  0.5105470000000  0.4686650000000 1.0
C      1  0.4269180000000  0.4265320000000  0.5309780000000 1.0
C      1  0.5079380000000  0.5393770000000  0.5176710000000 1.0
C      1  0.4123850000000  0.4762450000000  0.4517080000000 1.0
C      1  0.4463950000000  0.4087350000000  0.3567960000000 1.0
C      1  0.5225420000000  0.4416900000000  0.5697290000000 1.0
C      1  0.4220060000000  0.4126030000000  0.5086670000000 1.0
C      1  0.4753590000000  0.5493340000000  0.3996040000000 1.0
C      1  0.4514360000000  0.5769350000000  0.4637620000000 1.0
C      1  0.5996850000000  0.6111840000000  0.4717210000000 1.0
C      1  0.4535090000000  0.5194800000000  0.5724970000000 1.0
C      1  0.5358010000000  0.3944190000000  0.5672300000000 1.0
C      1  0.5351840000000  0.4246810000000  0.4148300000000 1.0
C      1  0.4865080000000  0.5572430000000  0.5209790000000 1.0
C      1  0.5158910000000  0.4326720000000  0.5130570000000 1.0
C      1  0.5047580000000  0.4556300000000  0.4608470000000 1.0
C      1  0.4658460000000  0.5419980000000  0.5600100000000 1.0
C      1  0.5490250000000  0.5166750000000  0.6363210000000 1.0
C      1  0.5318780000000  0.5825670000000  0.4298180000000 1.0
C      1  0.4097410000000  0.4805800000000  0.4979360000000 1.0
C      1  0.5280160000000  0.5975780000000  0.4537920000000 1.0
C      1  0.5473900000000  0.5428870000000  0.6318250000000 1.0
C      1  0.5942470000000  0.4954170000000  0.5791770000000 1.0
C      1  0.4854850000000  0.5122140000000  0.4269680000000 1.0
C      1  0.4445520000000  0.5416080000000  0.5103480000000 1.0
C      1  0.4933650000000  0.4508240000000  0.5113240000000 1.0
C      1  0.5388050000000  0.4473460000000  0.5213350000000 1.0
C      1  0.5318190000000  0.5512400000000  0.5077590000000 1.0
C      1  0.5048460000000  0.5119380000000  0.5109270000000 1.0
C      1  0.4963610000000  0.5328600000000  0.4111720000000 1.0
C      1  0.5482530000000  0.4908190000000  0.6298970000000 1.0
C      1  0.5875930000000  0.5541010000000  0.5027460000000 1.0
C      1  0.5638140000000  0.5472730000000  0.5485910000000 1.0
C      1  0.4762610000000  0.5942480000000  0.4564420000000 1.0
C      1  0.5838940000000  0.4531160000000  0.5513630000000 1.0
C      1  0.5358940000000  0.5594530000000  0.4164450000000 1.0
C      1  0.4866090000000  0.4558570000000  0.4837040000000 1.0
C      1  0.4277440000000  0.4879990000000  0.4319140000000 1.0
C      1  0.5812140000000  0.4712120000000  0.5738060000000 1.0
C      1  0.5141440000000  0.5063790000000  0.4655720000000 1.0
C      1  0.5028310000000  0.5806920000000  0.5636720000000 1.0
C      1  0.4664580000000  0.4069750000000  0.5620710000000 1.0
C      1  0.4930120000000  0.5057010000000  0.4854470000000 1.0
C      1  0.5394310000000  0.5791100000000  0.5952750000000 1.0
C      1  0.4528230000000  0.4769310000000  0.4251940000000 1.0
C      1  0.4820660000000  0.5464250000000  0.4579550000000 1.0
C      1  0.5089710000000  0.4123740000000  0.4235670000000 1.0
C      1  0.5154230000000  0.4941100000000  0.5689530000000 1.0
C      1  0.3914130000000  0.5197200000000  0.4743800000000 1.0
C      1  0.4602660000000  0.5279820000000  0.4594860000000 1.0
C      1  0.5539910000000  0.4994910000000  0.4386830000000 1.0
C      1  0.5522980000000  0.6037650000000  0.4677220000000 1.0
C      1  0.4612470000000  0.4345580000000  0.5642470000000 1.0
C      1  0.5148080000000  0.4103420000000  0.4518910000000 1.0
C      1  0.4769240000000  0.4872380000000  0.4367740000000 1.0
C      1  0.4061340000000  0.5235100000000  0.5974930000000 1.0
C      1  0.5181770000000  0.4548700000000  0.6136260000000 1.0
C      1  0.4023940000000  0.4940990000000  0.4730490000000 1.0
C      1  0.5252890000000  0.5335950000000  0.4115340000000 1.0
C      1  0.5819770000000  0.4948490000000  0.4474390000000 1.0
C      1  0.4646670000000  0.5103510000000  0.4813310000000 1.0
C      1  0.4086380000000  0.4528370000000  0.4902290000000 1.0
C      1  0.5666660000000  0.5900550000000  0.5291510000000 1.0
C      1  0.4803210000000  0.4196390000000  0.4205070000000 1.0
C      1  0.5789430000000  0.5819500000000  0.5041300000000 1.0
C      1  0.4456230000000  0.5133370000000  0.5028800000000 1.0
C      1  0.4437550000000  0.5630700000000  0.4368990000000 1.0
C      1  0.5681770000000  0.4291570000000  0.5555690000000 1.0
C      1  0.5505740000000  0.4859380000000  0.4846120000000 1.0
C      1  0.4165600000000  0.5979130000000  0.5336070000000 1.0
C      1  0.4886970000000  0.4878200000000  0.5578390000000 1.0
C      1  0.4397070000000  0.4726990000000  0.5348890000000 1.0
C      1  0.4631120000000  0.4158470000000  0.4456600000000 1.0
C      1  0.4922240000000  0.4737620000000  0.5316450000000 1.0
C      1  0.4734670000000  0.4339460000000  0.3961160000000 1.0
C      1  0.5803410000000  0.5376150000000  0.5264770000000 1.0
C      1  0.4584600000000  0.4815220000000  0.3961590000000 1.0
C      1  0.4311950000000  0.4906050000000  0.5140400000000 1.0
C      1  0.5909020000000  0.4612060000000  0.5239350000000 1.0
C      1  0.5482860000000  0.4377100000000  0.4386460000000 1.0
C      1  0.4624590000000  0.5474090000000  0.5319740000000 1.0
C      1  0.4669210000000  0.4942080000000  0.5749610000000 1.0
C      1  0.5317780000000  0.5802560000000  0.5679590000000 1.0
C      1  0.5305470000000  0.5786740000000  0.5022450000000 1.0
C      1  0.5872530000000  0.4661170000000  0.4476770000000 1.0
C      1  0.4646030000000  0.6106420000000  0.5502010000000 1.0
C      1  0.4074070000000  0.4945100000000  0.6368810000000 1.0
C      1  0.5508200000000  0.4110830000000  0.4884290000000 1.0
C      1  0.5311270000000  0.5178830000000  0.5724640000000 1.0
C      1  0.5867780000000  0.4421700000000  0.5025460000000 1.0
C      1  0.4628750000000  0.4730390000000  0.5939080000000 1.0
END
