TITL C-627110-360-322 -0.000659181472606507 125000 -1126.58757770371 0 0 183 (C1) n - 1
REM
REM in /home/nfs/bkarasulu/CARBON/AIRSS/Generating-Clusters/LCBOP/Only-C1/SD-CG/FIRE-CG
REM
REM
REM
REM
REM
REM ./C.cell (11c1c37f851c82e70ff6c80c92926a4b)
REM AIRSS Version 0.9.1 bugfix July 2018 build 013d7b7c2542+ Fri, 06 Jul 2018 19:26:36 +0100
REM compiler GCC version 9.2.1 20190827 (Red Hat 9.2.1-1)
REM options -cpp -mtune=generic -march=x86-64 -g -O0 -fpre-include=/usr/include/finclude/math-vector-fortran.h
REM seed 1208999195 -1204549269 -1920411868 -1555156736 231934208 992538248 -2088543687 1287350921 644199275 -1776087615 944409754 -1590632303 -2116707487 -1204923266 462162637 -2139418743 871343179 -26203713 832173491 -821810484 -670894496 -756481112 45364482 109260006 -1223477676 1212310830 1678811801 -1631698398 -1158214407 2098990479 -227398421 405480243 -1628143804
REM
CELL 1.54180   50.00000   50.00000   50.00000   90.00000   90.00000   90.00000
LATT -1
SFAC C  
C      1  0.4297600000000  0.4957960000000  0.4629170000000 1.0
C      1  0.5721810000000  0.4633780000000  0.5762180000000 1.0
C      1  0.3970480000000  0.5309090000000  0.4737710000000 1.0
C      1  0.4489830000000  0.4165460000000  0.5762780000000 1.0
C      1  0.5827500000000  0.5038090000000  0.6199490000000 1.0
C      1  0.4328890000000  0.4803880000000  0.5994960000000 1.0
C      1  0.4864620000000  0.4591190000000  0.5669710000000 1.0
C      1  0.4434260000000  0.4528790000000  0.4000720000000 1.0
C      1  0.3704040000000  0.4990560000000  0.5029330000000 1.0
C      1  0.4613890000000  0.5453590000000  0.4511060000000 1.0
C      1  0.5288000000000  0.4736390000000  0.4292530000000 1.0
C      1  0.4774310000000  0.4160460000000  0.5337060000000 1.0
C      1  0.4957630000000  0.5649540000000  0.5146100000000 1.0
C      1  0.6104700000000  0.4542030000000  0.4922320000000 1.0
C      1  0.4372320000000  0.5311240000000  0.5211840000000 1.0
C      1  0.4792140000000  0.5888360000000  0.4388490000000 1.0
C      1  0.5177690000000  0.5198140000000  0.3996080000000 1.0
C      1  0.5759810000000  0.5853020000000  0.4668990000000 1.0
C      1  0.5287750000000  0.4531720000000  0.5854050000000 1.0
C      1  0.4235430000000  0.4225190000000  0.4631170000000 1.0
C      1  0.5615520000000  0.5534260000000  0.5225230000000 1.0
C      1  0.5444020000000  0.4525630000000  0.4378490000000 1.0
C      1  0.4739400000000  0.4116360000000  0.5642350000000 1.0
C      1  0.5660360000000  0.5786520000000  0.5725800000000 1.0
C      1  0.5247980000000  0.3758340000000  0.4935150000000 1.0
C      1  0.5211360000000  0.5312520000000  0.6166620000000 1.0
C      1  0.4831050000000  0.3934460000000  0.4769000000000 1.0
C      1  0.4429990000000  0.5211930000000  0.5677950000000 1.0
C      1  0.4098450000000  0.4684390000000  0.5507640000000 1.0
C      1  0.5172820000000  0.5185240000000  0.4988230000000 1.0
C      1  0.4985960000000  0.5621450000000  0.4052620000000 1.0
C      1  0.4982880000000  0.4365200000000  0.5232520000000 1.0
C      1  0.5043960000000  0.5080610000000  0.6270720000000 1.0
C      1  0.5477670000000  0.5276380000000  0.4433950000000 1.0
C      1  0.5976520000000  0.5479090000000  0.4852270000000 1.0
C      1  0.4223830000000  0.4626230000000  0.5775720000000 1.0
C      1  0.4617210000000  0.5580780000000  0.4772120000000 1.0
C      1  0.5213290000000  0.4011260000000  0.5664500000000 1.0
C      1  0.5062070000000  0.5451560000000  0.5622970000000 1.0
C      1  0.5406580000000  0.5738950000000  0.5209780000000 1.0
C      1  0.4303990000000  0.4353170000000  0.5807070000000 1.0
C      1  0.5481660000000  0.5335530000000  0.6029960000000 1.0
C      1  0.5548330000000  0.5316760000000  0.5410160000000 1.0
C      1  0.4680610000000  0.5078490000000  0.5708620000000 1.0
C      1  0.4830380000000  0.5874720000000  0.5814640000000 1.0
C      1  0.4761640000000  0.4766840000000  0.5247520000000 1.0
C      1  0.5857650000000  0.4644320000000  0.4245970000000 1.0
C      1  0.5710970000000  0.4176400000000  0.4196400000000 1.0
C      1  0.6119710000000  0.4728490000000  0.4688340000000 1.0
C      1  0.5437030000000  0.5425920000000  0.4668180000000 1.0
C      1  0.4336460000000  0.4422520000000  0.4455350000000 1.0
C      1  0.5265350000000  0.4782140000000  0.5716820000000 1.0
C      1  0.5685240000000  0.5080780000000  0.4005700000000 1.0
C      1  0.4978850000000  0.3933820000000  0.4524600000000 1.0
C      1  0.4760770000000  0.5037930000000  0.5184610000000 1.0
C      1  0.5616970000000  0.4035260000000  0.5398450000000 1.0
C      1  0.4528710000000  0.5139880000000  0.5053350000000 1.0
C      1  0.5798730000000  0.5898390000000  0.4976890000000 1.0
C      1  0.5836470000000  0.5615450000000  0.5060680000000 1.0
C      1  0.5098870000000  0.4828390000000  0.4700380000000 1.0
C      1  0.4214410000000  0.6003900000000  0.4785840000000 1.0
C      1  0.4062220000000  0.4603950000000  0.5010480000000 1.0
C      1  0.4393680000000  0.4954260000000  0.4889380000000 1.0
C      1  0.5296660000000  0.4387170000000  0.4871770000000 1.0
C      1  0.5663250000000  0.4934040000000  0.4715840000000 1.0
C      1  0.5188700000000  0.4089940000000  0.4407610000000 1.0
C      1  0.3997150000000  0.5480800000000  0.4990630000000 1.0
C      1  0.4370610000000  0.5772280000000  0.4184240000000 1.0
C      1  0.4362280000000  0.5325810000000  0.4049350000000 1.0
C      1  0.4251720000000  0.5997050000000  0.4303790000000 1.0
C      1  0.5523590000000  0.5919110000000  0.4514850000000 1.0
C      1  0.5624170000000  0.5035850000000  0.5462940000000 1.0
C      1  0.3810100000000  0.4663080000000  0.4533890000000 1.0
C      1  0.4253230000000  0.4695260000000  0.4500400000000 1.0
C      1  0.3831660000000  0.5084410000000  0.5268400000000 1.0
C      1  0.4780320000000  0.6144610000000  0.5149230000000 1.0
C      1  0.5141550000000  0.5008140000000  0.5809550000000 1.0
C      1  0.5664100000000  0.5104560000000  0.5985610000000 1.0
C      1  0.4294640000000  0.5591620000000  0.3988560000000 1.0
C      1  0.4276120000000  0.4224820000000  0.5154520000000 1.0
C      1  0.5030010000000  0.4396910000000  0.4950480000000 1.0
C      1  0.4125430000000  0.4910480000000  0.4134620000000 1.0
C      1  0.4783830000000  0.4592060000000  0.4533610000000 1.0
C      1  0.4944050000000  0.5188180000000  0.5723790000000 1.0
C      1  0.4245320000000  0.5596700000000  0.5138500000000 1.0
C      1  0.4720090000000  0.4927330000000  0.4427760000000 1.0
C      1  0.4221810000000  0.5705310000000  0.5431350000000 1.0
C      1  0.5451860000000  0.4502500000000  0.4660510000000 1.0
C      1  0.4369670000000  0.5444030000000  0.5824780000000 1.0
C      1  0.4992810000000  0.5506300000000  0.6101390000000 1.0
C      1  0.4273560000000  0.5164840000000  0.5447050000000 1.0
C      1  0.4364740000000  0.4154850000000  0.4874060000000 1.0
C      1  0.5948230000000  0.4596930000000  0.5154770000000 1.0
C      1  0.4921440000000  0.3898480000000  0.5261370000000 1.0
C      1  0.4645510000000  0.5222480000000  0.4030840000000 1.0
C      1  0.5364380000000  0.4992570000000  0.3894830000000 1.0
C      1  0.3872730000000  0.4601980000000  0.4796450000000 1.0
C      1  0.5270090000000  0.4710170000000  0.3862630000000 1.0
C      1  0.4538050000000  0.4603900000000  0.5187790000000 1.0
C      1  0.4053940000000  0.4971410000000  0.5420940000000 1.0
C      1  0.4172220000000  0.5185930000000  0.4227020000000 1.0
C      1  0.5446870000000  0.5287560000000  0.4916800000000 1.0
C      1  0.4801580000000  0.4416190000000  0.4775010000000 1.0
C      1  0.4518320000000  0.4381910000000  0.4228860000000 1.0
C      1  0.4728690000000  0.5399990000000  0.6176200000000 1.0
C      1  0.6183200000000  0.4967350000000  0.5363090000000 1.0
C      1  0.4365230000000  0.6080500000000  0.4553950000000 1.0
C      1  0.5777080000000  0.6028660000000  0.5244330000000 1.0
C      1  0.5492070000000  0.4353230000000  0.5087620000000 1.0
C      1  0.5027960000000  0.4422650000000  0.5840000000000 1.0
C      1  0.5756420000000  0.4908570000000  0.4228670000000 1.0
C      1  0.4653460000000  0.4158580000000  0.4807860000000 1.0
C      1  0.5970900000000  0.5408670000000  0.4352970000000 1.0
C      1  0.6089310000000  0.4271420000000  0.4826680000000 1.0
C      1  0.5151640000000  0.5850600000000  0.5182050000000 1.0
C      1  0.5564080000000  0.4082300000000  0.5120700000000 1.0
C      1  0.6142460000000  0.5187820000000  0.4446430000000 1.0
C      1  0.4548790000000  0.6014560000000  0.5121210000000 1.0
C      1  0.5826400000000  0.5339360000000  0.4092810000000 1.0
C      1  0.4331700000000  0.4715130000000  0.5018990000000 1.0
C      1  0.5173220000000  0.4899550000000  0.4940560000000 1.0
C      1  0.4797980000000  0.4411150000000  0.4300020000000 1.0
C      1  0.4965780000000  0.5451510000000  0.5344310000000 1.0
C      1  0.3839150000000  0.5372900000000  0.5217830000000 1.0
C      1  0.5747380000000  0.4092790000000  0.4468620000000 1.0
C      1  0.4619710000000  0.4955910000000  0.4149230000000 1.0
C      1  0.4783850000000  0.5203200000000  0.4557600000000 1.0
C      1  0.4341770000000  0.5863740000000  0.5001040000000 1.0
C      1  0.5480090000000  0.4137330000000  0.5633070000000 1.0
C      1  0.4525190000000  0.4321830000000  0.5265350000000 1.0
C      1  0.4866570000000  0.5556080000000  0.4898210000000 1.0
C      1  0.5118740000000  0.3829060000000  0.5462790000000 1.0
C      1  0.4597170000000  0.5676820000000  0.4332880000000 1.0
C      1  0.4356330000000  0.5696800000000  0.5676880000000 1.0
C      1  0.5172230000000  0.4468120000000  0.3972310000000 1.0
C      1  0.6122580000000  0.5022780000000  0.4684160000000 1.0
C      1  0.5473270000000  0.3926830000000  0.4881650000000 1.0
C      1  0.5969740000000  0.4263020000000  0.4565780000000 1.0
C      1  0.5038450000000  0.5820120000000  0.4261090000000 1.0
C      1  0.4983760000000  0.4620030000000  0.5384500000000 1.0
C      1  0.4916630000000  0.5340220000000  0.3987470000000 1.0
C      1  0.5636530000000  0.5035680000000  0.4458530000000 1.0
C      1  0.5150800000000  0.4892530000000  0.4450150000000 1.0
C      1  0.5257050000000  0.4740780000000  0.5428710000000 1.0
C      1  0.4073700000000  0.4436870000000  0.5249360000000 1.0
C      1  0.4155130000000  0.5197170000000  0.4528810000000 1.0
C      1  0.3950410000000  0.6074780000000  0.4806670000000 1.0
C      1  0.4987600000000  0.5640030000000  0.5847220000000 1.0
C      1  0.5996850000000  0.5188700000000  0.4915100000000 1.0
C      1  0.5692640000000  0.5127950000000  0.4920720000000 1.0
C      1  0.4976050000000  0.3826530000000  0.4991570000000 1.0
C      1  0.6084580000000  0.4716970000000  0.5369060000000 1.0
C      1  0.5038470000000  0.6100620000000  0.5255710000000 1.0
C      1  0.5696160000000  0.4938620000000  0.5740370000000 1.0
C      1  0.5737590000000  0.5948300000000  0.5511490000000 1.0
C      1  0.5513630000000  0.5551450000000  0.5823360000000 1.0
C      1  0.5493450000000  0.4020220000000  0.4594220000000 1.0
C      1  0.5293170000000  0.5890680000000  0.4372170000000 1.0
C      1  0.4975390000000  0.5307000000000  0.4777090000000 1.0
C      1  0.4687060000000  0.4796400000000  0.5730130000000 1.0
C      1  0.4991080000000  0.4151370000000  0.5781440000000 1.0
C      1  0.4745030000000  0.5109830000000  0.6234150000000 1.0
C      1  0.4655550000000  0.6093740000000  0.4535290000000 1.0
C      1  0.5648530000000  0.4612110000000  0.5109500000000 1.0
C      1  0.5623390000000  0.4682920000000  0.4806340000000 1.0
C      1  0.5322540000000  0.5323050000000  0.4211140000000 1.0
C      1  0.5079630000000  0.6198380000000  0.5516360000000 1.0
C      1  0.5507510000000  0.4811690000000  0.5304100000000 1.0
C      1  0.4987500000000  0.5199000000000  0.5222710000000 1.0
C      1  0.4507170000000  0.5516550000000  0.6054420000000 1.0
C      1  0.6141480000000  0.5147790000000  0.5169660000000 1.0
C      1  0.5652090000000  0.4449960000000  0.4193830000000 1.0
C      1  0.6023390000000  0.4550630000000  0.4463020000000 1.0
C      1  0.4553140000000  0.5840490000000  0.5812970000000 1.0
C      1  0.3748730000000  0.5124510000000  0.4793030000000 1.0
C      1  0.4963360000000  0.6110650000000  0.5742300000000 1.0
C      1  0.4520160000000  0.4932490000000  0.6157070000000 1.0
C      1  0.5532420000000  0.4399800000000  0.5769450000000 1.0
C      1  0.5366480000000  0.5431980000000  0.5604600000000 1.0
C      1  0.4006630000000  0.4744820000000  0.4340980000000 1.0
C      1  0.5063940000000  0.4308770000000  0.4208300000000 1.0
C      1  0.5916940000000  0.5598900000000  0.4583600000000 1.0
C      1  0.4389360000000  0.4805620000000  0.4041250000000 1.0
END
