TITL C-627112-676-901 -0.00169041155775664 125000 -822.262802933505 0 0 135 (C1) n - 1
REM
REM in /home/nfs/bkarasulu/CARBON/AIRSS/Generating-Clusters/LCBOP/Only-C1/SD-CG/FIRE-CG
REM
REM
REM
REM
REM
REM ./C.cell (11c1c37f851c82e70ff6c80c92926a4b)
REM AIRSS Version 0.9.1 bugfix July 2018 build 013d7b7c2542+ Fri, 06 Jul 2018 19:26:36 +0100
REM compiler GCC version 9.2.1 20190827 (Red Hat 9.2.1-1)
REM options -cpp -mtune=generic -march=x86-64 -g -O0 -fpre-include=/usr/include/finclude/math-vector-fortran.h
REM seed 1684075263 -1865525490 -1075086201 -1003413696 855027497 679949858 -492503406 -1304125239 1360946430 1166677802 660150257 -766742469 1143201361 1340442534 -46697260 640333116 -1845573020 1811789288 164398207 -1540991423 -743098904 -1172234192 803922762 -2077139203 957099726 -292866434 -1305653745 -174480450 1035216666 -769317279 -386367172 -113114344 518042576
REM
CELL 1.54180   50.00000   50.00000   50.00000   90.00000   90.00000   90.00000
LATT -1
SFAC C  
C      1  0.5023980000000  0.5234750000000  0.5336640000000 1.0
C      1  0.4218370000000  0.4866080000000  0.5797390000000 1.0
C      1  0.6296270000000  0.5568040000000  0.5449240000000 1.0
C      1  0.4880250000000  0.5399230000000  0.4973920000000 1.0
C      1  0.4892080000000  0.4962150000000  0.3899470000000 1.0
C      1  0.4733930000000  0.5762830000000  0.4521370000000 1.0
C      1  0.5320350000000  0.3984920000000  0.5706080000000 1.0
C      1  0.5439780000000  0.4905420000000  0.3998030000000 1.0
C      1  0.4118240000000  0.5051040000000  0.4620930000000 1.0
C      1  0.4872660000000  0.6183360000000  0.5073270000000 1.0
C      1  0.5055950000000  0.4063050000000  0.5779590000000 1.0
C      1  0.4174920000000  0.4885240000000  0.4054030000000 1.0
C      1  0.4412600000000  0.5522060000000  0.5495970000000 1.0
C      1  0.4822890000000  0.4156370000000  0.4374560000000 1.0
C      1  0.4892680000000  0.4939800000000  0.4476330000000 1.0
C      1  0.5328230000000  0.5484650000000  0.4804220000000 1.0
C      1  0.4159400000000  0.5046250000000  0.5108890000000 1.0
C      1  0.4967210000000  0.5789710000000  0.4691370000000 1.0
C      1  0.4613740000000  0.4112960000000  0.5022320000000 1.0
C      1  0.4912060000000  0.5277250000000  0.5970620000000 1.0
C      1  0.4564570000000  0.4203760000000  0.4466160000000 1.0
C      1  0.5911490000000  0.4532000000000  0.4392290000000 1.0
C      1  0.5131050000000  0.4489330000000  0.5283300000000 1.0
C      1  0.4454650000000  0.5234800000000  0.5505550000000 1.0
C      1  0.5784610000000  0.5153390000000  0.5099760000000 1.0
C      1  0.4046860000000  0.4935840000000  0.5347460000000 1.0
C      1  0.6101900000000  0.5766690000000  0.5371910000000 1.0
C      1  0.5628420000000  0.4202320000000  0.4852470000000 1.0
C      1  0.5108560000000  0.4124800000000  0.4428500000000 1.0
C      1  0.4798890000000  0.4972380000000  0.5616100000000 1.0
C      1  0.4796430000000  0.5514310000000  0.5829320000000 1.0
C      1  0.4495410000000  0.5753080000000  0.4682120000000 1.0
C      1  0.4512000000000  0.4564580000000  0.3969490000000 1.0
C      1  0.4946240000000  0.4379620000000  0.5468850000000 1.0
C      1  0.4215050000000  0.4609210000000  0.5877300000000 1.0
C      1  0.5728040000000  0.6044410000000  0.5481110000000 1.0
C      1  0.5376560000000  0.5866720000000  0.4498000000000 1.0
C      1  0.4809080000000  0.5706650000000  0.4255370000000 1.0
C      1  0.5154860000000  0.5999600000000  0.4639780000000 1.0
C      1  0.5283660000000  0.5848910000000  0.5479460000000 1.0
C      1  0.5292400000000  0.6299250000000  0.5098530000000 1.0
C      1  0.5904060000000  0.5613070000000  0.5212100000000 1.0
C      1  0.5063710000000  0.5579580000000  0.4862840000000 1.0
C      1  0.5258040000000  0.5047480000000  0.5286210000000 1.0
C      1  0.4307870000000  0.5511940000000  0.4720480000000 1.0
C      1  0.4190450000000  0.4531360000000  0.4742010000000 1.0
C      1  0.5013930000000  0.4840710000000  0.4972710000000 1.0
C      1  0.5290170000000  0.5615020000000  0.4354210000000 1.0
C      1  0.4224220000000  0.5033970000000  0.5567340000000 1.0
C      1  0.4997740000000  0.4698920000000  0.3948540000000 1.0
C      1  0.5041400000000  0.4291810000000  0.5972170000000 1.0
C      1  0.5078780000000  0.4912520000000  0.6285990000000 1.0
C      1  0.5518490000000  0.4231290000000  0.5114850000000 1.0
C      1  0.5790020000000  0.5094120000000  0.4322230000000 1.0
C      1  0.5609330000000  0.5836040000000  0.4665160000000 1.0
C      1  0.4916410000000  0.5133820000000  0.4892570000000 1.0
C      1  0.5644710000000  0.5708520000000  0.5147560000000 1.0
C      1  0.4344540000000  0.5453410000000  0.5012420000000 1.0
C      1  0.5888680000000  0.5076460000000  0.4840780000000 1.0
C      1  0.4655170000000  0.5663680000000  0.5600290000000 1.0
C      1  0.4370410000000  0.4464310000000  0.5222920000000 1.0
C      1  0.5612670000000  0.4756020000000  0.4662750000000 1.0
C      1  0.5850560000000  0.5952620000000  0.4620440000000 1.0
C      1  0.4149420000000  0.4693150000000  0.4269680000000 1.0
C      1  0.4369640000000  0.5326090000000  0.4275270000000 1.0
C      1  0.4662480000000  0.4744700000000  0.5535270000000 1.0
C      1  0.5556880000000  0.4219430000000  0.4589110000000 1.0
C      1  0.4357850000000  0.4318550000000  0.4613640000000 1.0
C      1  0.4962090000000  0.5163500000000  0.6237040000000 1.0
C      1  0.4137110000000  0.4762720000000  0.4548940000000 1.0
C      1  0.5078820000000  0.4144200000000  0.4914400000000 1.0
C      1  0.5124630000000  0.6216000000000  0.4810550000000 1.0
C      1  0.4783410000000  0.4528690000000  0.5648800000000 1.0
C      1  0.5239220000000  0.4289010000000  0.5103140000000 1.0
C      1  0.4623420000000  0.5048560000000  0.3927530000000 1.0
C      1  0.6022380000000  0.4821770000000  0.4818120000000 1.0
C      1  0.4425400000000  0.4843630000000  0.3911580000000 1.0
C      1  0.5074350000000  0.6230130000000  0.5285370000000 1.0
C      1  0.5217370000000  0.4742100000000  0.6090050000000 1.0
C      1  0.4747970000000  0.4690930000000  0.4933310000000 1.0
C      1  0.4537790000000  0.5271980000000  0.4074100000000 1.0
C      1  0.5274460000000  0.4463490000000  0.6019980000000 1.0
C      1  0.3957500000000  0.4672940000000  0.5239500000000 1.0
C      1  0.4266800000000  0.4347560000000  0.5845890000000 1.0
C      1  0.4490740000000  0.4719530000000  0.5303660000000 1.0
C      1  0.4794330000000  0.4488810000000  0.4740790000000 1.0
C      1  0.5047220000000  0.5998440000000  0.5460090000000 1.0
C      1  0.4992470000000  0.5050800000000  0.5801450000000 1.0
C      1  0.5838680000000  0.5184070000000  0.4576650000000 1.0
C      1  0.4700610000000  0.5972780000000  0.5155560000000 1.0
C      1  0.4719550000000  0.5055410000000  0.4681980000000 1.0
C      1  0.4787990000000  0.4506840000000  0.3947510000000 1.0
C      1  0.4490570000000  0.4207050000000  0.5255460000000 1.0
C      1  0.4135760000000  0.4519610000000  0.5048100000000 1.0
C      1  0.5362480000000  0.4268410000000  0.4372770000000 1.0
C      1  0.4419140000000  0.4928950000000  0.5098340000000 1.0
C      1  0.5544630000000  0.5659490000000  0.4884270000000 1.0
C      1  0.4815440000000  0.4237800000000  0.4874840000000 1.0
C      1  0.5172830000000  0.4720120000000  0.4740970000000 1.0
C      1  0.5490100000000  0.4982920000000  0.5763800000000 1.0
C      1  0.4312360000000  0.4474050000000  0.4159940000000 1.0
C      1  0.5685990000000  0.4893590000000  0.4146990000000 1.0
C      1  0.4553240000000  0.4891030000000  0.4853710000000 1.0
C      1  0.5268340000000  0.4669050000000  0.4027410000000 1.0
C      1  0.4242080000000  0.5557070000000  0.5263240000000 1.0
C      1  0.5518240000000  0.4186510000000  0.5653250000000 1.0
C      1  0.4809020000000  0.4449780000000  0.5918640000000 1.0
C      1  0.5237970000000  0.4920080000000  0.5862430000000 1.0
C      1  0.4631040000000  0.5515980000000  0.5038370000000 1.0
C      1  0.5063160000000  0.5639630000000  0.4182400000000 1.0
C      1  0.5306740000000  0.5371510000000  0.4526350000000 1.0
C      1  0.4957640000000  0.4651640000000  0.4553700000000 1.0
C      1  0.5503900000000  0.4389600000000  0.5857830000000 1.0
C      1  0.5878990000000  0.4648980000000  0.4646130000000 1.0
C      1  0.5222860000000  0.5095430000000  0.4494770000000 1.0
C      1  0.5637460000000  0.5034020000000  0.5547610000000 1.0
C      1  0.4607440000000  0.5797080000000  0.4961490000000 1.0
C      1  0.4578500000000  0.4098820000000  0.5510620000000 1.0
C      1  0.5995700000000  0.6000020000000  0.5485270000000 1.0
C      1  0.4251740000000  0.5298070000000  0.4528960000000 1.0
C      1  0.4009460000000  0.5090030000000  0.4879540000000 1.0
C      1  0.4780110000000  0.5872330000000  0.5430410000000 1.0
C      1  0.5555530000000  0.5081930000000  0.5276640000000 1.0
C      1  0.4745990000000  0.5186050000000  0.5439650000000 1.0
C      1  0.5434510000000  0.4474060000000  0.4181760000000 1.0
C      1  0.5156870000000  0.4777590000000  0.5221430000000 1.0
C      1  0.5614810000000  0.4208980000000  0.5383900000000 1.0
C      1  0.5370370000000  0.4879930000000  0.4625640000000 1.0
C      1  0.4398130000000  0.4145710000000  0.5725090000000 1.0
C      1  0.6215330000000  0.5315480000000  0.5367770000000 1.0
C      1  0.5536200000000  0.5870280000000  0.5360540000000 1.0
C      1  0.4871300000000  0.4104040000000  0.5553630000000 1.0
C      1  0.5709170000000  0.4601320000000  0.4203470000000 1.0
C      1  0.5154210000000  0.3994480000000  0.4686370000000 1.0
C      1  0.5966420000000  0.5332190000000  0.5223900000000 1.0
END
