TITL C-627107-135-1988 7.88371323322532 125000 -167.829833271795 0 0 29 (C1) n - 1
REM
REM in /home/nfs/bkarasulu/CARBON/AIRSS/Generating-Clusters/LCBOP/Only-C1/SD-CG/FIRE-CG
REM
REM
REM
REM
REM
REM ./C.cell (11c1c37f851c82e70ff6c80c92926a4b)
REM AIRSS Version 0.9.1 bugfix July 2018 build 013d7b7c2542+ Fri, 06 Jul 2018 19:26:36 +0100
REM compiler GCC version 9.2.1 20190827 (Red Hat 9.2.1-1)
REM options -cpp -mtune=generic -march=x86-64 -g -O0 -fpre-include=/usr/include/finclude/math-vector-fortran.h
REM seed 1042847078 568174110 73250799 -1651438624 -138091613 1777352055 -606229350 1391932425 -649886388 -671098590 122972124 525897161 -365362198 -346933603 461495629 457956608 2143274908 1278948814 311105766 -1634469279 1623437896 1749696754 -1486105904 157879630 1160015742 1265253661 842823636 1667644933 -1053899208 1953989574 -1500663269 346027301 1673375297
REM
CELL 1.54180   50.00000   50.00000   50.00000   90.00000   90.00000   90.00000
LATT -1
SFAC C  
C      1  0.5100630000000  0.6013920000000  0.5153330000000 1.0
C      1  0.4913910000000  0.5316510000000  0.5067420000000 1.0
C      1  0.5107750000000  0.6260540000000  0.5250040000000 1.0
C      1  0.5101920000000  0.3827660000000  0.5392470000000 1.0
C      1  0.4621590000000  0.3963580000000  0.4861090000000 1.0
C      1  0.4795320000000  0.5068620000000  0.5115300000000 1.0
C      1  0.5238350000000  0.4546350000000  0.4551180000000 1.0
C      1  0.4644850000000  0.4549360000000  0.5265540000000 1.0
C      1  0.5228890000000  0.3710610000000  0.5587760000000 1.0
C      1  0.5179950000000  0.4820790000000  0.4532690000000 1.0
C      1  0.5085610000000  0.5507650000000  0.4955370000000 1.0
C      1  0.4924460000000  0.4342090000000  0.4912420000000 1.0
C      1  0.5249230000000  0.5433870000000  0.4740050000000 1.0
C      1  0.5345500000000  0.5021760000000  0.4421750000000 1.0
C      1  0.4805310000000  0.4572660000000  0.5031810000000 1.0
C      1  0.5343830000000  0.5270260000000  0.4552950000000 1.0
C      1  0.5122000000000  0.6753840000000  0.5443470000000 1.0
C      1  0.4973040000000  0.3947410000000  0.5194380000000 1.0
C      1  0.5124390000000  0.4367420000000  0.4715980000000 1.0
C      1  0.4635700000000  0.5013220000000  0.5342700000000 1.0
C      1  0.5114870000000  0.6507150000000  0.5346740000000 1.0
C      1  0.4839010000000  0.4082350000000  0.4989950000000 1.0
C      1  0.5496430000000  0.4978250000000  0.4198630000000 1.0
C      1  0.5129000000000  0.6996460000000  0.5538610000000 1.0
C      1  0.5093500000000  0.5767410000000  0.5056680000000 1.0
C      1  0.4416260000000  0.3858410000000  0.4739870000000 1.0
C      1  0.4957160000000  0.4895330000000  0.4687670000000 1.0
C      1  0.4564460000000  0.4761480000000  0.5414110000000 1.0
C      1  0.4847080000000  0.4845040000000  0.4940050000000 1.0
END
