TITL C-627113-6568-599 305859.408614918 125000 -1131.8065314809 0 0 185 (C1) n - 1
REM
REM in /home/nfs/bkarasulu/CARBON/AIRSS/Generating-Clusters/LCBOP/Only-C1/SD-CG/FIRE-CG
REM
REM
REM
REM
REM
REM ./C.cell (11c1c37f851c82e70ff6c80c92926a4b)
REM AIRSS Version 0.9.1 bugfix July 2018 build 013d7b7c2542+ Fri, 06 Jul 2018 19:26:36 +0100
REM compiler GCC version 9.2.1 20190827 (Red Hat 9.2.1-1)
REM options -cpp -mtune=generic -march=x86-64 -g -O0 -fpre-include=/usr/include/finclude/math-vector-fortran.h
REM seed -175953219 -792184611 1087688233 -50210323 863369054 -696974736 -121127607 -176394619 -1568344366 1648359719 899122941 -2111584126 1892724407 -2072030142 -1441989992 1980597687 1741741852 420466092 355686432 -1751602171 1767189308 -28280765 1712016544 406561654 -1176397073 -267760852 -1431414404 -1440888774 -979056720 -736125671 -2085846075 -866729931 791756530
REM
CELL 1.54180   50.00000   50.00000   50.00000   90.00000   90.00000   90.00000
LATT -1
SFAC C  
C      1  0.4378260000000  0.5041000000000  0.4460680000000 1.0
C      1  0.6108900000000  0.4532980000000  0.4525280000000 1.0
C      1  0.4687190000000  0.4548550000000  0.4083390000000 1.0
C      1  0.5229640000000  0.4824470000000  0.5065070000000 1.0
C      1  0.5469740000000  0.5520580000000  0.4629190000000 1.0
C      1  0.4796930000000  0.3748990000000  0.4982860000000 1.0
C      1  0.4711000000000  0.5650960000000  0.4079520000000 1.0
C      1  0.5628350000000  0.5571720000000  0.5395550000000 1.0
C      1  0.4360690000000  0.6099740000000  0.5484730000000 1.0
C      1  0.5349180000000  0.5512920000000  0.5984890000000 1.0
C      1  0.5054190000000  0.4896120000000  0.5496580000000 1.0
C      1  0.6533110000000  0.4518270000000  0.6217340000000 1.0
C      1  0.5009070000000  0.5462500000000  0.4949700000000 1.0
C      1  0.4220640000000  0.5279550000000  0.5807800000000 1.0
C      1  0.6127350000000  0.5779670000000  0.4843860000000 1.0
C      1  0.5094610000000  0.4729220000000  0.4819540000000 1.0
C      1  0.4938750000000  0.4676240000000  0.3977450000000 1.0
C      1  0.5152640000000  0.4966770000000  0.4015950000000 1.0
C      1  0.5883150000000  0.5235020000000  0.4970760000000 1.0
C      1  0.5370000000000  0.6090630000000  0.4886660000000 1.0
C      1  0.4307360000000  0.4915770000000  0.5395790000000 1.0
C      1  0.4766730000000  0.5263930000000  0.4293460000000 1.0
C      1  0.3858650000000  0.4782310000000  0.5444480000000 1.0
C      1  0.4287140000000  0.4591040000000  0.4566390000000 1.0
C      1  0.5775280000000  0.5930210000000  0.5149560000000 1.0
C      1  0.5862180000000  0.5346620000000  0.4442740000000 1.0
C      1  0.4686130000000  0.3830500000000  0.4506870000000 1.0
C      1  0.5976760000000  0.5431700000000  0.5168500000000 1.0
C      1  0.3890080000000  0.5076020000000  0.5405710000000 1.0
C      1  0.4856210000000  0.4304310000000  0.4989300000000 1.0
C      1  0.3807620000000  0.5046380000000  0.4888380000000 1.0
C      1  0.4561830000000  0.5790590000000  0.4760420000000 1.0
C      1  0.5019540000000  0.5607500000000  0.4674280000000 1.0
C      1  0.4171270000000  0.4048060000000  0.4784020000000 1.0
C      1  0.5051220000000  0.4080170000000  0.4372740000000 1.0
C      1  0.4373040000000  0.3958060000000  0.5202950000000 1.0
C      1  0.6369380000000  0.4731170000000  0.6218080000000 1.0
C      1  0.5781570000000  0.4189690000000  0.4370090000000 1.0
C      1  0.3996480000000  0.5536660000000  0.4758900000000 1.0
C      1  0.4530730000000  0.4063220000000  0.4403590000000 1.0
C      1  0.5376060000000  0.5706250000000  0.3761420000000 1.0
C      1  0.5400610000000  0.4880480000000  0.4155390000000 1.0
C      1  0.4640000000000  0.5396370000000  0.4509020000000 1.0
C      1  0.4220480000000  0.6055710000000  0.4537200000000 1.0
C      1  0.4289940000000  0.5386690000000  0.5350090000000 1.0
C      1  0.5685450000000  0.4903730000000  0.4120480000000 1.0
C      1  0.4867200000000  0.6034510000000  0.5177690000000 1.0
C      1  0.5797010000000  0.4849680000000  0.5480930000000 1.0
C      1  0.3896180000000  0.4523930000000  0.5348550000000 1.0
C      1  0.4433750000000  0.5139680000000  0.5270670000000 1.0
C      1  0.3804640000000  0.6384760000000  0.5015150000000 1.0
C      1  0.4382720000000  0.6304760000000  0.5645100000000 1.0
C      1  0.5337680000000  0.5853560000000  0.5645640000000 1.0
C      1  0.4754140000000  0.5684130000000  0.4558340000000 1.0
C      1  0.4836210000000  0.5382470000000  0.4045610000000 1.0
C      1  0.3579330000000  0.6515810000000  0.5010430000000 1.0
C      1  0.5349090000000  0.5682450000000  0.4029930000000 1.0
C      1  0.5330560000000  0.4478470000000  0.5362740000000 1.0
C      1  0.4455640000000  0.4710480000000  0.4125010000000 1.0
C      1  0.5629610000000  0.3954570000000  0.4435850000000 1.0
C      1  0.5265620000000  0.4100760000000  0.6379910000000 1.0
C      1  0.5204470000000  0.4655120000000  0.5564050000000 1.0
C      1  0.5792640000000  0.4334300000000  0.4828940000000 1.0
C      1  0.6283530000000  0.4108990000000  0.6105860000000 1.0
C      1  0.5596440000000  0.5471590000000  0.5842130000000 1.0
C      1  0.5445430000000  0.3792130000000  0.4554960000000 1.0
C      1  0.5676340000000  0.5828210000000  0.4327330000000 1.0
C      1  0.4149810000000  0.4831060000000  0.5888820000000 1.0
C      1  0.5833410000000  0.4637800000000  0.4123540000000 1.0
C      1  0.4371260000000  0.5998990000000  0.4771030000000 1.0
C      1  0.3893280000000  0.5703210000000  0.4574880000000 1.0
C      1  0.6025160000000  0.4169580000000  0.6064540000000 1.0
C      1  0.5875290000000  0.5639900000000  0.4420970000000 1.0
C      1  0.5530940000000  0.5576530000000  0.4880420000000 1.0
C      1  0.5300940000000  0.4443140000000  0.4354760000000 1.0
C      1  0.5096900000000  0.4252460000000  0.4830870000000 1.0
C      1  0.4025490000000  0.6238450000000  0.5017290000000 1.0
C      1  0.5973940000000  0.5221630000000  0.4699580000000 1.0
C      1  0.5170240000000  0.5969630000000  0.4376460000000 1.0
C      1  0.5571330000000  0.5688020000000  0.5641210000000 1.0
C      1  0.5016200000000  0.4137110000000  0.5436030000000 1.0
C      1  0.4636420000000  0.3692720000000  0.4750000000000 1.0
C      1  0.6149430000000  0.5005740000000  0.4619990000000 1.0
C      1  0.5411300000000  0.5880880000000  0.4224560000000 1.0
C      1  0.4968660000000  0.3830350000000  0.4459280000000 1.0
C      1  0.5774270000000  0.5273650000000  0.5701480000000 1.0
C      1  0.5672380000000  0.4822340000000  0.5941570000000 1.0
C      1  0.5250500000000  0.4574690000000  0.5831930000000 1.0
C      1  0.5662350000000  0.5069380000000  0.5058220000000 1.0
C      1  0.4596390000000  0.4828590000000  0.5708340000000 1.0
C      1  0.5240500000000  0.4833740000000  0.4606430000000 1.0
C      1  0.4815140000000  0.4138900000000  0.5227940000000 1.0
C      1  0.6102480000000  0.4966090000000  0.4329780000000 1.0
C      1  0.6074980000000  0.4685460000000  0.4275310000000 1.0
C      1  0.5466280000000  0.4636750000000  0.5152900000000 1.0
C      1  0.5398800000000  0.4754360000000  0.5998500000000 1.0
C      1  0.6112430000000  0.4787880000000  0.6166940000000 1.0
C      1  0.5493990000000  0.6028400000000  0.5150970000000 1.0
C      1  0.4697590000000  0.4528650000000  0.4965530000000 1.0
C      1  0.4063520000000  0.4375620000000  0.5158030000000 1.0
C      1  0.4236190000000  0.6052490000000  0.5020620000000 1.0
C      1  0.4689570000000  0.5112680000000  0.5106670000000 1.0
C      1  0.4154690000000  0.5168580000000  0.4332890000000 1.0
C      1  0.4297030000000  0.5932130000000  0.5269120000000 1.0
C      1  0.4495630000000  0.5557850000000  0.4921090000000 1.0
C      1  0.4195100000000  0.4749450000000  0.4005370000000 1.0
C      1  0.4424490000000  0.4772950000000  0.4401970000000 1.0
C      1  0.4495300000000  0.4573670000000  0.5155110000000 1.0
C      1  0.4646620000000  0.4275910000000  0.4212790000000 1.0
C      1  0.5258890000000  0.5453590000000  0.4178060000000 1.0
C      1  0.5170590000000  0.5713890000000  0.5856690000000 1.0
C      1  0.4808020000000  0.4740840000000  0.4823550000000 1.0
C      1  0.5512170000000  0.5565300000000  0.5144670000000 1.0
C      1  0.5186840000000  0.5230580000000  0.4863350000000 1.0
C      1  0.4323810000000  0.4819230000000  0.5667090000000 1.0
C      1  0.4146940000000  0.4701020000000  0.4789260000000 1.0
C      1  0.4223730000000  0.5481240000000  0.4890380000000 1.0
C      1  0.3947070000000  0.4960450000000  0.4389050000000 1.0
C      1  0.4705410000000  0.5093750000000  0.5749660000000 1.0
C      1  0.4956290000000  0.5140870000000  0.5614840000000 1.0
C      1  0.5097250000000  0.3799100000000  0.4929110000000 1.0
C      1  0.5237820000000  0.6072570000000  0.4644700000000 1.0
C      1  0.5298240000000  0.5960590000000  0.5374740000000 1.0
C      1  0.5852580000000  0.5392360000000  0.5431640000000 1.0
C      1  0.5598200000000  0.4459380000000  0.4957930000000 1.0
C      1  0.4523310000000  0.5314450000000  0.5821410000000 1.0
C      1  0.3994850000000  0.5926480000000  0.4461980000000 1.0
C      1  0.4654900000000  0.3913180000000  0.5176210000000 1.0
C      1  0.4661300000000  0.4984170000000  0.4840820000000 1.0
C      1  0.4110250000000  0.5083240000000  0.5983760000000 1.0
C      1  0.5155630000000  0.4310450000000  0.5893830000000 1.0
C      1  0.5231590000000  0.5516200000000  0.4474370000000 1.0
C      1  0.6079990000000  0.5755190000000  0.4580850000000 1.0
C      1  0.4719300000000  0.5396650000000  0.5003690000000 1.0
C      1  0.6500030000000  0.4255600000000  0.6169420000000 1.0
C      1  0.4226600000000  0.5407070000000  0.4182810000000 1.0
C      1  0.5286530000000  0.4359030000000  0.4080750000000 1.0
C      1  0.5232040000000  0.4062530000000  0.5020000000000 1.0
C      1  0.4154900000000  0.4369870000000  0.4443730000000 1.0
C      1  0.4527530000000  0.4336040000000  0.5610300000000 1.0
C      1  0.5056920000000  0.5851440000000  0.5265180000000 1.0
C      1  0.5980560000000  0.5723920000000  0.5080660000000 1.0
C      1  0.5175120000000  0.3740040000000  0.4647720000000 1.0
C      1  0.5157810000000  0.4281320000000  0.4544370000000 1.0
C      1  0.3963110000000  0.4735640000000  0.4188130000000 1.0
C      1  0.5684910000000  0.4836500000000  0.5227540000000 1.0
C      1  0.4415730000000  0.5593300000000  0.4098860000000 1.0
C      1  0.5280450000000  0.4037570000000  0.6632400000000 1.0
C      1  0.4538760000000  0.5162410000000  0.4651520000000 1.0
C      1  0.4986370000000  0.4922870000000  0.5228460000000 1.0
C      1  0.4633070000000  0.5581980000000  0.5800210000000 1.0
C      1  0.4229990000000  0.4583500000000  0.5040310000000 1.0
C      1  0.5102430000000  0.5264030000000  0.4014150000000 1.0
C      1  0.4854510000000  0.5822600000000  0.4295460000000 1.0
C      1  0.5378320000000  0.5088840000000  0.5015170000000 1.0
C      1  0.5229690000000  0.4183740000000  0.6130860000000 1.0
C      1  0.4268950000000  0.4124710000000  0.4526420000000 1.0
C      1  0.4782160000000  0.6269160000000  0.5100790000000 1.0
C      1  0.5753400000000  0.4988460000000  0.5722780000000 1.0
C      1  0.5027800000000  0.5380250000000  0.5459640000000 1.0
C      1  0.5152650000000  0.5103160000000  0.4605610000000 1.0
C      1  0.4084290000000  0.5278250000000  0.5538150000000 1.0
C      1  0.5876400000000  0.4669970000000  0.6068180000000 1.0
C      1  0.3937050000000  0.4464510000000  0.4286650000000 1.0
C      1  0.5273000000000  0.4870560000000  0.6219400000000 1.0
C      1  0.5126560000000  0.4477650000000  0.3897520000000 1.0
C      1  0.4959200000000  0.5105800000000  0.4408810000000 1.0
C      1  0.5142860000000  0.4979540000000  0.6417110000000 1.0
C      1  0.3799990000000  0.5142550000000  0.5140120000000 1.0
C      1  0.5870400000000  0.4388050000000  0.6058020000000 1.0
C      1  0.4167410000000  0.4108190000000  0.5067070000000 1.0
C      1  0.5063740000000  0.5566590000000  0.5234880000000 1.0
C      1  0.3941350000000  0.4892870000000  0.4691490000000 1.0
C      1  0.4491260000000  0.5735210000000  0.5616280000000 1.0
C      1  0.5758840000000  0.4361220000000  0.4138580000000 1.0
C      1  0.4890360000000  0.5675190000000  0.5877560000000 1.0
C      1  0.5342690000000  0.4716000000000  0.4384100000000 1.0
C      1  0.5926180000000  0.4321740000000  0.4583810000000 1.0
C      1  0.4694400000000  0.4200410000000  0.5771910000000 1.0
C      1  0.4355320000000  0.5663970000000  0.5379000000000 1.0
C      1  0.4970040000000  0.4184240000000  0.5712790000000 1.0
C      1  0.5859270000000  0.5120140000000  0.4243990000000 1.0
C      1  0.5258840000000  0.4200200000000  0.5292650000000 1.0
C      1  0.4564310000000  0.4542440000000  0.5434320000000 1.0
C      1  0.6191350000000  0.4737550000000  0.4717550000000 1.0
END
