TITL C-627113-6568-1957 63.4044682864826 125000 -183.221761383988 0 0 32 (C1) n - 1
REM
REM in /home/nfs/bkarasulu/CARBON/AIRSS/Generating-Clusters/LCBOP/Only-C1/SD-CG/FIRE-CG
REM
REM
REM
REM
REM
REM ./C.cell (11c1c37f851c82e70ff6c80c92926a4b)
REM AIRSS Version 0.9.1 bugfix July 2018 build 013d7b7c2542+ Fri, 06 Jul 2018 19:26:36 +0100
REM compiler GCC version 9.2.1 20190827 (Red Hat 9.2.1-1)
REM options -cpp -mtune=generic -march=x86-64 -g -O0 -fpre-include=/usr/include/finclude/math-vector-fortran.h
REM seed 1172854340 1372062521 -553873622 -1665839265 1378839307 561781712 -1953574293 412857158 -1877471200 -1654493149 1001057224 -1435089653 -585578770 644467438 76152471 -1894526986 -2049554632 -1606660048 1555818646 -535671404 293677054 2040472199 -2108377813 -964448648 1996114618 1341909719 -1693929328 -426384462 287199512 -327489857 -196649068 -1179012879 771715908
REM
CELL 1.54180   50.00000   50.00000   50.00000   90.00000   90.00000   90.00000
LATT -1
SFAC C  
C      1  0.4686210000000  0.5500510000000  0.4052810000000 1.0
C      1  0.4908530000000  0.5406240000000  0.4697060000000 1.0
C      1  0.4676500000000  0.5024930000000  0.4133820000000 1.0
C      1  0.5100980000000  0.5762810000000  0.4125970000000 1.0
C      1  0.4340150000000  0.3768850000000  0.5037850000000 1.0
C      1  0.4763060000000  0.4455840000000  0.4974880000000 1.0
C      1  0.4478700000000  0.3993870000000  0.5017220000000 1.0
C      1  0.5477320000000  0.4899840000000  0.5615650000000 1.0
C      1  0.6238620000000  0.4935400000000  0.6224600000000 1.0
C      1  0.4835410000000  0.5214790000000  0.5477230000000 1.0
C      1  0.5512460000000  0.5366540000000  0.5737260000000 1.0
C      1  0.4965400000000  0.4513180000000  0.5158710000000 1.0
C      1  0.4672800000000  0.5232880000000  0.3957280000000 1.0
C      1  0.5417100000000  0.5607710000000  0.5711480000000 1.0
C      1  0.4709580000000  0.5319060000000  0.4512700000000 1.0
C      1  0.5605030000000  0.5103720000000  0.5757550000000 1.0
C      1  0.5184270000000  0.5714260000000  0.4376850000000 1.0
C      1  0.4875550000000  0.5268420000000  0.5220790000000 1.0
C      1  0.4707110000000  0.4636480000000  0.4769320000000 1.0
C      1  0.4902800000000  0.5331550000000  0.4965000000000 1.0
C      1  0.4800840000000  0.5159010000000  0.5729540000000 1.0
C      1  0.4203890000000  0.3547520000000  0.5058140000000 1.0
C      1  0.4889910000000  0.5680390000000  0.3979600000000 1.0
C      1  0.4606290000000  0.5512230000000  0.4328390000000 1.0
C      1  0.5108840000000  0.5576340000000  0.4593980000000 1.0
C      1  0.4689650000000  0.5047410000000  0.4418160000000 1.0
C      1  0.4683500000000  0.4827910000000  0.4587950000000 1.0
C      1  0.5329080000000  0.4734380000000  0.5471390000000 1.0
C      1  0.5155010000000  0.4604580000000  0.5319500000000 1.0
C      1  0.6033400000000  0.4989670000000  0.6073250000000 1.0
C      1  0.4617140000000  0.4218750000000  0.4996600000000 1.0
C      1  0.5824850000000  0.5044940000000  0.5919470000000 1.0
END
