TITL C-627108-131-1185 -7.7967863416821e-07 125000 -541.284358601821 0 0 90 (C1) n - 1
REM
REM in /home/nfs/bkarasulu/CARBON/AIRSS/Generating-Clusters/LCBOP/Only-C1/SD-CG/FIRE-CG
REM
REM
REM
REM
REM
REM ./C.cell (11c1c37f851c82e70ff6c80c92926a4b)
REM AIRSS Version 0.9.1 bugfix July 2018 build 013d7b7c2542+ Fri, 06 Jul 2018 19:26:36 +0100
REM compiler GCC version 9.2.1 20190827 (Red Hat 9.2.1-1)
REM options -cpp -mtune=generic -march=x86-64 -g -O0 -fpre-include=/usr/include/finclude/math-vector-fortran.h
REM seed -1924400866 -1165613270 -1557447337 343592322 -1881981042 1944063669 -2043667380 -401140623 -1040641499 -1171870555 1242577658 -1317323511 437382625 593357721 1597120108 -1862089297 -1480742053 861193867 -1913111828 -925984032 1798947188 2032263094 -867241759 -191962295 168005307 773067834 -1061080767 -648704639 -167164376 1866262212 -27821699 -1380752337 -1610865596
REM
CELL 1.54180   50.00000   50.00000   50.00000   90.00000   90.00000   90.00000
LATT -1
SFAC C  
C      1  0.5432200000000  0.6114040000000  0.5134210000000 1.0
C      1  0.4342590000000  0.5703120000000  0.4390890000000 1.0
C      1  0.4800240000000  0.3811390000000  0.5110540000000 1.0
C      1  0.5662180000000  0.5553750000000  0.4906020000000 1.0
C      1  0.4154310000000  0.4236240000000  0.4943120000000 1.0
C      1  0.5192040000000  0.4140160000000  0.5205000000000 1.0
C      1  0.4361670000000  0.4734670000000  0.4829640000000 1.0
C      1  0.5555430000000  0.4933870000000  0.5960590000000 1.0
C      1  0.4063890000000  0.5018180000000  0.3981520000000 1.0
C      1  0.5948080000000  0.5319540000000  0.5345250000000 1.0
C      1  0.4746820000000  0.5225240000000  0.4104930000000 1.0
C      1  0.5142610000000  0.4803200000000  0.5104690000000 1.0
C      1  0.4899960000000  0.5036260000000  0.5776200000000 1.0
C      1  0.4642190000000  0.5007000000000  0.5374820000000 1.0
C      1  0.5760020000000  0.4470460000000  0.4879200000000 1.0
C      1  0.4502950000000  0.4501020000000  0.4770670000000 1.0
C      1  0.4791800000000  0.4484360000000  0.4846580000000 1.0
C      1  0.5736990000000  0.5337410000000  0.4738880000000 1.0
C      1  0.5480050000000  0.5864600000000  0.5262520000000 1.0
C      1  0.5669930000000  0.4821400000000  0.5726610000000 1.0
C      1  0.4253870000000  0.5944350000000  0.4347940000000 1.0
C      1  0.5655800000000  0.5000720000000  0.4404280000000 1.0
C      1  0.5340000000000  0.4206090000000  0.4970390000000 1.0
C      1  0.4653580000000  0.5133640000000  0.4737110000000 1.0
C      1  0.4931980000000  0.4700020000000  0.4257780000000 1.0
C      1  0.5401580000000  0.5157680000000  0.5961410000000 1.0
C      1  0.5630630000000  0.5276350000000  0.4480010000000 1.0
C      1  0.5197750000000  0.5369920000000  0.4228300000000 1.0
C      1  0.4858410000000  0.5750200000000  0.4951030000000 1.0
C      1  0.5460250000000  0.4458320000000  0.4846600000000 1.0
C      1  0.4102070000000  0.4483820000000  0.5615120000000 1.0
C      1  0.4947840000000  0.5446040000000  0.4099890000000 1.0
C      1  0.5618700000000  0.5636890000000  0.5174000000000 1.0
C      1  0.4916880000000  0.4030680000000  0.5240260000000 1.0
C      1  0.4540140000000  0.4936260000000  0.4900270000000 1.0
C      1  0.5221450000000  0.4296140000000  0.5450720000000 1.0
C      1  0.4514310000000  0.5475340000000  0.5172460000000 1.0
C      1  0.4382820000000  0.4236160000000  0.4776980000000 1.0
C      1  0.5868840000000  0.4323430000000  0.5685650000000 1.0
C      1  0.4887080000000  0.4682440000000  0.5052320000000 1.0
C      1  0.4679220000000  0.4865160000000  0.5135960000000 1.0
C      1  0.4976260000000  0.4336780000000  0.5573690000000 1.0
C      1  0.4634730000000  0.5293370000000  0.5369810000000 1.0
C      1  0.5373930000000  0.4589690000000  0.4573750000000 1.0
C      1  0.4472100000000  0.5349690000000  0.4701250000000 1.0
C      1  0.5304680000000  0.5825790000000  0.5486390000000 1.0
C      1  0.5112430000000  0.4698940000000  0.4500760000000 1.0
C      1  0.4936740000000  0.5141020000000  0.4726330000000 1.0
C      1  0.4112860000000  0.5230900000000  0.5023660000000 1.0
C      1  0.5675820000000  0.4997940000000  0.5502760000000 1.0
C      1  0.5026940000000  0.5276710000000  0.5682670000000 1.0
C      1  0.4846120000000  0.5437560000000  0.5527770000000 1.0
C      1  0.5903680000000  0.5032780000000  0.5321010000000 1.0
C      1  0.4718670000000  0.4901720000000  0.5625940000000 1.0
C      1  0.5768220000000  0.4561920000000  0.5715920000000 1.0
C      1  0.5312370000000  0.5276160000000  0.5715690000000 1.0
C      1  0.4484460000000  0.5271300000000  0.4207230000000 1.0
C      1  0.4853640000000  0.4223800000000  0.4726300000000 1.0
C      1  0.4608830000000  0.4059550000000  0.4750220000000 1.0
C      1  0.5033080000000  0.5911540000000  0.5476650000000 1.0
C      1  0.5519470000000  0.5258560000000  0.5515850000000 1.0
C      1  0.4823500000000  0.5953380000000  0.4773670000000 1.0
C      1  0.5919310000000  0.4661830000000  0.4982850000000 1.0
C      1  0.4123740000000  0.4453920000000  0.5130590000000 1.0
C      1  0.4028450000000  0.4974690000000  0.5062550000000 1.0
C      1  0.5013410000000  0.6173080000000  0.5361490000000 1.0
C      1  0.4493950000000  0.4282380000000  0.5414920000000 1.0
C      1  0.5166230000000  0.5087150000000  0.5124760000000 1.0
C      1  0.5102010000000  0.4988720000000  0.4560110000000 1.0
C      1  0.4903810000000  0.4977370000000  0.4152650000000 1.0
C      1  0.5051570000000  0.4144860000000  0.4556480000000 1.0
C      1  0.5926640000000  0.4932870000000  0.5056540000000 1.0
C      1  0.4841660000000  0.5710730000000  0.5432080000000 1.0
C      1  0.4133970000000  0.4716680000000  0.5005580000000 1.0
C      1  0.5692880000000  0.5451650000000  0.5375660000000 1.0
C      1  0.5450910000000  0.5441820000000  0.4329620000000 1.0
C      1  0.4643880000000  0.3819260000000  0.4890770000000 1.0
C      1  0.5371900000000  0.4662380000000  0.5051410000000 1.0
C      1  0.5893490000000  0.5131110000000  0.4856270000000 1.0
C      1  0.5072990000000  0.5274410000000  0.4936420000000 1.0
C      1  0.4692690000000  0.5707290000000  0.5178710000000 1.0
C      1  0.5208890000000  0.6261820000000  0.5191180000000 1.0
C      1  0.4433080000000  0.5442510000000  0.4435440000000 1.0
C      1  0.5583990000000  0.4743810000000  0.4446910000000 1.0
C      1  0.5059640000000  0.5553210000000  0.4927080000000 1.0
C      1  0.5135750000000  0.5101350000000  0.4298490000000 1.0
C      1  0.4338490000000  0.5396540000000  0.4959040000000 1.0
C      1  0.4762950000000  0.4203170000000  0.5428620000000 1.0
C      1  0.4238770000000  0.4407330000000  0.5390420000000 1.0
C      1  0.4267280000000  0.5143420000000  0.4085700000000 1.0
END
