TITL C-627107-135-1922 1596.66274224737 125000 -1029.90474961885 0 0 166 (C1) n - 1
REM
REM in /home/nfs/bkarasulu/CARBON/AIRSS/Generating-Clusters/LCBOP/Only-C1/SD-CG/FIRE-CG
REM
REM
REM
REM
REM
REM ./C.cell (11c1c37f851c82e70ff6c80c92926a4b)
REM AIRSS Version 0.9.1 bugfix July 2018 build 013d7b7c2542+ Fri, 06 Jul 2018 19:26:36 +0100
REM compiler GCC version 9.2.1 20190827 (Red Hat 9.2.1-1)
REM options -cpp -mtune=generic -march=x86-64 -g -O0 -fpre-include=/usr/include/finclude/math-vector-fortran.h
REM seed 2057219928 -1104900666 67443748 1617621605 -609377186 723860061 68204456 -1534677660 1547228107 27805319 -1000426655 -136323949 426485325 -1731026071 -380863901 1378063948 -80801012 545116259 -2107295522 1908969798 -870287197 1412157237 1413922507 -453165339 1185030973 833241745 -565423096 -54565892 1227430977 60849331 772225173 -1404101343 1792574391
REM
CELL 1.54180   50.00000   50.00000   50.00000   90.00000   90.00000   90.00000
LATT -1
SFAC C  
C      1  0.5216580000000  0.4218650000000  0.5248730000000 1.0
C      1  0.4801830000000  0.4573300000000  0.3969710000000 1.0
C      1  0.4525630000000  0.5246610000000  0.5093140000000 1.0
C      1  0.4627060000000  0.5049870000000  0.3918340000000 1.0
C      1  0.5475330000000  0.5599160000000  0.4150550000000 1.0
C      1  0.4383730000000  0.5974490000000  0.4617280000000 1.0
C      1  0.5175100000000  0.4506390000000  0.5285410000000 1.0
C      1  0.5491800000000  0.4617750000000  0.5919700000000 1.0
C      1  0.4997360000000  0.5185210000000  0.5185090000000 1.0
C      1  0.4867620000000  0.5545070000000  0.4920440000000 1.0
C      1  0.5263400000000  0.6035310000000  0.4649860000000 1.0
C      1  0.4411250000000  0.3896430000000  0.5171450000000 1.0
C      1  0.4886810000000  0.4502350000000  0.4891770000000 1.0
C      1  0.4699710000000  0.4494320000000  0.4228740000000 1.0
C      1  0.5889090000000  0.4236300000000  0.4953390000000 1.0
C      1  0.5993030000000  0.4898240000000  0.4366210000000 1.0
C      1  0.5867420000000  0.5115500000000  0.4521630000000 1.0
C      1  0.5089020000000  0.4008320000000  0.5381000000000 1.0
C      1  0.5060280000000  0.5044510000000  0.4484410000000 1.0
C      1  0.4413210000000  0.4661040000000  0.4767990000000 1.0
C      1  0.5744690000000  0.4069450000000  0.4512110000000 1.0
C      1  0.5064140000000  0.5259710000000  0.5442590000000 1.0
C      1  0.5213800000000  0.3772060000000  0.5476740000000 1.0
C      1  0.4062810000000  0.4311550000000  0.4165910000000 1.0
C      1  0.4210690000000  0.5011510000000  0.5720800000000 1.0
C      1  0.4314700000000  0.4673270000000  0.3954710000000 1.0
C      1  0.5720260000000  0.5914720000000  0.4860200000000 1.0
C      1  0.5048200000000  0.5565360000000  0.5792790000000 1.0
C      1  0.4652710000000  0.4989480000000  0.5995230000000 1.0
C      1  0.4312320000000  0.4145360000000  0.5090570000000 1.0
C      1  0.5289840000000  0.4897780000000  0.4900140000000 1.0
C      1  0.4078230000000  0.4150810000000  0.4950150000000 1.0
C      1  0.5083930000000  0.4644500000000  0.5045400000000 1.0
C      1  0.5858090000000  0.4682970000000  0.4243810000000 1.0
C      1  0.4614440000000  0.5251390000000  0.5850120000000 1.0
C      1  0.5529360000000  0.4859970000000  0.4708310000000 1.0
C      1  0.5890700000000  0.5774190000000  0.5282630000000 1.0
C      1  0.4633930000000  0.3848700000000  0.5308710000000 1.0
C      1  0.3932240000000  0.5035220000000  0.4183180000000 1.0
C      1  0.4353120000000  0.5210460000000  0.4332780000000 1.0
C      1  0.4813550000000  0.6005300000000  0.5069630000000 1.0
C      1  0.4943080000000  0.4991330000000  0.6058910000000 1.0
C      1  0.5381120000000  0.4921600000000  0.5403480000000 1.0
C      1  0.5505200000000  0.5092350000000  0.6135460000000 1.0
C      1  0.4996880000000  0.5314010000000  0.4015160000000 1.0
C      1  0.4952170000000  0.6018460000000  0.4145140000000 1.0
C      1  0.4348530000000  0.5519020000000  0.4741020000000 1.0
C      1  0.4676580000000  0.5493990000000  0.5137820000000 1.0
C      1  0.4446850000000  0.5260260000000  0.4808880000000 1.0
C      1  0.4534830000000  0.4827250000000  0.4576200000000 1.0
C      1  0.4330640000000  0.5823200000000  0.5101880000000 1.0
C      1  0.4544110000000  0.6002910000000  0.5190500000000 1.0
C      1  0.5722510000000  0.4460540000000  0.4880070000000 1.0
C      1  0.5421140000000  0.4883460000000  0.4040130000000 1.0
C      1  0.6029430000000  0.5472910000000  0.4916130000000 1.0
C      1  0.5318400000000  0.5301550000000  0.6089170000000 1.0
C      1  0.4838860000000  0.4565240000000  0.6082440000000 1.0
C      1  0.5661130000000  0.4237370000000  0.4315500000000 1.0
C      1  0.4811350000000  0.4021350000000  0.5436760000000 1.0
C      1  0.3968050000000  0.5133420000000  0.4631350000000 1.0
C      1  0.5561050000000  0.4341140000000  0.5889100000000 1.0
C      1  0.6070700000000  0.5020180000000  0.5174070000000 1.0
C      1  0.4993820000000  0.6435270000000  0.5234220000000 1.0
C      1  0.5315670000000  0.5749990000000  0.3975180000000 1.0
C      1  0.4403830000000  0.5225720000000  0.5606690000000 1.0
C      1  0.5496160000000  0.5361470000000  0.5626570000000 1.0
C      1  0.5037690000000  0.5797120000000  0.3994440000000 1.0
C      1  0.4548560000000  0.5941320000000  0.4392140000000 1.0
C      1  0.6049250000000  0.5710340000000  0.5506170000000 1.0
C      1  0.4589630000000  0.4702730000000  0.6015630000000 1.0
C      1  0.4500840000000  0.5078900000000  0.5331960000000 1.0
C      1  0.4992600000000  0.5948680000000  0.4624260000000 1.0
C      1  0.5612060000000  0.5749910000000  0.5342980000000 1.0
C      1  0.4996190000000  0.4777220000000  0.4437990000000 1.0
C      1  0.4884310000000  0.5820370000000  0.4855660000000 1.0
C      1  0.4722510000000  0.4706490000000  0.4412560000000 1.0
C      1  0.5366350000000  0.4149810000000  0.5018000000000 1.0
C      1  0.5510790000000  0.5086330000000  0.4207530000000 1.0
C      1  0.4486640000000  0.6177920000000  0.5401770000000 1.0
C      1  0.4469590000000  0.5760460000000  0.4187640000000 1.0
C      1  0.4002820000000  0.4612230000000  0.5557670000000 1.0
C      1  0.5560700000000  0.5338950000000  0.4092330000000 1.0
C      1  0.4966910000000  0.6684220000000  0.5306440000000 1.0
C      1  0.3936950000000  0.4607710000000  0.5298830000000 1.0
C      1  0.4881840000000  0.4010670000000  0.5890730000000 1.0
C      1  0.5011560000000  0.4372550000000  0.4670920000000 1.0
C      1  0.5580680000000  0.4838890000000  0.6073490000000 1.0
C      1  0.5004870000000  0.5057310000000  0.3596040000000 1.0
C      1  0.4752290000000  0.5603700000000  0.5385780000000 1.0
C      1  0.6145540000000  0.5289090000000  0.5106200000000 1.0
C      1  0.4589830000000  0.5540390000000  0.4058780000000 1.0
C      1  0.5759070000000  0.4730890000000  0.4833330000000 1.0
C      1  0.4266740000000  0.5480070000000  0.5492480000000 1.0
C      1  0.4889050000000  0.5129090000000  0.3831160000000 1.0
C      1  0.5058460000000  0.5226320000000  0.4274390000000 1.0
C      1  0.4828270000000  0.6004170000000  0.4398330000000 1.0
C      1  0.5525800000000  0.5481840000000  0.5341940000000 1.0
C      1  0.4421030000000  0.6320880000000  0.5609540000000 1.0
C      1  0.6027760000000  0.4632380000000  0.5479540000000 1.0
C      1  0.4191180000000  0.4726070000000  0.5732770000000 1.0
C      1  0.5300270000000  0.5145540000000  0.5552700000000 1.0
C      1  0.4555920000000  0.4800100000000  0.5350540000000 1.0
C      1  0.5009260000000  0.5295010000000  0.4921450000000 1.0
C      1  0.5137100000000  0.4537390000000  0.4493810000000 1.0
C      1  0.4324340000000  0.5787210000000  0.4816880000000 1.0
C      1  0.4180560000000  0.5606460000000  0.5245370000000 1.0
C      1  0.4419670000000  0.4574270000000  0.5829920000000 1.0
C      1  0.4729100000000  0.4155980000000  0.5680660000000 1.0
C      1  0.4127680000000  0.4691410000000  0.4799410000000 1.0
C      1  0.4853660000000  0.5420790000000  0.5958960000000 1.0
C      1  0.4555830000000  0.4393960000000  0.5643130000000 1.0
C      1  0.3986990000000  0.4834510000000  0.4595360000000 1.0
C      1  0.5331280000000  0.5486790000000  0.5858880000000 1.0
C      1  0.5924550000000  0.5743820000000  0.4996710000000 1.0
C      1  0.4869930000000  0.5567300000000  0.3996190000000 1.0
C      1  0.5437410000000  0.5538160000000  0.4667010000000 1.0
C      1  0.4021020000000  0.3806400000000  0.4318300000000 1.0
C      1  0.5453050000000  0.5649100000000  0.4424990000000 1.0
C      1  0.5969400000000  0.4863340000000  0.4961980000000 1.0
C      1  0.5037130000000  0.6173190000000  0.5147580000000 1.0
C      1  0.5036500000000  0.5247650000000  0.6120480000000 1.0
C      1  0.5438110000000  0.5965820000000  0.5343400000000 1.0
C      1  0.5352750000000  0.4166740000000  0.5986330000000 1.0
C      1  0.5435030000000  0.5021000000000  0.5140210000000 1.0
C      1  0.5040820000000  0.4741570000000  0.5968560000000 1.0
C      1  0.5524400000000  0.5300140000000  0.5108720000000 1.0
C      1  0.5119230000000  0.5101920000000  0.4752110000000 1.0
C      1  0.4495930000000  0.5261200000000  0.4088080000000 1.0
C      1  0.5446680000000  0.6029980000000  0.4867970000000 1.0
C      1  0.4536960000000  0.4512770000000  0.5379270000000 1.0
C      1  0.5966800000000  0.5541250000000  0.5702130000000 1.0
C      1  0.4580600000000  0.4765850000000  0.3893600000000 1.0
C      1  0.3931280000000  0.5287130000000  0.4869120000000 1.0
C      1  0.4598020000000  0.4499820000000  0.4916360000000 1.0
C      1  0.4036540000000  0.4056060000000  0.4230630000000 1.0
C      1  0.5583840000000  0.5033390000000  0.4480360000000 1.0
C      1  0.3974390000000  0.4771300000000  0.4302100000000 1.0
C      1  0.5527940000000  0.3929290000000  0.4932090000000 1.0
C      1  0.4114590000000  0.4584470000000  0.4139160000000 1.0
C      1  0.4944660000000  0.4342650000000  0.6209150000000 1.0
C      1  0.5770350000000  0.4014750000000  0.4794080000000 1.0
C      1  0.5923670000000  0.4368880000000  0.5473440000000 1.0
C      1  0.5910590000000  0.5072580000000  0.5634420000000 1.0
C      1  0.5309730000000  0.6078140000000  0.5121560000000 1.0
C      1  0.5591910000000  0.5381490000000  0.4839620000000 1.0
C      1  0.3992850000000  0.4643880000000  0.5040930000000 1.0
C      1  0.4009070000000  0.3564490000000  0.4414740000000 1.0
C      1  0.5630540000000  0.4492970000000  0.4187500000000 1.0
C      1  0.5379840000000  0.4599950000000  0.4046070000000 1.0
C      1  0.4477510000000  0.5101500000000  0.4572660000000 1.0
C      1  0.5861460000000  0.5325680000000  0.4729160000000 1.0
C      1  0.5072930000000  0.4149250000000  0.6051100000000 1.0
C      1  0.4934970000000  0.3732290000000  0.5860870000000 1.0
C      1  0.5118340000000  0.3630730000000  0.5688090000000 1.0
C      1  0.4971170000000  0.5512250000000  0.5528740000000 1.0
C      1  0.6024390000000  0.4911010000000  0.5436070000000 1.0
C      1  0.4482530000000  0.4370530000000  0.5139960000000 1.0
C      1  0.5100290000000  0.4536200000000  0.3954430000000 1.0
C      1  0.3996910000000  0.5449310000000  0.5079010000000 1.0
C      1  0.5959810000000  0.4228080000000  0.5227900000000 1.0
C      1  0.5242550000000  0.4670440000000  0.5784650000000 1.0
C      1  0.4065210000000  0.5223780000000  0.4359390000000 1.0
C      1  0.5758970000000  0.4284480000000  0.5691410000000 1.0
C      1  0.5265090000000  0.4677600000000  0.5496020000000 1.0
C      1  0.5453250000000  0.4379750000000  0.4877790000000 1.0
C      1  0.5789430000000  0.5317710000000  0.5698130000000 1.0
END
