TITL C-627109-622-1638 -1.66453852309481e-07 125000 -198.661024568987 0 0 34 (C1) n - 1
REM
REM in /home/nfs/bkarasulu/CARBON/AIRSS/Generating-Clusters/LCBOP/Only-C1/SD-CG/FIRE-CG
REM
REM
REM
REM
REM
REM ./C.cell (11c1c37f851c82e70ff6c80c92926a4b)
REM AIRSS Version 0.9.1 bugfix July 2018 build 013d7b7c2542+ Fri, 06 Jul 2018 19:26:36 +0100
REM compiler GCC version 9.2.1 20190827 (Red Hat 9.2.1-1)
REM options -cpp -mtune=generic -march=x86-64 -g -O0 -fpre-include=/usr/include/finclude/math-vector-fortran.h
REM seed 1278578755 -1935314698 313762930 1247064468 1455857843 -1100593924 -1919354796 228378239 -1407733666 1622347079 2065839929 144063408 480747245 -1564608993 1141099447 1041681104 -1771298914 970310877 -398442027 -2081306691 -373532165 2142727951 -906523862 712236270 843572491 2039673282 -2072323260 -840205972 -1291987671 257096739 -721639794 1921137062 -410304367
REM
CELL 1.54180   50.00000   50.00000   50.00000   90.00000   90.00000   90.00000
LATT -1
SFAC C  
C      1  0.5159430000000  0.5256760000000  0.5223040000000 1.0
C      1  0.5122680000000  0.5507290000000  0.5074050000000 1.0
C      1  0.4800780000000  0.5096690000000  0.4468130000000 1.0
C      1  0.5410540000000  0.5212730000000  0.4849420000000 1.0
C      1  0.5047310000000  0.4378630000000  0.5259110000000 1.0
C      1  0.4779610000000  0.5769050000000  0.4844250000000 1.0
C      1  0.4713600000000  0.5619730000000  0.5305340000000 1.0
C      1  0.5304640000000  0.5054300000000  0.5070200000000 1.0
C      1  0.5672340000000  0.4495730000000  0.5026120000000 1.0
C      1  0.4650090000000  0.4947640000000  0.5159090000000 1.0
C      1  0.5883020000000  0.4385570000000  0.5132850000000 1.0
C      1  0.4742330000000  0.4867830000000  0.4634690000000 1.0
C      1  0.4662210000000  0.5317220000000  0.5693880000000 1.0
C      1  0.5440890000000  0.4609650000000  0.4921270000000 1.0
C      1  0.5363390000000  0.4567730000000  0.4654230000000 1.0
C      1  0.5308320000000  0.5471250000000  0.4852980000000 1.0
C      1  0.4830680000000  0.4868040000000  0.5605840000000 1.0
C      1  0.4764900000000  0.5076750000000  0.5762850000000 1.0
C      1  0.4884330000000  0.5656740000000  0.5084020000000 1.0
C      1  0.4702210000000  0.5351780000000  0.4522470000000 1.0
C      1  0.4526350000000  0.5180490000000  0.5259970000000 1.0
C      1  0.4701410000000  0.5587940000000  0.4644470000000 1.0
C      1  0.5271940000000  0.4775730000000  0.5082400000000 1.0
C      1  0.5055220000000  0.4114500000000  0.5277820000000 1.0
C      1  0.5160430000000  0.4643790000000  0.4478220000000 1.0
C      1  0.4758500000000  0.6039080000000  0.4810580000000 1.0
C      1  0.4892190000000  0.4633360000000  0.4574200000000 1.0
C      1  0.4838910000000  0.4811290000000  0.5328700000000 1.0
C      1  0.5013590000000  0.5057400000000  0.4282280000000 1.0
C      1  0.4626170000000  0.4889070000000  0.4887140000000 1.0
C      1  0.4600010000000  0.5395390000000  0.5429520000000 1.0
C      1  0.5190290000000  0.4850230000000  0.4285330000000 1.0
C      1  0.5053180000000  0.4656050000000  0.5223340000000 1.0
C      1  0.5068510000000  0.3854550000000  0.5292200000000 1.0
END
