TITL C-627111-6168-93 -1.43561879115633e-07 125000 -40.7382685286858 0 0 8 (C2v) n - 1
REM
REM in /home/nfs/bkarasulu/CARBON/AIRSS/Generating-Clusters/LCBOP/Only-C1/SD-CG/FIRE-CG
REM
REM
REM
REM
REM
REM ./C.cell (11c1c37f851c82e70ff6c80c92926a4b)
REM AIRSS Version 0.9.1 bugfix July 2018 build 013d7b7c2542+ Fri, 06 Jul 2018 19:26:36 +0100
REM compiler GCC version 9.2.1 20190827 (Red Hat 9.2.1-1)
REM options -cpp -mtune=generic -march=x86-64 -g -O0 -fpre-include=/usr/include/finclude/math-vector-fortran.h
REM seed -1673993998 -2018972193 1765070966 -338011938 -1668158083 -975622287 -1722378090 1603744130 2096268413 1321604217 -1837499378 -90182673 -898376802 210901779 -1380500481 -1525724245 -1817726490 1274148926 116853858 641122742 1149453879 750816960 -1197319357 1415837428 483289952 1552145005 -829624910 1239462969 -1923692137 648709604 -27737151 -1250835960 -1865487594
REM
CELL 1.54180   50.00000   50.00000   50.00000   90.00000   90.00000   90.00000
LATT -1
SFAC C  
C      1  0.4944870000000  0.4945220000000  0.4935180000000 1.0
C      1  0.4408880000000  0.5008040000000  0.4916700000000 1.0
C      1  0.5383360000000  0.5380950000000  0.5450770000000 1.0
C      1  0.4667570000000  0.4977650000000  0.4925550000000 1.0
C      1  0.5070020000000  0.4761580000000  0.4765890000000 1.0
C      1  0.5241350000000  0.5239830000000  0.5283790000000 1.0
C      1  0.5186930000000  0.4590310000000  0.4608030000000 1.0
C      1  0.5097030000000  0.5096420000000  0.5114090000000 1.0
END
