TITL C-627113-6568-223 2.06115854890871e-07 125000 -441.727153589188 0 0 74 (C1) n - 1
REM
REM in /home/nfs/bkarasulu/CARBON/AIRSS/Generating-Clusters/LCBOP/Only-C1/SD-CG/FIRE-CG
REM
REM
REM
REM
REM
REM ./C.cell (11c1c37f851c82e70ff6c80c92926a4b)
REM AIRSS Version 0.9.1 bugfix July 2018 build 013d7b7c2542+ Fri, 06 Jul 2018 19:26:36 +0100
REM compiler GCC version 9.2.1 20190827 (Red Hat 9.2.1-1)
REM options -cpp -mtune=generic -march=x86-64 -g -O0 -fpre-include=/usr/include/finclude/math-vector-fortran.h
REM seed -1914800684 -1708167873 784041211 -1063000480 1886013929 -487383204 583561289 1149305071 -1945277456 -1808627142 121509582 2095766101 -1320619805 2059272274 -1070392758 1289540293 572653075 52848712 -1185341753 570233085 -1462707428 799052499 -854046809 1958558653 1355019799 -1814827331 -44030657 1211813404 -313564576 1488918950 -574255217 1973754491 -139261200
REM
CELL 1.54180   50.00000   50.00000   50.00000   90.00000   90.00000   90.00000
LATT -1
SFAC C  
C      1  0.4570490000000  0.5031650000000  0.5241310000000 1.0
C      1  0.4437740000000  0.5552770000000  0.4795270000000 1.0
C      1  0.5087830000000  0.5712310000000  0.5206000000000 1.0
C      1  0.5278770000000  0.4332580000000  0.4854710000000 1.0
C      1  0.4985650000000  0.4366890000000  0.4862100000000 1.0
C      1  0.4984340000000  0.5387850000000  0.4784640000000 1.0
C      1  0.5009670000000  0.5256090000000  0.4246730000000 1.0
C      1  0.4486400000000  0.4227230000000  0.4953820000000 1.0
C      1  0.4927960000000  0.5367970000000  0.5561860000000 1.0
C      1  0.4559130000000  0.5204750000000  0.4460030000000 1.0
C      1  0.5815720000000  0.4621970000000  0.4953590000000 1.0
C      1  0.4216230000000  0.4725280000000  0.5425470000000 1.0
C      1  0.5349260000000  0.4389760000000  0.4558660000000 1.0
C      1  0.4255760000000  0.4367450000000  0.4973150000000 1.0
C      1  0.3963860000000  0.5295430000000  0.5195490000000 1.0
C      1  0.5173090000000  0.4816740000000  0.4898870000000 1.0
C      1  0.4825920000000  0.4822730000000  0.4261800000000 1.0
C      1  0.5640120000000  0.4784640000000  0.5337770000000 1.0
C      1  0.5832380000000  0.4915660000000  0.4953120000000 1.0
C      1  0.4733240000000  0.4638190000000  0.5545730000000 1.0
C      1  0.5380190000000  0.4395690000000  0.5136270000000 1.0
C      1  0.5401060000000  0.5443960000000  0.5489190000000 1.0
C      1  0.4752600000000  0.4214580000000  0.4907120000000 1.0
C      1  0.5367870000000  0.6302920000000  0.4876440000000 1.0
C      1  0.5819620000000  0.5260690000000  0.5307290000000 1.0
C      1  0.4951860000000  0.4652340000000  0.4838170000000 1.0
C      1  0.5516520000000  0.5319530000000  0.5951640000000 1.0
C      1  0.5590270000000  0.5037760000000  0.4862090000000 1.0
C      1  0.5278190000000  0.5244510000000  0.4240320000000 1.0
C      1  0.5639550000000  0.5362250000000  0.4550080000000 1.0
C      1  0.4470660000000  0.4517850000000  0.4426190000000 1.0
C      1  0.5127380000000  0.5525320000000  0.5426970000000 1.0
C      1  0.5335160000000  0.5800780000000  0.5072790000000 1.0
C      1  0.4235230000000  0.4799730000000  0.4734660000000 1.0
C      1  0.5334720000000  0.4989110000000  0.5639990000000 1.0
C      1  0.4687860000000  0.4736400000000  0.4831620000000 1.0
C      1  0.4096190000000  0.4805200000000  0.5180390000000 1.0
C      1  0.4448840000000  0.4645660000000  0.5539520000000 1.0
C      1  0.5164680000000  0.4777900000000  0.5733050000000 1.0
C      1  0.4886130000000  0.4844810000000  0.5683290000000 1.0
C      1  0.5539090000000  0.4574550000000  0.4423840000000 1.0
C      1  0.4651350000000  0.5273660000000  0.5171090000000 1.0
C      1  0.4841020000000  0.5128280000000  0.5658370000000 1.0
C      1  0.5508590000000  0.5151630000000  0.4381280000000 1.0
C      1  0.5420990000000  0.5251400000000  0.5705370000000 1.0
C      1  0.4211460000000  0.5087450000000  0.4802580000000 1.0
C      1  0.5245080000000  0.4984230000000  0.5138670000000 1.0
C      1  0.4788710000000  0.5324120000000  0.4949650000000 1.0
C      1  0.5497990000000  0.4859660000000  0.4454030000000 1.0
C      1  0.4599700000000  0.4819650000000  0.5083830000000 1.0
C      1  0.5838050000000  0.4984300000000  0.5241880000000 1.0
C      1  0.5403370000000  0.4864310000000  0.4723350000000 1.0
C      1  0.5115790000000  0.4399500000000  0.4382120000000 1.0
C      1  0.4601310000000  0.5723140000000  0.4938920000000 1.0
C      1  0.4403820000000  0.4333200000000  0.4254520000000 1.0
C      1  0.5564800000000  0.5618940000000  0.5046700000000 1.0
C      1  0.3869930000000  0.5507830000000  0.5313680000000 1.0
C      1  0.5260360000000  0.4517970000000  0.5640540000000 1.0
C      1  0.5656250000000  0.5528720000000  0.4775080000000 1.0
C      1  0.5393500000000  0.5198790000000  0.5000970000000 1.0
C      1  0.5241090000000  0.5367330000000  0.4839900000000 1.0
C      1  0.4784210000000  0.5098920000000  0.4315730000000 1.0
C      1  0.4894390000000  0.4457700000000  0.5382540000000 1.0
C      1  0.5619640000000  0.5466270000000  0.5294320000000 1.0
C      1  0.5387060000000  0.4908250000000  0.5373070000000 1.0
C      1  0.4139140000000  0.4626030000000  0.4953670000000 1.0
C      1  0.4482960000000  0.4701440000000  0.4635520000000 1.0
C      1  0.4827210000000  0.5773220000000  0.5089400000000 1.0
C      1  0.5185260000000  0.4417160000000  0.5373870000000 1.0
C      1  0.5354090000000  0.6061680000000  0.4973980000000 1.0
C      1  0.4083260000000  0.5078810000000  0.5069770000000 1.0
C      1  0.4956070000000  0.4587530000000  0.4272140000000 1.0
C      1  0.5632870000000  0.4539510000000  0.5165720000000 1.0
C      1  0.4383470000000  0.5289890000000  0.4676670000000 1.0
END
