TITL C-627113-6568-542 842.104109303079 125000 -1056.55459785742 0 0 172 (C1) n - 1
REM
REM in /home/nfs/bkarasulu/CARBON/AIRSS/Generating-Clusters/LCBOP/Only-C1/SD-CG/FIRE-CG
REM
REM
REM
REM
REM
REM ./C.cell (11c1c37f851c82e70ff6c80c92926a4b)
REM AIRSS Version 0.9.1 bugfix July 2018 build 013d7b7c2542+ Fri, 06 Jul 2018 19:26:36 +0100
REM compiler GCC version 9.2.1 20190827 (Red Hat 9.2.1-1)
REM options -cpp -mtune=generic -march=x86-64 -g -O0 -fpre-include=/usr/include/finclude/math-vector-fortran.h
REM seed -1063118551 -58607726 888950568 -1273623484 -942796972 274047337 1835049326 -1107677856 -1746000178 1811097111 1801789935 -1692791435 1649168137 153282101 713941443 -1791220407 348103336 230114366 1557629751 1545262929 -316664157 -1462597183 -1260959727 1820980200 18216960 -1745129716 -635158323 1371622368 66073741 180384055 -1363701899 1289951763 44481156
REM
CELL 1.54180   50.00000   50.00000   50.00000   90.00000   90.00000   90.00000
LATT -1
SFAC C  
C      1  0.4404820000000  0.5568540000000  0.5204730000000 1.0
C      1  0.3852250000000  0.4576400000000  0.4851980000000 1.0
C      1  0.6117490000000  0.4800550000000  0.5494630000000 1.0
C      1  0.4743170000000  0.5062250000000  0.4573500000000 1.0
C      1  0.5137340000000  0.4469380000000  0.5614780000000 1.0
C      1  0.5590980000000  0.3790140000000  0.5104660000000 1.0
C      1  0.5027480000000  0.4218540000000  0.4671090000000 1.0
C      1  0.4995880000000  0.6065990000000  0.5209150000000 1.0
C      1  0.4814540000000  0.4161090000000  0.4244700000000 1.0
C      1  0.5167200000000  0.5254960000000  0.4413160000000 1.0
C      1  0.4750170000000  0.6214950000000  0.4812550000000 1.0
C      1  0.5722200000000  0.5258660000000  0.4161010000000 1.0
C      1  0.6083910000000  0.4812410000000  0.4175020000000 1.0
C      1  0.3775530000000  0.4839540000000  0.4994900000000 1.0
C      1  0.4888550000000  0.5355400000000  0.6148310000000 1.0
C      1  0.4607930000000  0.5569930000000  0.4583230000000 1.0
C      1  0.4262400000000  0.4609250000000  0.5232020000000 1.0
C      1  0.4538350000000  0.3989050000000  0.6102150000000 1.0
C      1  0.4397110000000  0.4869440000000  0.6067280000000 1.0
C      1  0.4495400000000  0.4648680000000  0.5938860000000 1.0
C      1  0.4640230000000  0.5762060000000  0.5941880000000 1.0
C      1  0.4938830000000  0.5467610000000  0.5589660000000 1.0
C      1  0.4890270000000  0.5072530000000  0.6212820000000 1.0
C      1  0.5396430000000  0.3780470000000  0.4915270000000 1.0
C      1  0.4989390000000  0.5963200000000  0.4201360000000 1.0
C      1  0.4897560000000  0.4438180000000  0.5034880000000 1.0
C      1  0.5268050000000  0.5395420000000  0.4648350000000 1.0
C      1  0.4747220000000  0.5339230000000  0.5436490000000 1.0
C      1  0.4700010000000  0.4107990000000  0.5913820000000 1.0
C      1  0.4147490000000  0.5076070000000  0.4587840000000 1.0
C      1  0.5970640000000  0.5633680000000  0.4780690000000 1.0
C      1  0.5394560000000  0.5409680000000  0.5212760000000 1.0
C      1  0.4565310000000  0.5293130000000  0.4545720000000 1.0
C      1  0.5683270000000  0.4989110000000  0.5636830000000 1.0
C      1  0.3994160000000  0.4079510000000  0.5682440000000 1.0
C      1  0.4686830000000  0.5493160000000  0.5199790000000 1.0
C      1  0.5679590000000  0.4774030000000  0.4613840000000 1.0
C      1  0.5990780000000  0.4473030000000  0.5129720000000 1.0
C      1  0.4059900000000  0.4226060000000  0.5471840000000 1.0
C      1  0.5721130000000  0.5229920000000  0.5475140000000 1.0
C      1  0.5517230000000  0.4815910000000  0.4382460000000 1.0
C      1  0.5019600000000  0.6130900000000  0.4438690000000 1.0
C      1  0.5815060000000  0.4993880000000  0.4742810000000 1.0
C      1  0.5228160000000  0.5017440000000  0.3790900000000 1.0
C      1  0.3830130000000  0.3790220000000  0.6089620000000 1.0
C      1  0.4710600000000  0.5854620000000  0.4172260000000 1.0
C      1  0.4941000000000  0.5492040000000  0.5040680000000 1.0
C      1  0.4318870000000  0.5535850000000  0.5679750000000 1.0
C      1  0.4648860000000  0.4820120000000  0.4684920000000 1.0
C      1  0.5131160000000  0.4304200000000  0.5840100000000 1.0
C      1  0.5675790000000  0.5194150000000  0.4901790000000 1.0
C      1  0.5043540000000  0.4776710000000  0.4313650000000 1.0
C      1  0.4568230000000  0.5350050000000  0.4028590000000 1.0
C      1  0.5360350000000  0.4514900000000  0.5444810000000 1.0
C      1  0.4663650000000  0.4032940000000  0.5634880000000 1.0
C      1  0.4221460000000  0.4990130000000  0.4037100000000 1.0
C      1  0.5182730000000  0.4418530000000  0.5024930000000 1.0
C      1  0.4322530000000  0.4495640000000  0.4519660000000 1.0
C      1  0.4582040000000  0.4540940000000  0.4674140000000 1.0
C      1  0.5457970000000  0.4880040000000  0.3756970000000 1.0
C      1  0.4440200000000  0.3953290000000  0.4878140000000 1.0
C      1  0.5204040000000  0.5872250000000  0.4044210000000 1.0
C      1  0.5309780000000  0.4598190000000  0.5184990000000 1.0
C      1  0.5167580000000  0.5349360000000  0.4141460000000 1.0
C      1  0.4079010000000  0.4388900000000  0.5246520000000 1.0
C      1  0.4761900000000  0.5132580000000  0.3964810000000 1.0
C      1  0.3910580000000  0.3933080000000  0.5886930000000 1.0
C      1  0.4306510000000  0.5107870000000  0.5942710000000 1.0
C      1  0.4588850000000  0.4573520000000  0.5679370000000 1.0
C      1  0.4432070000000  0.4956230000000  0.5510380000000 1.0
C      1  0.5544920000000  0.5400200000000  0.4731240000000 1.0
C      1  0.4088110000000  0.5216360000000  0.5256120000000 1.0
C      1  0.4980680000000  0.5740990000000  0.5558650000000 1.0
C      1  0.4405990000000  0.5373710000000  0.5926850000000 1.0
C      1  0.5293350000000  0.4857290000000  0.5103500000000 1.0
C      1  0.5150410000000  0.5496670000000  0.6136700000000 1.0
C      1  0.5147990000000  0.5925850000000  0.5421110000000 1.0
C      1  0.6408770000000  0.5636750000000  0.4989320000000 1.0
C      1  0.5563850000000  0.5054960000000  0.4238640000000 1.0
C      1  0.5249940000000  0.5631020000000  0.6353210000000 1.0
C      1  0.4225110000000  0.5044890000000  0.5678570000000 1.0
C      1  0.4515300000000  0.3926340000000  0.4616860000000 1.0
C      1  0.4648440000000  0.5489870000000  0.6049520000000 1.0
C      1  0.4557700000000  0.5730890000000  0.3734660000000 1.0
C      1  0.5635530000000  0.5250350000000  0.5190300000000 1.0
C      1  0.5737740000000  0.4509390000000  0.4694850000000 1.0
C      1  0.4694610000000  0.5070560000000  0.5500690000000 1.0
C      1  0.6101340000000  0.5043730000000  0.4341040000000 1.0
C      1  0.4883560000000  0.4530980000000  0.6177140000000 1.0
C      1  0.5477670000000  0.5632100000000  0.5719030000000 1.0
C      1  0.4957010000000  0.3674880000000  0.5049620000000 1.0
C      1  0.5453120000000  0.6222350000000  0.4677540000000 1.0
C      1  0.5436410000000  0.4820820000000  0.6015690000000 1.0
C      1  0.4551690000000  0.5970590000000  0.5486100000000 1.0
C      1  0.4687810000000  0.6052190000000  0.5247300000000 1.0
C      1  0.5718130000000  0.5616810000000  0.4656980000000 1.0
C      1  0.4876010000000  0.4610180000000  0.5553160000000 1.0
C      1  0.4266640000000  0.5727780000000  0.5022620000000 1.0
C      1  0.3889710000000  0.4364900000000  0.5038000000000 1.0
C      1  0.4900180000000  0.4800050000000  0.6224920000000 1.0
C      1  0.5416240000000  0.5875600000000  0.5530440000000 1.0
C      1  0.4383500000000  0.5910300000000  0.4850980000000 1.0
C      1  0.4413790000000  0.4674590000000  0.5462660000000 1.0
C      1  0.5056300000000  0.5543540000000  0.4780410000000 1.0
C      1  0.5167770000000  0.5038770000000  0.5679140000000 1.0
C      1  0.4924630000000  0.4909680000000  0.5583430000000 1.0
C      1  0.6236620000000  0.5238700000000  0.4770930000000 1.0
C      1  0.3847600000000  0.5059810000000  0.5159610000000 1.0
C      1  0.6151770000000  0.4662670000000  0.5264180000000 1.0
C      1  0.4479950000000  0.5792870000000  0.5697990000000 1.0
C      1  0.5119130000000  0.5054020000000  0.5095330000000 1.0
C      1  0.5656750000000  0.5786420000000  0.4452080000000 1.0
C      1  0.4902570000000  0.4297260000000  0.6006440000000 1.0
C      1  0.5678570000000  0.5926580000000  0.5414590000000 1.0
C      1  0.5724970000000  0.5495280000000  0.5601590000000 1.0
C      1  0.4256670000000  0.4820290000000  0.5029990000000 1.0
C      1  0.4401780000000  0.4519400000000  0.4237210000000 1.0
C      1  0.5921320000000  0.4739800000000  0.3969770000000 1.0
C      1  0.4446840000000  0.5809350000000  0.4588450000000 1.0
C      1  0.5425930000000  0.4940340000000  0.5766840000000 1.0
C      1  0.5297740000000  0.4649580000000  0.4305640000000 1.0
C      1  0.4847720000000  0.3738440000000  0.5286400000000 1.0
C      1  0.5291920000000  0.5482940000000  0.5883570000000 1.0
C      1  0.5963240000000  0.4462550000000  0.4852910000000 1.0
C      1  0.4230230000000  0.5444730000000  0.5409280000000 1.0
C      1  0.4836510000000  0.4663810000000  0.4151870000000 1.0
C      1  0.4077880000000  0.4600400000000  0.4656940000000 1.0
C      1  0.4564300000000  0.5989570000000  0.4397260000000 1.0
C      1  0.4989280000000  0.3938450000000  0.4633760000000 1.0
C      1  0.5800090000000  0.4331700000000  0.5284740000000 1.0
C      1  0.5988290000000  0.5271140000000  0.4209900000000 1.0
C      1  0.5756880000000  0.3862020000000  0.5308210000000 1.0
C      1  0.4753130000000  0.3952030000000  0.4457190000000 1.0
C      1  0.4803970000000  0.4537250000000  0.5270410000000 1.0
C      1  0.4875060000000  0.5644500000000  0.4602230000000 1.0
C      1  0.4313450000000  0.5234670000000  0.4429140000000 1.0
C      1  0.5349600000000  0.6042720000000  0.3879590000000 1.0
C      1  0.5259690000000  0.5599890000000  0.4063890000000 1.0
C      1  0.4394900000000  0.4767940000000  0.4066220000000 1.0
C      1  0.5024630000000  0.6166270000000  0.4924320000000 1.0
C      1  0.4794770000000  0.4374740000000  0.4775020000000 1.0
C      1  0.4679730000000  0.4412700000000  0.4198600000000 1.0
C      1  0.5926050000000  0.4220370000000  0.5703590000000 1.0
C      1  0.4649860000000  0.3924090000000  0.5368390000000 1.0
C      1  0.5891660000000  0.4780480000000  0.5667440000000 1.0
C      1  0.5047550000000  0.5176710000000  0.3942960000000 1.0
C      1  0.4476720000000  0.3984260000000  0.5146480000000 1.0
C      1  0.5285670000000  0.4381070000000  0.4208840000000 1.0
C      1  0.5489490000000  0.6205900000000  0.3732230000000 1.0
C      1  0.4490580000000  0.5207080000000  0.4953610000000 1.0
C      1  0.5136490000000  0.5317200000000  0.5714130000000 1.0
C      1  0.4615410000000  0.5641300000000  0.3991950000000 1.0
C      1  0.4303950000000  0.5086870000000  0.5106020000000 1.0
C      1  0.4319330000000  0.5238000000000  0.4144800000000 1.0
C      1  0.5870390000000  0.4088810000000  0.5435840000000 1.0
C      1  0.5530760000000  0.4321950000000  0.4692000000000 1.0
C      1  0.4673200000000  0.4857240000000  0.4012980000000 1.0
C      1  0.5272480000000  0.4303260000000  0.4785440000000 1.0
C      1  0.6075040000000  0.5058030000000  0.4628200000000 1.0
C      1  0.4997560000000  0.5028520000000  0.4449770000000 1.0
C      1  0.5118390000000  0.3774260000000  0.4839240000000 1.0
C      1  0.5138230000000  0.5322730000000  0.5154360000000 1.0
C      1  0.4559130000000  0.6094730000000  0.4984220000000 1.0
C      1  0.6212260000000  0.5507810000000  0.4851400000000 1.0
C      1  0.5699740000000  0.4777430000000  0.3819710000000 1.0
C      1  0.5626790000000  0.4465540000000  0.5479320000000 1.0
C      1  0.5096220000000  0.4187500000000  0.4173460000000 1.0
C      1  0.5808590000000  0.4498760000000  0.5705720000000 1.0
C      1  0.5854620000000  0.5717910000000  0.5463040000000 1.0
C      1  0.4740950000000  0.6181790000000  0.4528300000000 1.0
C      1  0.5187960000000  0.6159290000000  0.4679170000000 1.0
C      1  0.4177670000000  0.4850640000000  0.4751200000000 1.0
END
