TITL C-627106-156-1581 0.069576700601661 125000 -519.922412831684 0 0 87 (C1) n - 1
REM
REM in /home/nfs/bkarasulu/CARBON/AIRSS/Generating-Clusters/LCBOP/Only-C1/SD-CG/FIRE-CG
REM
REM
REM
REM
REM
REM ./C.cell (11c1c37f851c82e70ff6c80c92926a4b)
REM AIRSS Version 0.9.1 bugfix July 2018 build 013d7b7c2542+ Fri, 06 Jul 2018 19:26:36 +0100
REM compiler GCC version 9.2.1 20190827 (Red Hat 9.2.1-1)
REM options -cpp -mtune=generic -march=x86-64 -g -O0 -fpre-include=/usr/include/finclude/math-vector-fortran.h
REM seed 275457601 -279228243 514733546 1544060302 1640296408 -1822763479 -1117009924 2086680463 1997299886 -733134583 2065863538 63425298 915483534 1664650329 1693465827 -162036257 -903526191 1288513932 549942220 629705769 -1174961075 -1040896179 1419787770 1232992259 -1036729929 1093099766 -633089800 1568967785 -163834940 61556077 -1590671171 294743650 -851693717
REM
CELL 1.54180   50.00000   50.00000   50.00000   90.00000   90.00000   90.00000
LATT -1
SFAC C  
C      1  0.4714190000000  0.5341440000000  0.5082620000000 1.0
C      1  0.5219240000000  0.4825770000000  0.5659090000000 1.0
C      1  0.5280360000000  0.5679250000000  0.4502250000000 1.0
C      1  0.5439720000000  0.5796070000000  0.5212310000000 1.0
C      1  0.4844880000000  0.4447210000000  0.5678540000000 1.0
C      1  0.5430490000000  0.5623600000000  0.5434830000000 1.0
C      1  0.5588270000000  0.5316650000000  0.4606250000000 1.0
C      1  0.4268730000000  0.5523110000000  0.5141660000000 1.0
C      1  0.5130310000000  0.4364020000000  0.5607860000000 1.0
C      1  0.4294350000000  0.5299090000000  0.5354710000000 1.0
C      1  0.5790170000000  0.5020740000000  0.3850740000000 1.0
C      1  0.5402720000000  0.4420290000000  0.4571150000000 1.0
C      1  0.5573420000000  0.4878740000000  0.3878550000000 1.0
C      1  0.5085860000000  0.5238220000000  0.5433560000000 1.0
C      1  0.4495250000000  0.5385380000000  0.4608120000000 1.0
C      1  0.5217110000000  0.4765240000000  0.4188330000000 1.0
C      1  0.5370020000000  0.5409430000000  0.4423610000000 1.0
C      1  0.5266660000000  0.4797230000000  0.6100210000000 1.0
C      1  0.4593600000000  0.4375610000000  0.5527800000000 1.0
C      1  0.4989200000000  0.5946820000000  0.5171780000000 1.0
C      1  0.4053800000000  0.5447890000000  0.4951770000000 1.0
C      1  0.4763900000000  0.4905250000000  0.4849610000000 1.0
C      1  0.5332220000000  0.4563290000000  0.5649580000000 1.0
C      1  0.4480930000000  0.5702570000000  0.5009650000000 1.0
C      1  0.4153250000000  0.5068630000000  0.5255730000000 1.0
C      1  0.5543100000000  0.5213870000000  0.5064430000000 1.0
C      1  0.5770920000000  0.5086300000000  0.4625380000000 1.0
C      1  0.5231890000000  0.5460790000000  0.5512870000000 1.0
C      1  0.5798590000000  0.4657950000000  0.5563140000000 1.0
C      1  0.6099740000000  0.4475170000000  0.5232740000000 1.0
C      1  0.4822120000000  0.5858910000000  0.5384730000000 1.0
C      1  0.5179010000000  0.4226480000000  0.5360990000000 1.0
C      1  0.5257850000000  0.6014170000000  0.5237480000000 1.0
C      1  0.4728920000000  0.5681220000000  0.5565020000000 1.0
C      1  0.5762790000000  0.5128290000000  0.5216780000000 1.0
C      1  0.5890950000000  0.4894630000000  0.5114000000000 1.0
C      1  0.4514740000000  0.4175880000000  0.5307220000000 1.0
C      1  0.4509380000000  0.4524880000000  0.4569010000000 1.0
C      1  0.5438740000000  0.5678290000000  0.4950010000000 1.0
C      1  0.4957120000000  0.5078630000000  0.4705080000000 1.0
C      1  0.4971160000000  0.5839180000000  0.4902760000000 1.0
C      1  0.4641450000000  0.5440930000000  0.5654190000000 1.0
C      1  0.4495160000000  0.4252440000000  0.5015280000000 1.0
C      1  0.5227440000000  0.5000560000000  0.4745420000000 1.0
C      1  0.4723070000000  0.5724810000000  0.4820160000000 1.0
C      1  0.4607560000000  0.4527550000000  0.5041700000000 1.0
C      1  0.4804530000000  0.4735480000000  0.5797240000000 1.0
C      1  0.5886220000000  0.4920790000000  0.4819200000000 1.0
C      1  0.4575790000000  0.4878340000000  0.5643280000000 1.0
C      1  0.4865290000000  0.4577570000000  0.5172360000000 1.0
C      1  0.4921630000000  0.4874300000000  0.5127270000000 1.0
C      1  0.4491600000000  0.5215810000000  0.5565110000000 1.0
C      1  0.4743800000000  0.5530630000000  0.4596830000000 1.0
C      1  0.5230790000000  0.4992320000000  0.5446030000000 1.0
C      1  0.4416640000000  0.4271290000000  0.4716950000000 1.0
C      1  0.4272300000000  0.4981090000000  0.4451480000000 1.0
C      1  0.5222520000000  0.4579460000000  0.3741260000000 1.0
C      1  0.5927820000000  0.4678410000000  0.5303590000000 1.0
C      1  0.4462000000000  0.4646140000000  0.5486970000000 1.0
C      1  0.5032630000000  0.4980360000000  0.4229240000000 1.0
C      1  0.4515080000000  0.5283520000000  0.4876510000000 1.0
C      1  0.5058540000000  0.4842500000000  0.5897970000000 1.0
C      1  0.4593780000000  0.5177200000000  0.4173710000000 1.0
C      1  0.4738110000000  0.4935840000000  0.4221100000000 1.0
C      1  0.5290970000000  0.4584530000000  0.4392150000000 1.0
C      1  0.4482890000000  0.5009930000000  0.4905820000000 1.0
C      1  0.5516320000000  0.4145640000000  0.5008580000000 1.0
C      1  0.4404260000000  0.4671000000000  0.5209330000000 1.0
C      1  0.4871960000000  0.5174210000000  0.5242870000000 1.0
C      1  0.5337280000000  0.4738800000000  0.3931650000000 1.0
C      1  0.4411320000000  0.5231790000000  0.4384360000000 1.0
C      1  0.5526110000000  0.4709990000000  0.6029180000000 1.0
C      1  0.5495640000000  0.4268720000000  0.4771140000000 1.0
C      1  0.5133930000000  0.5250180000000  0.4332880000000 1.0
C      1  0.5596800000000  0.4605400000000  0.5760660000000 1.0
C      1  0.5030940000000  0.4356960000000  0.5164110000000 1.0
C      1  0.5554470000000  0.5428230000000  0.4879310000000 1.0
C      1  0.5225250000000  0.5764080000000  0.4771190000000 1.0
C      1  0.4684120000000  0.4632150000000  0.4769950000000 1.0
C      1  0.4045550000000  0.5041510000000  0.4614560000000 1.0
C      1  0.3978570000000  0.5251070000000  0.4777600000000 1.0
C      1  0.5410370000000  0.4106570000000  0.5254290000000 1.0
C      1  0.5223570000000  0.4874790000000  0.5186000000000 1.0
C      1  0.4300890000000  0.4897080000000  0.5090110000000 1.0
C      1  0.4468380000000  0.4753100000000  0.4388210000000 1.0
C      1  0.5365580000000  0.5003610000000  0.4986600000000 1.0
C      1  0.4935430000000  0.5317130000000  0.4544600000000 1.0
END
