TITL C-627113-6568-864 -1.06440891756001e-06 125000 -969.372078399182 0 0 155 (C1) n - 1
REM
REM in /home/nfs/bkarasulu/CARBON/AIRSS/Generating-Clusters/LCBOP/Only-C1/SD-CG/FIRE-CG
REM
REM
REM
REM
REM
REM ./C.cell (11c1c37f851c82e70ff6c80c92926a4b)
REM AIRSS Version 0.9.1 bugfix July 2018 build 013d7b7c2542+ Fri, 06 Jul 2018 19:26:36 +0100
REM compiler GCC version 9.2.1 20190827 (Red Hat 9.2.1-1)
REM options -cpp -mtune=generic -march=x86-64 -g -O0 -fpre-include=/usr/include/finclude/math-vector-fortran.h
REM seed 1744296805 731688627 -341099902 1083904226 -47039789 -1096295943 1692428739 1704156993 -689584517 -1380802403 -557897198 764802819 -1210084944 1527380648 -398738428 -486714875 204582401 -1592257930 1518423162 1516351176 -237851058 -452145235 1915647183 -473422849 460521544 -1770187747 -1901351007 1280721358 1973224275 -1811629915 1551152531 227292214 135454330
REM
CELL 1.54180   50.00000   50.00000   50.00000   90.00000   90.00000   90.00000
LATT -1
SFAC C  
C      1  0.5481010000000  0.5551960000000  0.5774440000000 1.0
C      1  0.5205630000000  0.3402030000000  0.5251630000000 1.0
C      1  0.4621970000000  0.4222380000000  0.4487800000000 1.0
C      1  0.5162120000000  0.6122390000000  0.4835610000000 1.0
C      1  0.5960840000000  0.5259590000000  0.5745870000000 1.0
C      1  0.4352530000000  0.5517990000000  0.4132680000000 1.0
C      1  0.5527700000000  0.3912450000000  0.4663890000000 1.0
C      1  0.4277990000000  0.4404460000000  0.4943940000000 1.0
C      1  0.5180610000000  0.3659280000000  0.5284840000000 1.0
C      1  0.4207390000000  0.5438790000000  0.4369210000000 1.0
C      1  0.5347030000000  0.4699020000000  0.5352790000000 1.0
C      1  0.3887740000000  0.5537970000000  0.5194950000000 1.0
C      1  0.6491530000000  0.5637860000000  0.5398750000000 1.0
C      1  0.3874310000000  0.4897120000000  0.5073790000000 1.0
C      1  0.4413530000000  0.5775080000000  0.5715510000000 1.0
C      1  0.4704860000000  0.4236030000000  0.4207510000000 1.0
C      1  0.3851100000000  0.4634700000000  0.4945700000000 1.0
C      1  0.5178150000000  0.4310340000000  0.4096180000000 1.0
C      1  0.4336310000000  0.5012800000000  0.5827990000000 1.0
C      1  0.5610800000000  0.4488410000000  0.4746920000000 1.0
C      1  0.5563900000000  0.4194220000000  0.6032710000000 1.0
C      1  0.4351060000000  0.5437870000000  0.4614570000000 1.0
C      1  0.4942520000000  0.5042000000000  0.4924110000000 1.0
C      1  0.6064090000000  0.5342370000000  0.4577080000000 1.0
C      1  0.4611450000000  0.5906070000000  0.4830440000000 1.0
C      1  0.4421650000000  0.5935280000000  0.5287530000000 1.0
C      1  0.4114760000000  0.5509680000000  0.5364250000000 1.0
C      1  0.5046030000000  0.6138720000000  0.5094120000000 1.0
C      1  0.5123640000000  0.4320720000000  0.4563510000000 1.0
C      1  0.4489220000000  0.5174260000000  0.4993130000000 1.0
C      1  0.4379300000000  0.5266660000000  0.3976110000000 1.0
C      1  0.5014170000000  0.4940720000000  0.4463470000000 1.0
C      1  0.5212070000000  0.5143010000000  0.3609170000000 1.0
C      1  0.5392330000000  0.4097390000000  0.5346710000000 1.0
C      1  0.4832410000000  0.5425740000000  0.4459560000000 1.0
C      1  0.4395480000000  0.5174970000000  0.5597400000000 1.0
C      1  0.4380760000000  0.4640650000000  0.4832550000000 1.0
C      1  0.5712030000000  0.5057730000000  0.5348580000000 1.0
C      1  0.5430210000000  0.5693380000000  0.4799580000000 1.0
C      1  0.5316160000000  0.5199070000000  0.6042300000000 1.0
C      1  0.5216580000000  0.4966060000000  0.5925330000000 1.0
C      1  0.5970160000000  0.5138350000000  0.5275160000000 1.0
C      1  0.4218690000000  0.5058120000000  0.4100270000000 1.0
C      1  0.4680290000000  0.5992720000000  0.5415640000000 1.0
C      1  0.5374020000000  0.5734090000000  0.5579060000000 1.0
C      1  0.4761200000000  0.5620080000000  0.3929360000000 1.0
C      1  0.5003820000000  0.5669360000000  0.5238070000000 1.0
C      1  0.5334550000000  0.4708930000000  0.5965020000000 1.0
C      1  0.4895310000000  0.4391910000000  0.4060530000000 1.0
C      1  0.4406580000000  0.5133980000000  0.6073370000000 1.0
C      1  0.5810050000000  0.3744190000000  0.5020830000000 1.0
C      1  0.5220440000000  0.4166000000000  0.4343330000000 1.0
C      1  0.4732150000000  0.5456300000000  0.5350950000000 1.0
C      1  0.4844170000000  0.4317120000000  0.4661690000000 1.0
C      1  0.5401650000000  0.3968340000000  0.4431500000000 1.0
C      1  0.5160750000000  0.3935940000000  0.5312760000000 1.0
C      1  0.4620790000000  0.5506400000000  0.4622560000000 1.0
C      1  0.4980880000000  0.6156970000000  0.4609410000000 1.0
C      1  0.4296980000000  0.4736880000000  0.5827790000000 1.0
C      1  0.5240200000000  0.5452610000000  0.5927370000000 1.0
C      1  0.6048120000000  0.5026020000000  0.5889380000000 1.0
C      1  0.4987770000000  0.5579040000000  0.4942060000000 1.0
C      1  0.5718800000000  0.5382320000000  0.5849290000000 1.0
C      1  0.5049470000000  0.6336850000000  0.4412890000000 1.0
C      1  0.6171880000000  0.5248490000000  0.4813080000000 1.0
C      1  0.5165080000000  0.4465290000000  0.5941360000000 1.0
C      1  0.4225460000000  0.4374930000000  0.4300060000000 1.0
C      1  0.5247260000000  0.5556910000000  0.4233030000000 1.0
C      1  0.5228320000000  0.4690040000000  0.4845450000000 1.0
C      1  0.3729750000000  0.5376890000000  0.5046430000000 1.0
C      1  0.5038110000000  0.5288030000000  0.4982890000000 1.0
C      1  0.5626340000000  0.3934560000000  0.4929600000000 1.0
C      1  0.4639410000000  0.5149350000000  0.3900780000000 1.0
C      1  0.5280060000000  0.5440360000000  0.3994470000000 1.0
C      1  0.4568100000000  0.5709850000000  0.4120980000000 1.0
C      1  0.5602030000000  0.5223910000000  0.6069830000000 1.0
C      1  0.5534870000000  0.5449710000000  0.4926590000000 1.0
C      1  0.4130370000000  0.4256100000000  0.4753470000000 1.0
C      1  0.5489820000000  0.4542410000000  0.5541390000000 1.0
C      1  0.4110110000000  0.5156720000000  0.4348420000000 1.0
C      1  0.5165060000000  0.5635540000000  0.4712890000000 1.0
C      1  0.4728540000000  0.6010750000000  0.4584660000000 1.0
C      1  0.5326710000000  0.4498510000000  0.4656360000000 1.0
C      1  0.5712030000000  0.5148830000000  0.4269480000000 1.0
C      1  0.4294360000000  0.4645780000000  0.4322280000000 1.0
C      1  0.4618460000000  0.5299600000000  0.6082730000000 1.0
C      1  0.4420490000000  0.4506920000000  0.5881850000000 1.0
C      1  0.5297660000000  0.4971880000000  0.3432250000000 1.0
C      1  0.5049980000000  0.4794940000000  0.4231890000000 1.0
C      1  0.4978600000000  0.5557210000000  0.5888780000000 1.0
C      1  0.5715810000000  0.4866910000000  0.4221020000000 1.0
C      1  0.5859180000000  0.4734830000000  0.4427520000000 1.0
C      1  0.4175720000000  0.5020690000000  0.4598270000000 1.0
C      1  0.4060860000000  0.4998960000000  0.5273790000000 1.0
C      1  0.4661660000000  0.4365990000000  0.5856400000000 1.0
C      1  0.4298600000000  0.5205050000000  0.4781290000000 1.0
C      1  0.5791890000000  0.4324740000000  0.6097680000000 1.0
C      1  0.4851790000000  0.4283710000000  0.5143940000000 1.0
C      1  0.5283350000000  0.5613110000000  0.5335830000000 1.0
C      1  0.4694990000000  0.5619580000000  0.4883680000000 1.0
C      1  0.4731780000000  0.4000660000000  0.5519780000000 1.0
C      1  0.6084700000000  0.5295980000000  0.5485210000000 1.0
C      1  0.5970930000000  0.3562960000000  0.5116660000000 1.0
C      1  0.4185530000000  0.5225810000000  0.5411140000000 1.0
C      1  0.5955150000000  0.4538030000000  0.6078020000000 1.0
C      1  0.5341290000000  0.4241290000000  0.5859100000000 1.0
C      1  0.5389350000000  0.4487490000000  0.4014460000000 1.0
C      1  0.4637330000000  0.4687050000000  0.4928850000000 1.0
C      1  0.4637730000000  0.4856150000000  0.3987230000000 1.0
C      1  0.4847070000000  0.5156270000000  0.4415490000000 1.0
C      1  0.4644910000000  0.5332240000000  0.5592200000000 1.0
C      1  0.4630840000000  0.5907260000000  0.4326680000000 1.0
C      1  0.5087780000000  0.4956470000000  0.5663200000000 1.0
C      1  0.4907610000000  0.4065260000000  0.5311530000000 1.0
C      1  0.4370620000000  0.4813910000000  0.4109840000000 1.0
C      1  0.5261710000000  0.4962510000000  0.5432620000000 1.0
C      1  0.5783270000000  0.4975040000000  0.4851350000000 1.0
C      1  0.3708940000000  0.5113540000000  0.4985480000000 1.0
C      1  0.5557090000000  0.4673150000000  0.5784920000000 1.0
C      1  0.4585440000000  0.5428130000000  0.5104250000000 1.0
C      1  0.3640830000000  0.4282600000000  0.4662890000000 1.0
C      1  0.4886410000000  0.4754490000000  0.5670530000000 1.0
C      1  0.4858120000000  0.4680210000000  0.4056160000000 1.0
C      1  0.5356150000000  0.4612130000000  0.5091890000000 1.0
C      1  0.5449680000000  0.5155680000000  0.5336860000000 1.0
C      1  0.4917730000000  0.5955280000000  0.5264910000000 1.0
C      1  0.4758200000000  0.5387930000000  0.5854090000000 1.0
C      1  0.3864800000000  0.4386450000000  0.4782030000000 1.0
C      1  0.5565700000000  0.4414510000000  0.5023510000000 1.0
C      1  0.4278120000000  0.4758340000000  0.4589740000000 1.0
C      1  0.6295530000000  0.5472540000000  0.5445240000000 1.0
C      1  0.4793980000000  0.4441980000000  0.4918920000000 1.0
C      1  0.5788540000000  0.5291930000000  0.4505640000000 1.0
C      1  0.5113880000000  0.5306840000000  0.3810730000000 1.0
C      1  0.5553140000000  0.4699190000000  0.4058670000000 1.0
C      1  0.5418010000000  0.5981460000000  0.4821550000000 1.0
C      1  0.4272140000000  0.5739840000000  0.5455400000000 1.0
C      1  0.4837180000000  0.5351130000000  0.3852590000000 1.0
C      1  0.4315590000000  0.4213330000000  0.4522680000000 1.0
C      1  0.5431270000000  0.5406710000000  0.5201100000000 1.0
C      1  0.4901440000000  0.4517100000000  0.5833890000000 1.0
C      1  0.4941450000000  0.5827100000000  0.5796420000000 1.0
C      1  0.5548100000000  0.4145880000000  0.5109040000000 1.0
C      1  0.5190040000000  0.5927480000000  0.5691860000000 1.0
C      1  0.6020180000000  0.5087650000000  0.4996840000000 1.0
C      1  0.5773470000000  0.4721750000000  0.4697250000000 1.0
C      1  0.5416320000000  0.4263990000000  0.5575920000000 1.0
C      1  0.5080640000000  0.5564090000000  0.4456990000000 1.0
C      1  0.4416550000000  0.5997030000000  0.5013230000000 1.0
C      1  0.4682440000000  0.5898260000000  0.5692300000000 1.0
C      1  0.5079610000000  0.4892170000000  0.4734930000000 1.0
C      1  0.4683760000000  0.4959440000000  0.4986720000000 1.0
C      1  0.4656560000000  0.4106410000000  0.5752820000000 1.0
C      1  0.6039400000000  0.4781230000000  0.5999960000000 1.0
C      1  0.5643440000000  0.5231820000000  0.4757740000000 1.0
END
