TITL C-627106-156-894 48634.0736562173 125000 -636.416952827624 0 0 105 (C1) n - 1
REM
REM in /home/nfs/bkarasulu/CARBON/AIRSS/Generating-Clusters/LCBOP/Only-C1/SD-CG/FIRE-CG
REM
REM
REM
REM
REM
REM ./C.cell (11c1c37f851c82e70ff6c80c92926a4b)
REM AIRSS Version 0.9.1 bugfix July 2018 build 013d7b7c2542+ Fri, 06 Jul 2018 19:26:36 +0100
REM compiler GCC version 9.2.1 20190827 (Red Hat 9.2.1-1)
REM options -cpp -mtune=generic -march=x86-64 -g -O0 -fpre-include=/usr/include/finclude/math-vector-fortran.h
REM seed -2080749725 1529346876 -153338201 2089199130 1855800981 1543212741 562474023 -1683434760 -1073140379 -479064395 -1649306280 -708555124 -1033491145 2130707262 127811433 917796101 1725647161 1119852348 -1182371479 -911490751 1186193979 283688237 -1228309032 2115647829 905586730 -1920641626 362372474 1518710183 1471194113 248410419 1457584424 1634029098 238760538
REM
CELL 1.54180   50.00000   50.00000   50.00000   90.00000   90.00000   90.00000
LATT -1
SFAC C  
C      1  0.4816870000000  0.4932120000000  0.5444420000000 1.0
C      1  0.5397990000000  0.5188570000000  0.4282770000000 1.0
C      1  0.4581500000000  0.5782220000000  0.5208420000000 1.0
C      1  0.5470880000000  0.4883260000000  0.5262970000000 1.0
C      1  0.5053410000000  0.5602640000000  0.4386170000000 1.0
C      1  0.5181640000000  0.4571590000000  0.5559150000000 1.0
C      1  0.4631170000000  0.5822970000000  0.5484190000000 1.0
C      1  0.5671130000000  0.5080220000000  0.5733740000000 1.0
C      1  0.4109410000000  0.5888740000000  0.5216330000000 1.0
C      1  0.5568940000000  0.4350800000000  0.4253400000000 1.0
C      1  0.5288060000000  0.4385370000000  0.5159390000000 1.0
C      1  0.4827320000000  0.4306700000000  0.5361070000000 1.0
C      1  0.5200960000000  0.5789800000000  0.5705540000000 1.0
C      1  0.4507360000000  0.4724280000000  0.5720800000000 1.0
C      1  0.5526060000000  0.5437030000000  0.4343390000000 1.0
C      1  0.5994740000000  0.4607950000000  0.5080420000000 1.0
C      1  0.4963250000000  0.4790590000000  0.5212220000000 1.0
C      1  0.5171120000000  0.5840850000000  0.4984570000000 1.0
C      1  0.4208390000000  0.4795050000000  0.4322490000000 1.0
C      1  0.4460930000000  0.4203470000000  0.4753540000000 1.0
C      1  0.5556600000000  0.5081850000000  0.4985580000000 1.0
C      1  0.5648590000000  0.5592110000000  0.4825460000000 1.0
C      1  0.4784670000000  0.5341670000000  0.5177210000000 1.0
C      1  0.4649260000000  0.4676500000000  0.4824360000000 1.0
C      1  0.4814960000000  0.4720000000000  0.4291200000000 1.0
C      1  0.4733220000000  0.5727250000000  0.5711440000000 1.0
C      1  0.5332560000000  0.4713420000000  0.4380600000000 1.0
C      1  0.4115370000000  0.5118220000000  0.4704810000000 1.0
C      1  0.4940240000000  0.4138520000000  0.4427580000000 1.0
C      1  0.4457100000000  0.4485670000000  0.4762530000000 1.0
C      1  0.4329820000000  0.4485070000000  0.5195860000000 1.0
C      1  0.5002780000000  0.5331880000000  0.4754940000000 1.0
C      1  0.4935170000000  0.5603300000000  0.4650770000000 1.0
C      1  0.4172580000000  0.5434320000000  0.5072820000000 1.0
C      1  0.5815750000000  0.5104380000000  0.4544420000000 1.0
C      1  0.5565340000000  0.4339330000000  0.5128110000000 1.0
C      1  0.4633080000000  0.4504420000000  0.4246270000000 1.0
C      1  0.5544270000000  0.4345560000000  0.4541350000000 1.0
C      1  0.5342740000000  0.4731740000000  0.5722390000000 1.0
C      1  0.5044370000000  0.4221730000000  0.5164990000000 1.0
C      1  0.4905160000000  0.4090670000000  0.4944850000000 1.0
C      1  0.4362450000000  0.4594840000000  0.4226790000000 1.0
C      1  0.4559370000000  0.4296680000000  0.5224560000000 1.0
C      1  0.5793050000000  0.5382500000000  0.4451800000000 1.0
C      1  0.5115820000000  0.4574880000000  0.4789920000000 1.0
C      1  0.4806450000000  0.5836800000000  0.5017200000000 1.0
C      1  0.4629090000000  0.5348300000000  0.4204360000000 1.0
C      1  0.5313370000000  0.4522720000000  0.4599390000000 1.0
C      1  0.4923930000000  0.4445940000000  0.5592940000000 1.0
C      1  0.4688440000000  0.4233310000000  0.4333230000000 1.0
C      1  0.5029760000000  0.5314430000000  0.5044300000000 1.0
C      1  0.5532170000000  0.4899930000000  0.5562820000000 1.0
C      1  0.5002240000000  0.4058280000000  0.4680510000000 1.0
C      1  0.4850350000000  0.5113690000000  0.5698330000000 1.0
C      1  0.6062710000000  0.4870010000000  0.4985540000000 1.0
C      1  0.4960100000000  0.5172920000000  0.4499910000000 1.0
C      1  0.5768110000000  0.4355280000000  0.4709580000000 1.0
C      1  0.4095450000000  0.4949710000000  0.4968300000000 1.0
C      1  0.4169340000000  0.4678400000000  0.5068190000000 1.0
C      1  0.4216930000000  0.5056370000000  0.4434220000000 1.0
C      1  0.4478990000000  0.4110050000000  0.4488290000000 1.0
C      1  0.4627940000000  0.4914500000000  0.4685130000000 1.0
C      1  0.4550360000000  0.5126700000000  0.4841990000000 1.0
C      1  0.5236260000000  0.4662650000000  0.5274660000000 1.0
C      1  0.4899450000000  0.4668330000000  0.4953290000000 1.0
C      1  0.5339700000000  0.5638570000000  0.4447370000000 1.0
C      1  0.5378560000000  0.4993340000000  0.6112330000000 1.0
C      1  0.5591310000000  0.5118490000000  0.5993200000000 1.0
C      1  0.5436870000000  0.4582590000000  0.4142980000000 1.0
C      1  0.4762190000000  0.5002840000000  0.5953330000000 1.0
C      1  0.4930870000000  0.4759780000000  0.5977250000000 1.0
C      1  0.5227400000000  0.5330250000000  0.5249240000000 1.0
C      1  0.4271810000000  0.4988480000000  0.6091880000000 1.0
C      1  0.5323850000000  0.5783570000000  0.5216170000000 1.0
C      1  0.5396340000000  0.4970570000000  0.4466770000000 1.0
C      1  0.4614250000000  0.4124290000000  0.4982610000000 1.0
C      1  0.4574380000000  0.5182920000000  0.5113400000000 1.0
C      1  0.4486230000000  0.4916670000000  0.5944680000000 1.0
C      1  0.5400460000000  0.5728630000000  0.4725770000000 1.0
C      1  0.5018530000000  0.5336570000000  0.5697810000000 1.0
C      1  0.4140940000000  0.5405400000000  0.4782860000000 1.0
C      1  0.4906570000000  0.5368550000000  0.4279570000000 1.0
C      1  0.4767880000000  0.4574120000000  0.5794840000000 1.0
C      1  0.4814200000000  0.4935010000000  0.4476100000000 1.0
C      1  0.5218110000000  0.4805320000000  0.5971140000000 1.0
C      1  0.6123970000000  0.5129800000000  0.4934820000000 1.0
C      1  0.5413690000000  0.4656390000000  0.3883890000000 1.0
C      1  0.4737340000000  0.5766110000000  0.4753580000000 1.0
C      1  0.5888670000000  0.5528520000000  0.4682900000000 1.0
C      1  0.5594850000000  0.5385640000000  0.5021360000000 1.0
C      1  0.5582840000000  0.5004470000000  0.4692540000000 1.0
C      1  0.5217680000000  0.5271180000000  0.5516680000000 1.0
C      1  0.5426260000000  0.5517430000000  0.5203340000000 1.0
C      1  0.4391950000000  0.5241040000000  0.4290100000000 1.0
C      1  0.4522600000000  0.4870720000000  0.5466720000000 1.0
C      1  0.5301350000000  0.5889310000000  0.5475340000000 1.0
C      1  0.4144580000000  0.5158510000000  0.5187090000000 1.0
C      1  0.4393420000000  0.5067760000000  0.5303920000000 1.0
C      1  0.6141370000000  0.4513380000000  0.5294060000000 1.0
C      1  0.5788340000000  0.4433210000000  0.4978870000000 1.0
C      1  0.4478900000000  0.5763030000000  0.4643840000000 1.0
C      1  0.4298050000000  0.5689450000000  0.5161480000000 1.0
C      1  0.4253680000000  0.5616000000000  0.4632790000000 1.0
C      1  0.4984980000000  0.5612000000000  0.5756680000000 1.0
C      1  0.6088170000000  0.5381030000000  0.4832910000000 1.0
END
