TITL C-627110-360-1348 5.16603444197108 125000 -1162.01530852778 0 0 191 (C1) n - 1
REM
REM in /home/nfs/bkarasulu/CARBON/AIRSS/Generating-Clusters/LCBOP/Only-C1/SD-CG/FIRE-CG
REM
REM
REM
REM
REM
REM ./C.cell (11c1c37f851c82e70ff6c80c92926a4b)
REM AIRSS Version 0.9.1 bugfix July 2018 build 013d7b7c2542+ Fri, 06 Jul 2018 19:26:36 +0100
REM compiler GCC version 9.2.1 20190827 (Red Hat 9.2.1-1)
REM options -cpp -mtune=generic -march=x86-64 -g -O0 -fpre-include=/usr/include/finclude/math-vector-fortran.h
REM seed 155782770 2042384985 -595080128 -1274145608 1869963051 925113162 -1358228627 784244960 -1648025291 644331341 -943107662 -1463514410 2071743249 1321091988 -548160331 -2035999098 1421425089 43174047 452152826 -641924160 -1771162129 -1895232685 -1898882301 -539207537 1678596094 -1164187343 385734291 733616262 431570813 -542241922 2074453472 -707359058 501336835
REM
CELL 1.54180   50.00000   50.00000   50.00000   90.00000   90.00000   90.00000
LATT -1
SFAC C  
C      1  0.6321400000000  0.4199400000000  0.4148820000000 1.0
C      1  0.5097690000000  0.4781680000000  0.4864700000000 1.0
C      1  0.4867970000000  0.4003070000000  0.5514150000000 1.0
C      1  0.5521160000000  0.5624790000000  0.5725420000000 1.0
C      1  0.4981330000000  0.5427240000000  0.5108600000000 1.0
C      1  0.5960870000000  0.4714210000000  0.4562070000000 1.0
C      1  0.5729320000000  0.5267660000000  0.5464500000000 1.0
C      1  0.6204920000000  0.4747660000000  0.5897280000000 1.0
C      1  0.5494140000000  0.5561840000000  0.4722480000000 1.0
C      1  0.4333940000000  0.4995280000000  0.5312400000000 1.0
C      1  0.4508500000000  0.4796090000000  0.6295700000000 1.0
C      1  0.4729300000000  0.4981570000000  0.6299700000000 1.0
C      1  0.4430080000000  0.6024970000000  0.4043900000000 1.0
C      1  0.6025810000000  0.5877110000000  0.4913730000000 1.0
C      1  0.4219190000000  0.5494220000000  0.5378160000000 1.0
C      1  0.4103170000000  0.5619810000000  0.5825950000000 1.0
C      1  0.5522160000000  0.4649470000000  0.3969920000000 1.0
C      1  0.5298340000000  0.5881910000000  0.6301270000000 1.0
C      1  0.6058680000000  0.3358860000000  0.4596040000000 1.0
C      1  0.5437380000000  0.4302760000000  0.4954050000000 1.0
C      1  0.4683550000000  0.4726370000000  0.5780250000000 1.0
C      1  0.4445440000000  0.4467950000000  0.4043810000000 1.0
C      1  0.5309130000000  0.5699920000000  0.4245900000000 1.0
C      1  0.6171180000000  0.5172940000000  0.4351810000000 1.0
C      1  0.4694080000000  0.5780340000000  0.5464660000000 1.0
C      1  0.3439390000000  0.5391190000000  0.4899220000000 1.0
C      1  0.5300190000000  0.5072740000000  0.5525990000000 1.0
C      1  0.5905890000000  0.5525380000000  0.4141770000000 1.0
C      1  0.4668140000000  0.5077290000000  0.4842700000000 1.0
C      1  0.3636630000000  0.5292190000000  0.5037890000000 1.0
C      1  0.5336300000000  0.5824620000000  0.5818380000000 1.0
C      1  0.5200880000000  0.5233480000000  0.4007260000000 1.0
C      1  0.4297910000000  0.5087800000000  0.5978200000000 1.0
C      1  0.5019150000000  0.5005980000000  0.5925420000000 1.0
C      1  0.5955840000000  0.4766330000000  0.6023360000000 1.0
C      1  0.4100850000000  0.5547910000000  0.4654630000000 1.0
C      1  0.5567960000000  0.4412420000000  0.4116730000000 1.0
C      1  0.4250050000000  0.4480030000000  0.5230340000000 1.0
C      1  0.4008450000000  0.5272520000000  0.5388210000000 1.0
C      1  0.4026320000000  0.4222030000000  0.4899240000000 1.0
C      1  0.4204160000000  0.5359430000000  0.5919730000000 1.0
C      1  0.5720300000000  0.4854330000000  0.3959070000000 1.0
C      1  0.4393820000000  0.5746870000000  0.4090520000000 1.0
C      1  0.5736470000000  0.4577480000000  0.6017140000000 1.0
C      1  0.3909080000000  0.4799530000000  0.5515560000000 1.0
C      1  0.4872590000000  0.5005050000000  0.5306190000000 1.0
C      1  0.5882520000000  0.4098710000000  0.4317770000000 1.0
C      1  0.6311990000000  0.4915160000000  0.5715000000000 1.0
C      1  0.5179490000000  0.4125700000000  0.5854660000000 1.0
C      1  0.4526440000000  0.4518620000000  0.6217430000000 1.0
C      1  0.4344770000000  0.5420340000000  0.4726690000000 1.0
C      1  0.4938510000000  0.6169190000000  0.4028070000000 1.0
C      1  0.5899840000000  0.6061580000000  0.4762110000000 1.0
C      1  0.5148990000000  0.4991910000000  0.5304680000000 1.0
C      1  0.6199120000000  0.3526000000000  0.4444450000000 1.0
C      1  0.4583990000000  0.3965400000000  0.4861230000000 1.0
C      1  0.4544330000000  0.5814600000000  0.5019360000000 1.0
C      1  0.4387280000000  0.4657790000000  0.4544800000000 1.0
C      1  0.4252450000000  0.4884850000000  0.4423720000000 1.0
C      1  0.4360600000000  0.4966920000000  0.4167630000000 1.0
C      1  0.5607130000000  0.5428810000000  0.5921040000000 1.0
C      1  0.4879840000000  0.4961060000000  0.4275810000000 1.0
C      1  0.5219040000000  0.4353730000000  0.5420060000000 1.0
C      1  0.5004970000000  0.6145200000000  0.5583500000000 1.0
C      1  0.5387410000000  0.5970340000000  0.4176940000000 1.0
C      1  0.5079890000000  0.4988020000000  0.4674110000000 1.0
C      1  0.5227000000000  0.5138460000000  0.5793100000000 1.0
C      1  0.4708330000000  0.4403980000000  0.5151210000000 1.0
C      1  0.4594150000000  0.5536300000000  0.4638220000000 1.0
C      1  0.4736700000000  0.5734230000000  0.4806380000000 1.0
C      1  0.4960790000000  0.5625620000000  0.6068680000000 1.0
C      1  0.6052970000000  0.5599840000000  0.4879250000000 1.0
C      1  0.4518830000000  0.4744220000000  0.4050510000000 1.0
C      1  0.5736450000000  0.5123140000000  0.3951300000000 1.0
C      1  0.4849300000000  0.5146220000000  0.6101510000000 1.0
C      1  0.5362600000000  0.5618460000000  0.5240700000000 1.0
C      1  0.5563440000000  0.5528590000000  0.5443970000000 1.0
C      1  0.5543730000000  0.4919180000000  0.4644420000000 1.0
C      1  0.5282390000000  0.5026330000000  0.3796010000000 1.0
C      1  0.4220590000000  0.4432070000000  0.4534440000000 1.0
C      1  0.6146710000000  0.4023070000000  0.4263260000000 1.0
C      1  0.4859360000000  0.4044720000000  0.4898730000000 1.0
C      1  0.4798760000000  0.4781520000000  0.4074590000000 1.0
C      1  0.6201380000000  0.5213140000000  0.5137380000000 1.0
C      1  0.5750060000000  0.6121340000000  0.4547810000000 1.0
C      1  0.4667390000000  0.6160180000000  0.4022900000000 1.0
C      1  0.5841370000000  0.5031070000000  0.6064650000000 1.0
C      1  0.3981270000000  0.5719100000000  0.4850270000000 1.0
C      1  0.4737160000000  0.5163400000000  0.5498700000000 1.0
C      1  0.5261050000000  0.4635950000000  0.5819660000000 1.0
C      1  0.4512520000000  0.4483340000000  0.5323450000000 1.0
C      1  0.4662620000000  0.5365420000000  0.4007710000000 1.0
C      1  0.4637130000000  0.4622630000000  0.4676900000000 1.0
C      1  0.5706500000000  0.4659450000000  0.4700420000000 1.0
C      1  0.5587610000000  0.4724020000000  0.5429140000000 1.0
C      1  0.4761160000000  0.6049420000000  0.5516300000000 1.0
C      1  0.5714410000000  0.5370650000000  0.4673800000000 1.0
C      1  0.5992580000000  0.5363890000000  0.5045080000000 1.0
C      1  0.4418250000000  0.4209080000000  0.5782870000000 1.0
C      1  0.4512940000000  0.4311620000000  0.6038530000000 1.0
C      1  0.5204290000000  0.4335340000000  0.5129920000000 1.0
C      1  0.5296350000000  0.4988090000000  0.4492160000000 1.0
C      1  0.4480800000000  0.5061970000000  0.5538280000000 1.0
C      1  0.4372660000000  0.6261580000000  0.4895330000000 1.0
C      1  0.5614870000000  0.3406090000000  0.4848420000000 1.0
C      1  0.5239130000000  0.6044780000000  0.5670790000000 1.0
C      1  0.4819340000000  0.5378360000000  0.5672180000000 1.0
C      1  0.4753460000000  0.5352510000000  0.4490790000000 1.0
C      1  0.3980130000000  0.5070560000000  0.5607180000000 1.0
C      1  0.5639290000000  0.4508430000000  0.4940710000000 1.0
C      1  0.4025950000000  0.4453800000000  0.5062170000000 1.0
C      1  0.5342180000000  0.6236850000000  0.3777430000000 1.0
C      1  0.5198710000000  0.5777950000000  0.6068460000000 1.0
C      1  0.5396710000000  0.5461040000000  0.4088860000000 1.0
C      1  0.5958820000000  0.5266390000000  0.5645300000000 1.0
C      1  0.5163130000000  0.5051130000000  0.4248160000000 1.0
C      1  0.4974740000000  0.4735650000000  0.5849360000000 1.0
C      1  0.5677960000000  0.5388450000000  0.4040760000000 1.0
C      1  0.5546560000000  0.4985330000000  0.6092490000000 1.0
C      1  0.5365130000000  0.4565530000000  0.5553320000000 1.0
C      1  0.5841940000000  0.3316340000000  0.4743910000000 1.0
C      1  0.5974480000000  0.5515820000000  0.4613610000000 1.0
C      1  0.4051390000000  0.5529880000000  0.4374950000000 1.0
C      1  0.5989640000000  0.4981850000000  0.4455710000000 1.0
C      1  0.5422950000000  0.4073380000000  0.4779070000000 1.0
C      1  0.4272150000000  0.4941680000000  0.6220350000000 1.0
C      1  0.4166910000000  0.4345270000000  0.5702210000000 1.0
C      1  0.4576130000000  0.4036970000000  0.5581380000000 1.0
C      1  0.4932470000000  0.4330530000000  0.4979870000000 1.0
C      1  0.5299880000000  0.5673920000000  0.4888000000000 1.0
C      1  0.6076200000000  0.5446970000000  0.4357320000000 1.0
C      1  0.4491720000000  0.4223250000000  0.4151180000000 1.0
C      1  0.4230220000000  0.5505060000000  0.4153650000000 1.0
C      1  0.4658870000000  0.5635400000000  0.4102710000000 1.0
C      1  0.3819610000000  0.5155170000000  0.5194870000000 1.0
C      1  0.5008170000000  0.4657260000000  0.3926430000000 1.0
C      1  0.3996200000000  0.4920710000000  0.4541980000000 1.0
C      1  0.4256810000000  0.5049050000000  0.5062270000000 1.0
C      1  0.4003470000000  0.4556070000000  0.5635840000000 1.0
C      1  0.3871360000000  0.4690820000000  0.5011340000000 1.0
C      1  0.4074740000000  0.5898320000000  0.5054750000000 1.0
C      1  0.3865080000000  0.4807940000000  0.4751020000000 1.0
C      1  0.5080970000000  0.4171830000000  0.5601930000000 1.0
C      1  0.4961120000000  0.3823620000000  0.5302710000000 1.0
C      1  0.4384150000000  0.5165040000000  0.4845150000000 1.0
C      1  0.5577700000000  0.5017490000000  0.5474110000000 1.0
C      1  0.4421110000000  0.3922100000000  0.5365710000000 1.0
C      1  0.5519620000000  0.5028900000000  0.4944060000000 1.0
C      1  0.4428290000000  0.4029720000000  0.4631260000000 1.0
C      1  0.4846380000000  0.5739660000000  0.4277360000000 1.0
C      1  0.5095770000000  0.5563950000000  0.5320020000000 1.0
C      1  0.5271250000000  0.4744130000000  0.3863440000000 1.0
C      1  0.5040010000000  0.3861370000000  0.5028060000000 1.0
C      1  0.5275450000000  0.4907140000000  0.5063880000000 1.0
C      1  0.6227590000000  0.3763360000000  0.4328960000000 1.0
C      1  0.4730060000000  0.4901840000000  0.5078330000000 1.0
C      1  0.5165570000000  0.4219020000000  0.4407960000000 1.0
C      1  0.4473060000000  0.4943490000000  0.5795390000000 1.0
C      1  0.4610470000000  0.4551590000000  0.5573260000000 1.0
C      1  0.4013600000000  0.5798620000000  0.6015060000000 1.0
C      1  0.3817120000000  0.4859650000000  0.5236220000000 1.0
C      1  0.4094080000000  0.5698190000000  0.5545450000000 1.0
C      1  0.5865080000000  0.5285610000000  0.5916560000000 1.0
C      1  0.5421900000000  0.5216080000000  0.5977690000000 1.0
C      1  0.4825690000000  0.5400750000000  0.5964960000000 1.0
C      1  0.4927840000000  0.4540160000000  0.4762620000000 1.0
C      1  0.5082340000000  0.5714140000000  0.4431270000000 1.0
C      1  0.4198450000000  0.4194300000000  0.4678790000000 1.0
C      1  0.5627600000000  0.4211410000000  0.4312270000000 1.0
C      1  0.5473520000000  0.4707200000000  0.6012090000000 1.0
C      1  0.4516460000000  0.4051180000000  0.4359950000000 1.0
C      1  0.5419700000000  0.4133100000000  0.4494450000000 1.0
C      1  0.4506040000000  0.5674350000000  0.5273800000000 1.0
C      1  0.5589000000000  0.6087880000000  0.4336540000000 1.0
C      1  0.5734560000000  0.5243290000000  0.4962710000000 1.0
C      1  0.4395170000000  0.5249610000000  0.4088010000000 1.0
C      1  0.4447380000000  0.3885560000000  0.5099370000000 1.0
C      1  0.5712090000000  0.4613730000000  0.5197550000000 1.0
C      1  0.4005790000000  0.5888700000000  0.5340540000000 1.0
C      1  0.5430410000000  0.3590700000000  0.4895500000000 1.0
C      1  0.4334270000000  0.6007030000000  0.4983950000000 1.0
C      1  0.6206830000000  0.5139850000000  0.5609770000000 1.0
C      1  0.4804880000000  0.5324020000000  0.4951290000000 1.0
C      1  0.5026380000000  0.4422980000000  0.4506460000000 1.0
C      1  0.5298520000000  0.3836620000000  0.4899720000000 1.0
C      1  0.5737720000000  0.5112500000000  0.4521110000000 1.0
C      1  0.5044230000000  0.5738770000000  0.4732960000000 1.0
C      1  0.4905790000000  0.5601860000000  0.5525220000000 1.0
C      1  0.5220150000000  0.6125190000000  0.3997660000000 1.0
C      1  0.4814500000000  0.5067600000000  0.4564170000000 1.0
C      1  0.4918500000000  0.5298280000000  0.3916500000000 1.0
END
