TITL C-627111-6168-1329 9.24609116731795e-05 125000 -206.868435123027 0 0 36 (C1) n - 1
REM
REM in /home/nfs/bkarasulu/CARBON/AIRSS/Generating-Clusters/LCBOP/Only-C1/SD-CG/FIRE-CG
REM
REM
REM
REM
REM
REM ./C.cell (11c1c37f851c82e70ff6c80c92926a4b)
REM AIRSS Version 0.9.1 bugfix July 2018 build 013d7b7c2542+ Fri, 06 Jul 2018 19:26:36 +0100
REM compiler GCC version 9.2.1 20190827 (Red Hat 9.2.1-1)
REM options -cpp -mtune=generic -march=x86-64 -g -O0 -fpre-include=/usr/include/finclude/math-vector-fortran.h
REM seed 261561360 -1346798895 -199776940 -1940751025 -535510869 -467660732 1232754132 1013746001 315497767 976027314 719870942 -246781115 24241705 1603606976 -812383312 -758393870 92573961 639911122 -301367635 380896450 1093228684 -752286701 -1686127790 1465631920 1447950020 1804105506 -895301438 -1294023739 1143084575 -484222610 670031992 1335042270 -1911116231
REM
CELL 1.54180   50.00000   50.00000   50.00000   90.00000   90.00000   90.00000
LATT -1
SFAC C  
C      1  0.5310990000000  0.5054600000000  0.4818080000000 1.0
C      1  0.5055240000000  0.5281530000000  0.4361580000000 1.0
C      1  0.5475240000000  0.4219770000000  0.4082780000000 1.0
C      1  0.4498960000000  0.4978180000000  0.4515680000000 1.0
C      1  0.5556510000000  0.5133190000000  0.4776710000000 1.0
C      1  0.4473070000000  0.5300790000000  0.6261210000000 1.0
C      1  0.4954310000000  0.5203250000000  0.5708240000000 1.0
C      1  0.4594390000000  0.5323470000000  0.6026770000000 1.0
C      1  0.5322850000000  0.4376140000000  0.4225050000000 1.0
C      1  0.4772370000000  0.5540810000000  0.5340690000000 1.0
C      1  0.5660690000000  0.5739960000000  0.5233060000000 1.0
C      1  0.5186340000000  0.5531770000000  0.5079870000000 1.0
C      1  0.4721240000000  0.5347220000000  0.5781660000000 1.0
C      1  0.5380490000000  0.4272880000000  0.5148830000000 1.0
C      1  0.5091020000000  0.5197460000000  0.5457550000000 1.0
C      1  0.4845750000000  0.4297850000000  0.4675640000000 1.0
C      1  0.5160960000000  0.4606450000000  0.4867180000000 1.0
C      1  0.5078710000000  0.4793830000000  0.4282530000000 1.0
C      1  0.4571040000000  0.4862520000000  0.4762560000000 1.0
C      1  0.5019960000000  0.5414310000000  0.5277540000000 1.0
C      1  0.4819000000000  0.4946850000000  0.4871860000000 1.0
C      1  0.5160240000000  0.4541220000000  0.4380510000000 1.0
C      1  0.5244320000000  0.4971590000000  0.5395420000000 1.0
C      1  0.5429970000000  0.5645110000000  0.5157650000000 1.0
C      1  0.5077620000000  0.4454880000000  0.4641110000000 1.0
C      1  0.4484620000000  0.4599540000000  0.4817150000000 1.0
C      1  0.5109810000000  0.5542510000000  0.4809100000000 1.0
C      1  0.4353690000000  0.5278470000000  0.6491890000000 1.0
C      1  0.4937460000000  0.5038020000000  0.4283330000000 1.0
C      1  0.5093140000000  0.4884470000000  0.4856210000000 1.0
C      1  0.4599450000000  0.4361860000000  0.4763640000000 1.0
C      1  0.5085740000000  0.5463440000000  0.4555210000000 1.0
C      1  0.4634270000000  0.5518400000000  0.5573010000000 1.0
C      1  0.5284180000000  0.4524870000000  0.5109830000000 1.0
C      1  0.4655500000000  0.5027440000000  0.4302320000000 1.0
C      1  0.5300860000000  0.4725340000000  0.5308560000000 1.0
END
