TITL C-627110-360-2037 -5.18789487106083e-07 125000 -917.902396271699 0 0 152 (C1) n - 1
REM
REM in /home/nfs/bkarasulu/CARBON/AIRSS/Generating-Clusters/LCBOP/Only-C1/SD-CG/FIRE-CG
REM
REM
REM
REM
REM
REM ./C.cell (11c1c37f851c82e70ff6c80c92926a4b)
REM AIRSS Version 0.9.1 bugfix July 2018 build 013d7b7c2542+ Fri, 06 Jul 2018 19:26:36 +0100
REM compiler GCC version 9.2.1 20190827 (Red Hat 9.2.1-1)
REM options -cpp -mtune=generic -march=x86-64 -g -O0 -fpre-include=/usr/include/finclude/math-vector-fortran.h
REM seed -1093240634 -1425074175 -1684186498 1247627147 -1117891247 -708927711 1564778127 1962104298 802465883 1698660280 1088373627 -1168856184 1615998810 1432615776 -1266609395 2146776534 1461660525 2065034315 1542216553 2102683333 -44963860 1795415855 -1132450008 -669281941 1731342581 1426167374 1269717013 -1234257371 2038053171 -2104405733 -1988078796 368493100 -1228643012
REM
CELL 1.54180   50.00000   50.00000   50.00000   90.00000   90.00000   90.00000
LATT -1
SFAC C  
C      1  0.5391120000000  0.4388440000000  0.5683920000000 1.0
C      1  0.3831910000000  0.5056680000000  0.4568950000000 1.0
C      1  0.6226160000000  0.4682450000000  0.5096410000000 1.0
C      1  0.5338380000000  0.4254550000000  0.5131240000000 1.0
C      1  0.4253680000000  0.4437970000000  0.5727370000000 1.0
C      1  0.6227720000000  0.4599570000000  0.4816400000000 1.0
C      1  0.4554130000000  0.4110470000000  0.4819480000000 1.0
C      1  0.4670510000000  0.3702700000000  0.4541970000000 1.0
C      1  0.4601060000000  0.5912220000000  0.4660030000000 1.0
C      1  0.4150000000000  0.5267050000000  0.5490430000000 1.0
C      1  0.5019120000000  0.6055910000000  0.5328590000000 1.0
C      1  0.4336360000000  0.4946870000000  0.4045130000000 1.0
C      1  0.5288900000000  0.5877640000000  0.4906670000000 1.0
C      1  0.4596830000000  0.4007150000000  0.5570770000000 1.0
C      1  0.6006640000000  0.4569580000000  0.4628020000000 1.0
C      1  0.5956970000000  0.4864390000000  0.5530350000000 1.0
C      1  0.5134450000000  0.5447040000000  0.4037630000000 1.0
C      1  0.4607720000000  0.5036230000000  0.5837500000000 1.0
C      1  0.5842030000000  0.4130560000000  0.5460480000000 1.0
C      1  0.5668500000000  0.3958300000000  0.5336940000000 1.0
C      1  0.5137580000000  0.4324190000000  0.5617510000000 1.0
C      1  0.4895310000000  0.4150560000000  0.4490680000000 1.0
C      1  0.5566530000000  0.4941740000000  0.4238380000000 1.0
C      1  0.3904820000000  0.5125760000000  0.5344460000000 1.0
C      1  0.5885920000000  0.5440790000000  0.4850840000000 1.0
C      1  0.5079970000000  0.5368500000000  0.4487670000000 1.0
C      1  0.5427700000000  0.5424330000000  0.4068150000000 1.0
C      1  0.4515840000000  0.5616040000000  0.5605280000000 1.0
C      1  0.5760230000000  0.4422880000000  0.4495680000000 1.0
C      1  0.4790620000000  0.5995970000000  0.5483250000000 1.0
C      1  0.5746840000000  0.4189640000000  0.4930790000000 1.0
C      1  0.3746980000000  0.5215790000000  0.4805320000000 1.0
C      1  0.4988080000000  0.5662730000000  0.5830090000000 1.0
C      1  0.5434680000000  0.5793790000000  0.5606980000000 1.0
C      1  0.5476520000000  0.5937380000000  0.5368010000000 1.0
C      1  0.3813360000000  0.5494110000000  0.4788720000000 1.0
C      1  0.3846780000000  0.5096810000000  0.4281110000000 1.0
C      1  0.3750450000000  0.5085100000000  0.5076750000000 1.0
C      1  0.5338160000000  0.4638100000000  0.3897520000000 1.0
C      1  0.4840400000000  0.5798890000000  0.4758510000000 1.0
C      1  0.5546800000000  0.4059770000000  0.5100520000000 1.0
C      1  0.5029070000000  0.5694500000000  0.4181190000000 1.0
C      1  0.5795240000000  0.4439830000000  0.5084800000000 1.0
C      1  0.5264580000000  0.5167980000000  0.4538940000000 1.0
C      1  0.5764420000000  0.5094340000000  0.5586050000000 1.0
C      1  0.4143220000000  0.4368600000000  0.4723600000000 1.0
C      1  0.5077820000000  0.4704600000000  0.4013120000000 1.0
C      1  0.4885420000000  0.4932550000000  0.3986480000000 1.0
C      1  0.4282830000000  0.4924960000000  0.4733960000000 1.0
C      1  0.4425700000000  0.4330500000000  0.5928040000000 1.0
C      1  0.5249210000000  0.5975700000000  0.5186680000000 1.0
C      1  0.4468780000000  0.5269260000000  0.5935170000000 1.0
C      1  0.5857000000000  0.4402980000000  0.5371620000000 1.0
C      1  0.4262780000000  0.5469820000000  0.4911140000000 1.0
C      1  0.5132420000000  0.5650040000000  0.4455340000000 1.0
C      1  0.4705280000000  0.3963560000000  0.4609140000000 1.0
C      1  0.5167370000000  0.5316670000000  0.6096170000000 1.0
C      1  0.4648560000000  0.4183450000000  0.5346050000000 1.0
C      1  0.4267880000000  0.4805290000000  0.5426910000000 1.0
C      1  0.5475860000000  0.4520540000000  0.4564920000000 1.0
C      1  0.6716600000000  0.4481160000000  0.4613770000000 1.0
C      1  0.3631690000000  0.5191450000000  0.4140270000000 1.0
C      1  0.4712350000000  0.4180060000000  0.5068130000000 1.0
C      1  0.4782060000000  0.4810780000000  0.4611150000000 1.0
C      1  0.4903310000000  0.4481870000000  0.5627310000000 1.0
C      1  0.5232610000000  0.4675070000000  0.4489240000000 1.0
C      1  0.4028420000000  0.4870290000000  0.4641660000000 1.0
C      1  0.5047270000000  0.5091590000000  0.5593900000000 1.0
C      1  0.4394780000000  0.4572250000000  0.5518390000000 1.0
C      1  0.6085100000000  0.5117350000000  0.5135280000000 1.0
C      1  0.4548120000000  0.6037120000000  0.5336940000000 1.0
C      1  0.4327980000000  0.5394320000000  0.4642840000000 1.0
C      1  0.4919860000000  0.5562290000000  0.5160500000000 1.0
C      1  0.3896920000000  0.5585380000000  0.4527610000000 1.0
C      1  0.4764120000000  0.5773240000000  0.5674880000000 1.0
C      1  0.5402000000000  0.5221640000000  0.5249390000000 1.0
C      1  0.5549100000000  0.5765270000000  0.4878430000000 1.0
C      1  0.5557840000000  0.5122840000000  0.5797360000000 1.0
C      1  0.4835290000000  0.4799230000000  0.5127980000000 1.0
C      1  0.5654150000000  0.5148250000000  0.5327340000000 1.0
C      1  0.4092400000000  0.5021320000000  0.4142820000000 1.0
C      1  0.5812050000000  0.3919150000000  0.4523080000000 1.0
C      1  0.4595890000000  0.4893260000000  0.3977300000000 1.0
C      1  0.5774720000000  0.4157540000000  0.4649080000000 1.0
C      1  0.5140770000000  0.4878110000000  0.5752960000000 1.0
C      1  0.4539940000000  0.4083160000000  0.5831600000000 1.0
C      1  0.5335230000000  0.4542510000000  0.5075990000000 1.0
C      1  0.3979100000000  0.4840290000000  0.5417220000000 1.0
C      1  0.5422090000000  0.4859720000000  0.5793580000000 1.0
C      1  0.4952590000000  0.5202370000000  0.4081370000000 1.0
C      1  0.4875380000000  0.4368240000000  0.4670820000000 1.0
C      1  0.5599890000000  0.5484050000000  0.4874560000000 1.0
C      1  0.5930940000000  0.6135230000000  0.5405200000000 1.0
C      1  0.4764250000000  0.5128670000000  0.5604680000000 1.0
C      1  0.4362790000000  0.5076110000000  0.5390550000000 1.0
C      1  0.4509620000000  0.5563860000000  0.5320600000000 1.0
C      1  0.5286220000000  0.5618620000000  0.5770440000000 1.0
C      1  0.4422910000000  0.4355670000000  0.4701120000000 1.0
C      1  0.4434640000000  0.5135710000000  0.4614270000000 1.0
C      1  0.5059160000000  0.4637550000000  0.5003300000000 1.0
C      1  0.5074090000000  0.4785360000000  0.4739000000000 1.0
C      1  0.5741010000000  0.5132310000000  0.4362160000000 1.0
C      1  0.4320420000000  0.5416540000000  0.5719190000000 1.0
C      1  0.4925670000000  0.5475480000000  0.6051510000000 1.0
C      1  0.5395410000000  0.5279510000000  0.4968790000000 1.0
C      1  0.3726710000000  0.4569280000000  0.4964200000000 1.0
C      1  0.5110600000000  0.5826420000000  0.4683810000000 1.0
C      1  0.6482060000000  0.4538700000000  0.4711730000000 1.0
C      1  0.4370680000000  0.4782790000000  0.4953180000000 1.0
C      1  0.4607490000000  0.5930150000000  0.4375410000000 1.0
C      1  0.4853790000000  0.5239080000000  0.4361130000000 1.0
C      1  0.5061990000000  0.4094240000000  0.4034870000000 1.0
C      1  0.3654230000000  0.4812060000000  0.5053580000000 1.0
C      1  0.5558140000000  0.4617540000000  0.5704090000000 1.0
C      1  0.6113080000000  0.5343910000000  0.4968780000000 1.0
C      1  0.5755790000000  0.5926760000000  0.4991740000000 1.0
C      1  0.4651120000000  0.5417900000000  0.6103050000000 1.0
C      1  0.5062680000000  0.5498950000000  0.5368730000000 1.0
C      1  0.4620530000000  0.5206990000000  0.5343580000000 1.0
C      1  0.4690100000000  0.4778730000000  0.5940960000000 1.0
C      1  0.5189830000000  0.5260310000000  0.5421600000000 1.0
C      1  0.4645380000000  0.4543930000000  0.4614480000000 1.0
C      1  0.5777520000000  0.5016420000000  0.4632750000000 1.0
C      1  0.6116670000000  0.6254910000000  0.5543390000000 1.0
C      1  0.5713560000000  0.4897960000000  0.4897570000000 1.0
C      1  0.5812370000000  0.4614100000000  0.5560070000000 1.0
C      1  0.5384720000000  0.5357030000000  0.5895560000000 1.0
C      1  0.4785080000000  0.5843520000000  0.4184530000000 1.0
C      1  0.4579140000000  0.4688050000000  0.5086540000000 1.0
C      1  0.4918850000000  0.4360320000000  0.4955110000000 1.0
C      1  0.4460090000000  0.5820200000000  0.5166860000000 1.0
C      1  0.5738840000000  0.4435110000000  0.4187790000000 1.0
C      1  0.4552400000000  0.4554800000000  0.6060340000000 1.0
C      1  0.4931690000000  0.4695850000000  0.5810590000000 1.0
C      1  0.4013910000000  0.5558640000000  0.4980960000000 1.0
C      1  0.3907120000000  0.4414080000000  0.4841260000000 1.0
C      1  0.5320400000000  0.4940580000000  0.4370220000000 1.0
C      1  0.4659840000000  0.4448380000000  0.5473520000000 1.0
C      1  0.4807260000000  0.5581160000000  0.4925280000000 1.0
C      1  0.4688730000000  0.5064800000000  0.4515320000000 1.0
C      1  0.5653810000000  0.5375760000000  0.4223720000000 1.0
C      1  0.5731860000000  0.6006130000000  0.5262160000000 1.0
C      1  0.5256570000000  0.5093330000000  0.4801320000000 1.0
C      1  0.5602720000000  0.4649050000000  0.5007470000000 1.0
C      1  0.4802300000000  0.5080440000000  0.5147310000000 1.0
C      1  0.5568780000000  0.4517440000000  0.3988550000000 1.0
C      1  0.5011930000000  0.4251700000000  0.4252060000000 1.0
C      1  0.5804310000000  0.5062620000000  0.5109660000000 1.0
C      1  0.4156030000000  0.5525330000000  0.4453600000000 1.0
C      1  0.6156810000000  0.4886110000000  0.5296570000000 1.0
C      1  0.4422890000000  0.5904880000000  0.4888940000000 1.0
C      1  0.5073570000000  0.4537890000000  0.4258700000000 1.0
END
