TITL C-627111-6168-1145 420.700236280199 125000 -766.259297599232 0 0 127 (C1) n - 1
REM
REM in /home/nfs/bkarasulu/CARBON/AIRSS/Generating-Clusters/LCBOP/Only-C1/SD-CG/FIRE-CG
REM
REM
REM
REM
REM
REM ./C.cell (11c1c37f851c82e70ff6c80c92926a4b)
REM AIRSS Version 0.9.1 bugfix July 2018 build 013d7b7c2542+ Fri, 06 Jul 2018 19:26:36 +0100
REM compiler GCC version 9.2.1 20190827 (Red Hat 9.2.1-1)
REM options -cpp -mtune=generic -march=x86-64 -g -O0 -fpre-include=/usr/include/finclude/math-vector-fortran.h
REM seed -649132854 1346209828 -405996545 -1096470710 -288564688 -1378546403 -1389934181 1449195499 -907611860 2074660485 756246988 -1205354322 1129167149 2040722719 2013881534 -1135351533 3053277 -1077338931 353043076 1168131273 1103735060 -49552265 -315453930 -2036514475 -1357082321 -1738818552 279801757 -228197878 -801285914 -1934766829 -1331965650 1139043965 -1979796666
REM
CELL 1.54180   50.00000   50.00000   50.00000   90.00000   90.00000   90.00000
LATT -1
SFAC C  
C      1  0.5249130000000  0.5062510000000  0.4016970000000 1.0
C      1  0.5160730000000  0.4682630000000  0.5934820000000 1.0
C      1  0.5586990000000  0.4641130000000  0.5055930000000 1.0
C      1  0.4624230000000  0.5903740000000  0.4574280000000 1.0
C      1  0.5854580000000  0.5079210000000  0.5588660000000 1.0
C      1  0.5003980000000  0.5034090000000  0.5070260000000 1.0
C      1  0.4935640000000  0.4904150000000  0.5339190000000 1.0
C      1  0.4458090000000  0.3512020000000  0.5081180000000 1.0
C      1  0.5005780000000  0.4894280000000  0.4401390000000 1.0
C      1  0.4483950000000  0.4839850000000  0.4482400000000 1.0
C      1  0.5688000000000  0.5144130000000  0.4371040000000 1.0
C      1  0.4586910000000  0.4414750000000  0.4212470000000 1.0
C      1  0.5389410000000  0.4876330000000  0.5979870000000 1.0
C      1  0.5914590000000  0.4953150000000  0.5346650000000 1.0
C      1  0.4869540000000  0.5794270000000  0.5927310000000 1.0
C      1  0.5222850000000  0.4909320000000  0.4923430000000 1.0
C      1  0.4507300000000  0.5421970000000  0.5963520000000 1.0
C      1  0.5177720000000  0.5549310000000  0.4556720000000 1.0
C      1  0.5648470000000  0.4560060000000  0.5485070000000 1.0
C      1  0.5226800000000  0.4085820000000  0.5360740000000 1.0
C      1  0.5497310000000  0.4307590000000  0.4515580000000 1.0
C      1  0.4503850000000  0.4522470000000  0.4480410000000 1.0
C      1  0.4919270000000  0.5780440000000  0.5441130000000 1.0
C      1  0.5103680000000  0.5363410000000  0.5595310000000 1.0
C      1  0.5307530000000  0.4453350000000  0.4363150000000 1.0
C      1  0.4524520000000  0.4557780000000  0.5972570000000 1.0
C      1  0.5709090000000  0.4445460000000  0.4646250000000 1.0
C      1  0.4729710000000  0.5941120000000  0.4839840000000 1.0
C      1  0.5127210000000  0.5312900000000  0.6147380000000 1.0
C      1  0.4814510000000  0.4767230000000  0.3972980000000 1.0
C      1  0.4843160000000  0.5322810000000  0.5534020000000 1.0
C      1  0.5881300000000  0.4904650000000  0.4732640000000 1.0
C      1  0.4497770000000  0.5382800000000  0.4817270000000 1.0
C      1  0.4930130000000  0.5770250000000  0.4959350000000 1.0
C      1  0.5038920000000  0.4493960000000  0.5208420000000 1.0
C      1  0.5371380000000  0.5832680000000  0.5202880000000 1.0
C      1  0.5397670000000  0.5121860000000  0.5421110000000 1.0
C      1  0.5273560000000  0.5571960000000  0.5716930000000 1.0
C      1  0.4565220000000  0.4041900000000  0.5032550000000 1.0
C      1  0.5504250000000  0.5679710000000  0.5446710000000 1.0
C      1  0.3959000000000  0.5290270000000  0.4511880000000 1.0
C      1  0.5241560000000  0.4884450000000  0.5448080000000 1.0
C      1  0.5742390000000  0.4860190000000  0.4308210000000 1.0
C      1  0.5074220000000  0.5846000000000  0.5201550000000 1.0
C      1  0.5392820000000  0.4054240000000  0.5125030000000 1.0
C      1  0.4941190000000  0.5139120000000  0.4563680000000 1.0
C      1  0.5344500000000  0.5398090000000  0.5971760000000 1.0
C      1  0.5276510000000  0.4007500000000  0.4867030000000 1.0
C      1  0.5199940000000  0.5270240000000  0.4604410000000 1.0
C      1  0.4408110000000  0.5184550000000  0.5844670000000 1.0
C      1  0.4451810000000  0.5258080000000  0.5079200000000 1.0
C      1  0.5352530000000  0.4347500000000  0.3837350000000 1.0
C      1  0.4674430000000  0.4779390000000  0.5921550000000 1.0
C      1  0.4083990000000  0.5059420000000  0.4620030000000 1.0
C      1  0.4521760000000  0.5026400000000  0.4249980000000 1.0
C      1  0.5686720000000  0.5647550000000  0.4720830000000 1.0
C      1  0.4247910000000  0.5650010000000  0.4290320000000 1.0
C      1  0.4476070000000  0.5483520000000  0.5279890000000 1.0
C      1  0.4531240000000  0.4713770000000  0.5120390000000 1.0
C      1  0.4803460000000  0.4659030000000  0.5230470000000 1.0
C      1  0.5812090000000  0.4695610000000  0.4543330000000 1.0
C      1  0.4749760000000  0.4137340000000  0.4835410000000 1.0
C      1  0.4432280000000  0.4237550000000  0.5184190000000 1.0
C      1  0.5329180000000  0.5758580000000  0.4445820000000 1.0
C      1  0.5694730000000  0.4405790000000  0.4931500000000 1.0
C      1  0.5695380000000  0.5143510000000  0.4685850000000 1.0
C      1  0.4692040000000  0.4363810000000  0.4672500000000 1.0
C      1  0.5504580000000  0.5704230000000  0.4960820000000 1.0
C      1  0.4350920000000  0.4489450000000  0.5089600000000 1.0
C      1  0.4590600000000  0.4985350000000  0.5744700000000 1.0
C      1  0.4356930000000  0.5958630000000  0.5186160000000 1.0
C      1  0.5771450000000  0.5542620000000  0.5332100000000 1.0
C      1  0.5390160000000  0.4657990000000  0.5551910000000 1.0
C      1  0.3879080000000  0.5105890000000  0.5775160000000 1.0
C      1  0.4302160000000  0.5708610000000  0.5274030000000 1.0
C      1  0.5299790000000  0.4661510000000  0.5035410000000 1.0
C      1  0.5708050000000  0.4289270000000  0.5408530000000 1.0
C      1  0.4820280000000  0.5453100000000  0.4141840000000 1.0
C      1  0.4924540000000  0.5484310000000  0.4921730000000 1.0
C      1  0.4929020000000  0.4824620000000  0.6037180000000 1.0
C      1  0.5138140000000  0.4651650000000  0.4479330000000 1.0
C      1  0.4394240000000  0.3254820000000  0.5086750000000 1.0
C      1  0.4661270000000  0.5638660000000  0.5999820000000 1.0
C      1  0.4983050000000  0.5080520000000  0.6161650000000 1.0
C      1  0.5747360000000  0.4735400000000  0.5277070000000 1.0
C      1  0.5382980000000  0.5093390000000  0.4748300000000 1.0
C      1  0.5028290000000  0.4907510000000  0.4107570000000 1.0
C      1  0.5049700000000  0.5308370000000  0.5104130000000 1.0
C      1  0.5589210000000  0.5632150000000  0.4437670000000 1.0
C      1  0.4761990000000  0.5055880000000  0.5528640000000 1.0
C      1  0.5261040000000  0.6009440000000  0.4373280000000 1.0
C      1  0.6089680000000  0.4964960000000  0.4911560000000 1.0
C      1  0.4053210000000  0.5612020000000  0.4836290000000 1.0
C      1  0.5082650000000  0.5492030000000  0.4081840000000 1.0
C      1  0.4175010000000  0.4476630000000  0.4865850000000 1.0
C      1  0.6025640000000  0.5114280000000  0.5144830000000 1.0
C      1  0.4133170000000  0.5145010000000  0.5817780000000 1.0
C      1  0.4232030000000  0.4449420000000  0.4601340000000 1.0
C      1  0.4322210000000  0.5591580000000  0.4746530000000 1.0
C      1  0.4763910000000  0.5331810000000  0.4722820000000 1.0
C      1  0.5321950000000  0.5331640000000  0.4092900000000 1.0
C      1  0.4621990000000  0.5295270000000  0.4239220000000 1.0
C      1  0.5479700000000  0.5142670000000  0.5896990000000 1.0
C      1  0.5564290000000  0.5382430000000  0.4263380000000 1.0
C      1  0.5589550000000  0.5149980000000  0.5636400000000 1.0
C      1  0.4432390000000  0.4966940000000  0.4996490000000 1.0
C      1  0.4514550000000  0.3770390000000  0.5066660000000 1.0
C      1  0.5054450000000  0.5792920000000  0.5709620000000 1.0
C      1  0.5644820000000  0.4197310000000  0.5138300000000 1.0
C      1  0.4546580000000  0.6060030000000  0.5023120000000 1.0
C      1  0.4073590000000  0.5436970000000  0.4291570000000 1.0
C      1  0.4399030000000  0.5741120000000  0.4514370000000 1.0
C      1  0.5464660000000  0.5431700000000  0.5044720000000 1.0
C      1  0.5424310000000  0.4061510000000  0.4632580000000 1.0
C      1  0.5305960000000  0.4404550000000  0.4087440000000 1.0
C      1  0.4330600000000  0.4945080000000  0.4709380000000 1.0
C      1  0.5191700000000  0.4500350000000  0.5690870000000 1.0
C      1  0.4764300000000  0.4491920000000  0.4021640000000 1.0
C      1  0.4723390000000  0.5548640000000  0.5416720000000 1.0
C      1  0.4328550000000  0.3002540000000  0.5089180000000 1.0
C      1  0.5905830000000  0.5378370000000  0.5101600000000 1.0
C      1  0.3860030000000  0.5464620000000  0.4714750000000 1.0
C      1  0.4999160000000  0.4011710000000  0.4833690000000 1.0
C      1  0.4567340000000  0.4906690000000  0.3995130000000 1.0
C      1  0.5104130000000  0.4330340000000  0.5451040000000 1.0
C      1  0.5309840000000  0.5302180000000  0.5226050000000 1.0
C      1  0.5824590000000  0.5402440000000  0.4810650000000 1.0
END
