TITL C-627113-6568-1408 2617.57405865102 125000 -1178.94869539142 0 0 193 (C1) n - 1
REM
REM in /home/nfs/bkarasulu/CARBON/AIRSS/Generating-Clusters/LCBOP/Only-C1/SD-CG/FIRE-CG
REM
REM
REM
REM
REM
REM ./C.cell (11c1c37f851c82e70ff6c80c92926a4b)
REM AIRSS Version 0.9.1 bugfix July 2018 build 013d7b7c2542+ Fri, 06 Jul 2018 19:26:36 +0100
REM compiler GCC version 9.2.1 20190827 (Red Hat 9.2.1-1)
REM options -cpp -mtune=generic -march=x86-64 -g -O0 -fpre-include=/usr/include/finclude/math-vector-fortran.h
REM seed 632559186 1246170476 1648380142 1348702376 -2009300471 -846853258 434573433 1342040919 -1044497436 -1432208359 1978997193 -1371100246 -623012870 -1462808698 1532940976 1858315662 684603325 -442245247 1016267365 -1798654773 363370769 656461333 -1202900648 1697767662 -818793728 825648554 -1990020748 -1351629744 -1957183587 -1352144408 238762535 1186809397 -123066302
REM
CELL 1.54180   50.00000   50.00000   50.00000   90.00000   90.00000   90.00000
LATT -1
SFAC C  
C      1  0.3879320000000  0.5230500000000  0.4978220000000 1.0
C      1  0.4466260000000  0.5653690000000  0.4899310000000 1.0
C      1  0.5191580000000  0.5642470000000  0.4474600000000 1.0
C      1  0.5989440000000  0.4897290000000  0.3544810000000 1.0
C      1  0.4895900000000  0.4368590000000  0.4960430000000 1.0
C      1  0.4360760000000  0.4449940000000  0.4243050000000 1.0
C      1  0.5922030000000  0.5942570000000  0.4483810000000 1.0
C      1  0.4755860000000  0.5344320000000  0.5564210000000 1.0
C      1  0.4445700000000  0.5243540000000  0.5922500000000 1.0
C      1  0.4774800000000  0.4747140000000  0.5747060000000 1.0
C      1  0.4557060000000  0.4285970000000  0.4117310000000 1.0
C      1  0.5033450000000  0.3894950000000  0.4811690000000 1.0
C      1  0.4645490000000  0.5419420000000  0.5815650000000 1.0
C      1  0.5329080000000  0.3727830000000  0.5180390000000 1.0
C      1  0.5601020000000  0.4072490000000  0.5766340000000 1.0
C      1  0.6168530000000  0.4851600000000  0.3361070000000 1.0
C      1  0.4302500000000  0.4916160000000  0.4398400000000 1.0
C      1  0.5694020000000  0.4718300000000  0.3888170000000 1.0
C      1  0.4796010000000  0.3852940000000  0.4650070000000 1.0
C      1  0.4059640000000  0.4402210000000  0.5466920000000 1.0
C      1  0.3827550000000  0.7253630000000  0.6152490000000 1.0
C      1  0.5087770000000  0.4065090000000  0.3997200000000 1.0
C      1  0.4970670000000  0.3833300000000  0.5720880000000 1.0
C      1  0.5072030000000  0.4743130000000  0.4338800000000 1.0
C      1  0.5721820000000  0.4822400000000  0.4541200000000 1.0
C      1  0.5457290000000  0.5707760000000  0.4338270000000 1.0
C      1  0.4503860000000  0.4838290000000  0.3963680000000 1.0
C      1  0.5363020000000  0.5359540000000  0.5145040000000 1.0
C      1  0.4220710000000  0.4360190000000  0.4475740000000 1.0
C      1  0.4195190000000  0.5582250000000  0.4880200000000 1.0
C      1  0.5049430000000  0.3895570000000  0.4204470000000 1.0
C      1  0.4513600000000  0.6652450000000  0.5622500000000 1.0
C      1  0.5043220000000  0.6836500000000  0.5453080000000 1.0
C      1  0.4113070000000  0.4104210000000  0.4554600000000 1.0
C      1  0.4631320000000  0.4644580000000  0.3793150000000 1.0
C      1  0.5642440000000  0.4753230000000  0.4803260000000 1.0
C      1  0.5379750000000  0.4718310000000  0.5575080000000 1.0
C      1  0.5103530000000  0.5859040000000  0.4662420000000 1.0
C      1  0.4732490000000  0.4405770000000  0.3920990000000 1.0
C      1  0.4648940000000  0.6204580000000  0.5465540000000 1.0
C      1  0.4817310000000  0.3896540000000  0.4365330000000 1.0
C      1  0.5230280000000  0.5359600000000  0.6234200000000 1.0
C      1  0.4940280000000  0.4749080000000  0.6204590000000 1.0
C      1  0.6079510000000  0.5734210000000  0.4598360000000 1.0
C      1  0.5606500000000  0.4080130000000  0.5475610000000 1.0
C      1  0.6131490000000  0.4445520000000  0.5321460000000 1.0
C      1  0.4896290000000  0.5716550000000  0.4026980000000 1.0
C      1  0.4346170000000  0.5123240000000  0.4825790000000 1.0
C      1  0.4994240000000  0.5626990000000  0.4251940000000 1.0
C      1  0.4115970000000  0.5949000000000  0.4126230000000 1.0
C      1  0.6688790000000  0.4924740000000  0.4736770000000 1.0
C      1  0.5458780000000  0.4554990000000  0.4874660000000 1.0
C      1  0.6078350000000  0.4504020000000  0.4550260000000 1.0
C      1  0.5670040000000  0.4345640000000  0.5381060000000 1.0
C      1  0.3825670000000  0.4817490000000  0.4603610000000 1.0
C      1  0.4526350000000  0.3890580000000  0.4760000000000 1.0
C      1  0.5155480000000  0.5716580000000  0.5809790000000 1.0
C      1  0.4249200000000  0.4215010000000  0.5901820000000 1.0
C      1  0.4251440000000  0.4533550000000  0.4697330000000 1.0
C      1  0.4239200000000  0.4804010000000  0.5722620000000 1.0
C      1  0.4329730000000  0.4094350000000  0.5205880000000 1.0
C      1  0.5803980000000  0.4865930000000  0.4994790000000 1.0
C      1  0.6430100000000  0.4847340000000  0.4777080000000 1.0
C      1  0.5510890000000  0.3821700000000  0.4765820000000 1.0
C      1  0.4923320000000  0.4406020000000  0.5270650000000 1.0
C      1  0.4227970000000  0.5816770000000  0.5599590000000 1.0
C      1  0.4108870000000  0.5309220000000  0.5449590000000 1.0
C      1  0.5450210000000  0.4602740000000  0.3808320000000 1.0
C      1  0.5156980000000  0.6367450000000  0.5385410000000 1.0
C      1  0.4431370000000  0.4550220000000  0.4907320000000 1.0
C      1  0.4028270000000  0.4689880000000  0.5523260000000 1.0
C      1  0.4423080000000  0.4739480000000  0.5116960000000 1.0
C      1  0.6000880000000  0.4293530000000  0.4722490000000 1.0
C      1  0.4925220000000  0.4718590000000  0.5282750000000 1.0
C      1  0.5376290000000  0.4276390000000  0.4797400000000 1.0
C      1  0.4214890000000  0.5987120000000  0.5371280000000 1.0
C      1  0.4887340000000  0.4077410000000  0.5653280000000 1.0
C      1  0.3902080000000  0.4118690000000  0.4745740000000 1.0
C      1  0.4974140000000  0.5850120000000  0.4911280000000 1.0
C      1  0.4441420000000  0.6135160000000  0.5279190000000 1.0
C      1  0.4648280000000  0.4681000000000  0.3522770000000 1.0
C      1  0.4266920000000  0.5041110000000  0.5881510000000 1.0
C      1  0.6159400000000  0.5754800000000  0.4869340000000 1.0
C      1  0.6028490000000  0.5469520000000  0.4505270000000 1.0
C      1  0.4492980000000  0.4075420000000  0.4975450000000 1.0
C      1  0.4972230000000  0.6573090000000  0.5451290000000 1.0
C      1  0.4011150000000  0.5925070000000  0.5183950000000 1.0
C      1  0.4371620000000  0.5013900000000  0.5085560000000 1.0
C      1  0.5514540000000  0.3930380000000  0.5252590000000 1.0
C      1  0.4022950000000  0.4917530000000  0.4451560000000 1.0
C      1  0.5112250000000  0.5946370000000  0.5134130000000 1.0
C      1  0.5489000000000  0.5136120000000  0.4281880000000 1.0
C      1  0.5584140000000  0.4316180000000  0.5925960000000 1.0
C      1  0.5252160000000  0.4651750000000  0.5830520000000 1.0
C      1  0.5853680000000  0.4216960000000  0.4951340000000 1.0
C      1  0.4310080000000  0.5829340000000  0.4281110000000 1.0
C      1  0.6273260000000  0.4963310000000  0.4980160000000 1.0
C      1  0.4917180000000  0.4977600000000  0.4322260000000 1.0
C      1  0.5013150000000  0.5307870000000  0.5469280000000 1.0
C      1  0.5894720000000  0.4346820000000  0.5207620000000 1.0
C      1  0.5217900000000  0.4520460000000  0.4364530000000 1.0
C      1  0.4129390000000  0.5304860000000  0.4830310000000 1.0
C      1  0.4954330000000  0.4844140000000  0.5031870000000 1.0
C      1  0.4900110000000  0.5831170000000  0.5747170000000 1.0
C      1  0.4333910000000  0.5207640000000  0.5298100000000 1.0
C      1  0.4486140000000  0.5048530000000  0.4586150000000 1.0
C      1  0.5062860000000  0.5205490000000  0.6374800000000 1.0
C      1  0.6029880000000  0.6182880000000  0.4412900000000 1.0
C      1  0.5518010000000  0.5595970000000  0.4084740000000 1.0
C      1  0.4487110000000  0.4654440000000  0.5373940000000 1.0
C      1  0.5211330000000  0.4484500000000  0.3798410000000 1.0
C      1  0.4705980000000  0.6483040000000  0.5513820000000 1.0
C      1  0.5880250000000  0.4638460000000  0.4392530000000 1.0
C      1  0.5591180000000  0.4075140000000  0.4912550000000 1.0
C      1  0.5817480000000  0.5306740000000  0.4598440000000 1.0
C      1  0.5005540000000  0.4314910000000  0.3889560000000 1.0
C      1  0.5546920000000  0.5545610000000  0.5571660000000 1.0
C      1  0.5259380000000  0.3732920000000  0.4893910000000 1.0
C      1  0.4334080000000  0.6805160000000  0.5743290000000 1.0
C      1  0.3773400000000  0.5491970000000  0.5050140000000 1.0
C      1  0.4868740000000  0.6026190000000  0.5537940000000 1.0
C      1  0.5711040000000  0.5204660000000  0.3794750000000 1.0
C      1  0.5076980000000  0.3617070000000  0.5605210000000 1.0
C      1  0.5689810000000  0.5091560000000  0.4460810000000 1.0
C      1  0.5620640000000  0.3830920000000  0.5895460000000 1.0
C      1  0.4456820000000  0.5344470000000  0.4060870000000 1.0
C      1  0.3882070000000  0.4889950000000  0.5360180000000 1.0
C      1  0.5619570000000  0.5392870000000  0.5320060000000 1.0
C      1  0.4965340000000  0.5226100000000  0.4733990000000 1.0
C      1  0.4428710000000  0.6124610000000  0.4733320000000 1.0
C      1  0.6440690000000  0.4509720000000  0.5695420000000 1.0
C      1  0.4982760000000  0.5118780000000  0.5001010000000 1.0
C      1  0.4780240000000  0.5093770000000  0.4549730000000 1.0
C      1  0.4455650000000  0.6184080000000  0.4996550000000 1.0
C      1  0.6237580000000  0.4604330000000  0.5530330000000 1.0
C      1  0.5074390000000  0.5167780000000  0.3893870000000 1.0
C      1  0.4161020000000  0.6956160000000  0.5875460000000 1.0
C      1  0.4981230000000  0.4683130000000  0.5935100000000 1.0
C      1  0.5092380000000  0.6092630000000  0.5369610000000 1.0
C      1  0.4111540000000  0.5563150000000  0.5566470000000 1.0
C      1  0.4395730000000  0.5569460000000  0.4198580000000 1.0
C      1  0.5485330000000  0.4579050000000  0.5991880000000 1.0
C      1  0.3759040000000  0.4785920000000  0.4863110000000 1.0
C      1  0.4609290000000  0.4036070000000  0.4233000000000 1.0
C      1  0.6030010000000  0.4970800000000  0.5116450000000 1.0
C      1  0.5112680000000  0.5262270000000  0.5212580000000 1.0
C      1  0.4402510000000  0.5978950000000  0.4506340000000 1.0
C      1  0.6310460000000  0.4649100000000  0.4616740000000 1.0
C      1  0.6127680000000  0.4863180000000  0.5565470000000 1.0
C      1  0.5346230000000  0.4321110000000  0.4492960000000 1.0
C      1  0.4958750000000  0.4959300000000  0.6368730000000 1.0
C      1  0.3968630000000  0.5704690000000  0.5017840000000 1.0
C      1  0.3889390000000  0.5141760000000  0.5494750000000 1.0
C      1  0.6628810000000  0.4419460000000  0.5851570000000 1.0
C      1  0.5382480000000  0.5538510000000  0.5805550000000 1.0
C      1  0.5810420000000  0.5483780000000  0.5093530000000 1.0
C      1  0.3889090000000  0.4187970000000  0.5006430000000 1.0
C      1  0.5194310000000  0.5398290000000  0.4666820000000 1.0
C      1  0.4876690000000  0.5101810000000  0.4069010000000 1.0
C      1  0.5093230000000  0.4173370000000  0.4863180000000 1.0
C      1  0.4467980000000  0.4168010000000  0.5450690000000 1.0
C      1  0.4568460000000  0.5339620000000  0.5361110000000 1.0
C      1  0.4377720000000  0.4732960000000  0.4195220000000 1.0
C      1  0.4950700000000  0.4639690000000  0.4839500000000 1.0
C      1  0.4748790000000  0.4227100000000  0.5456340000000 1.0
C      1  0.5981160000000  0.5027140000000  0.5390270000000 1.0
C      1  0.5717050000000  0.5128280000000  0.5435820000000 1.0
C      1  0.5434530000000  0.4499320000000  0.5405670000000 1.0
C      1  0.5205830000000  0.3571500000000  0.5375320000000 1.0
C      1  0.5648920000000  0.5883550000000  0.4445970000000 1.0
C      1  0.5622030000000  0.5432580000000  0.3901040000000 1.0
C      1  0.5207380000000  0.4354120000000  0.5333390000000 1.0
C      1  0.5572480000000  0.5098090000000  0.6031890000000 1.0
C      1  0.4414380000000  0.5842830000000  0.5809430000000 1.0
C      1  0.3992150000000  0.7106310000000  0.6014020000000 1.0
C      1  0.4504020000000  0.4701470000000  0.5655070000000 1.0
C      1  0.4265450000000  0.4264650000000  0.5635290000000 1.0
C      1  0.5605740000000  0.4828970000000  0.6074550000000 1.0
C      1  0.5410550000000  0.5391180000000  0.4860070000000 1.0
C      1  0.4601610000000  0.5108050000000  0.3993180000000 1.0
C      1  0.4065020000000  0.4231940000000  0.5221050000000 1.0
C      1  0.5830390000000  0.4623840000000  0.4116880000000 1.0
C      1  0.3826640000000  0.4957620000000  0.5076050000000 1.0
C      1  0.5797440000000  0.4942150000000  0.3743110000000 1.0
C      1  0.6038490000000  0.5646370000000  0.5085420000000 1.0
C      1  0.5692910000000  0.5403600000000  0.4835190000000 1.0
C      1  0.4607670000000  0.4327750000000  0.4921240000000 1.0
C      1  0.5413180000000  0.5338820000000  0.6018120000000 1.0
C      1  0.4659090000000  0.5705540000000  0.5846800000000 1.0
C      1  0.4296580000000  0.3887410000000  0.4589540000000 1.0
C      1  0.5515900000000  0.4956780000000  0.5531100000000 1.0
C      1  0.4721770000000  0.5725960000000  0.4930920000000 1.0
C      1  0.4902190000000  0.4854530000000  0.5518640000000 1.0
END
