TITL C-627111-6168-1469 -0.0127089798937724 125000 -527.109296327034 0 0 86 (C1) n - 1
REM
REM in /home/nfs/bkarasulu/CARBON/AIRSS/Generating-Clusters/LCBOP/Only-C1/SD-CG/FIRE-CG
REM
REM
REM
REM
REM
REM ./C.cell (11c1c37f851c82e70ff6c80c92926a4b)
REM AIRSS Version 0.9.1 bugfix July 2018 build 013d7b7c2542+ Fri, 06 Jul 2018 19:26:36 +0100
REM compiler GCC version 9.2.1 20190827 (Red Hat 9.2.1-1)
REM options -cpp -mtune=generic -march=x86-64 -g -O0 -fpre-include=/usr/include/finclude/math-vector-fortran.h
REM seed -1415764674 -1826097111 2085907423 -321500910 129057629 1299519059 380523773 -747037660 1813431200 -1708174631 -1394023376 -1303259109 1797494056 -157844438 -713902532 1613686896 -2144956340 -1711451859 -2125730785 927954850 110256160 -328711584 1430688414 1638493734 862992518 -363033904 2089819027 907394619 2021331384 586487363 -1654460620 1874241537 -2085236237
REM
CELL 1.54180   50.00000   50.00000   50.00000   90.00000   90.00000   90.00000
LATT -1
SFAC C  
C      1  0.5556080000000  0.4956540000000  0.6042590000000 1.0
C      1  0.5740380000000  0.5371890000000  0.5283490000000 1.0
C      1  0.4445900000000  0.4957620000000  0.4854800000000 1.0
C      1  0.5547130000000  0.5436810000000  0.4687650000000 1.0
C      1  0.4595710000000  0.5312770000000  0.5542680000000 1.0
C      1  0.5038410000000  0.5207540000000  0.5356120000000 1.0
C      1  0.4594290000000  0.4983460000000  0.3961500000000 1.0
C      1  0.4972670000000  0.5808670000000  0.5542310000000 1.0
C      1  0.5704470000000  0.5761370000000  0.4390220000000 1.0
C      1  0.5081310000000  0.4145770000000  0.4978970000000 1.0
C      1  0.4554080000000  0.5212130000000  0.5297000000000 1.0
C      1  0.4206080000000  0.5521020000000  0.4902760000000 1.0
C      1  0.4699800000000  0.5667580000000  0.4914500000000 1.0
C      1  0.5119690000000  0.4315290000000  0.5205040000000 1.0
C      1  0.4455260000000  0.4650900000000  0.4282470000000 1.0
C      1  0.5053420000000  0.4235110000000  0.4454380000000 1.0
C      1  0.5373640000000  0.4433080000000  0.5282110000000 1.0
C      1  0.5326390000000  0.4290180000000  0.4410410000000 1.0
C      1  0.4307500000000  0.4268110000000  0.5422350000000 1.0
C      1  0.5194470000000  0.4705870000000  0.4895660000000 1.0
C      1  0.4758460000000  0.5409750000000  0.5753460000000 1.0
C      1  0.5767910000000  0.4401730000000  0.4586600000000 1.0
C      1  0.6382320000000  0.5756770000000  0.5000880000000 1.0
C      1  0.5505270000000  0.5105940000000  0.5584060000000 1.0
C      1  0.4422160000000  0.5029270000000  0.5127740000000 1.0
C      1  0.4416110000000  0.4529160000000  0.5443390000000 1.0
C      1  0.4935650000000  0.5234000000000  0.5884750000000 1.0
C      1  0.4815560000000  0.4604630000000  0.5709000000000 1.0
C      1  0.4484290000000  0.5372660000000  0.4283890000000 1.0
C      1  0.4808820000000  0.5311110000000  0.4644160000000 1.0
C      1  0.5341810000000  0.4896580000000  0.4480800000000 1.0
C      1  0.4255560000000  0.4798010000000  0.4419050000000 1.0
C      1  0.5012400000000  0.4126350000000  0.4717080000000 1.0
C      1  0.5606260000000  0.5378230000000  0.5541540000000 1.0
C      1  0.4526460000000  0.5221350000000  0.4066530000000 1.0
C      1  0.4859410000000  0.5034690000000  0.4613160000000 1.0
C      1  0.5781070000000  0.4913520000000  0.4253420000000 1.0
C      1  0.5572630000000  0.5187980000000  0.5120640000000 1.0
C      1  0.4431970000000  0.4157800000000  0.4979040000000 1.0
C      1  0.4564220000000  0.4369900000000  0.4886190000000 1.0
C      1  0.5491880000000  0.4447570000000  0.4576340000000 1.0
C      1  0.5420860000000  0.5331770000000  0.4915040000000 1.0
C      1  0.5005490000000  0.4739760000000  0.5107030000000 1.0
C      1  0.4031590000000  0.5368060000000  0.5042580000000 1.0
C      1  0.4706470000000  0.4541800000000  0.5456770000000 1.0
C      1  0.4926850000000  0.5490910000000  0.4837830000000 1.0
C      1  0.5128740000000  0.5454570000000  0.5267200000000 1.0
C      1  0.5560410000000  0.5040650000000  0.4371220000000 1.0
C      1  0.4454450000000  0.5575500000000  0.4778110000000 1.0
C      1  0.5105160000000  0.5009520000000  0.5868100000000 1.0
C      1  0.4687870000000  0.4846630000000  0.4750740000000 1.0
C      1  0.5196960000000  0.5653470000000  0.5458330000000 1.0
C      1  0.4614420000000  0.4716780000000  0.4045050000000 1.0
C      1  0.5635380000000  0.5713500000000  0.4655100000000 1.0
C      1  0.5369250000000  0.4686610000000  0.4672780000000 1.0
C      1  0.5166820000000  0.5452150000000  0.4986930000000 1.0
C      1  0.4066120000000  0.4761600000000  0.5691620000000 1.0
C      1  0.5388160000000  0.5024690000000  0.5829350000000 1.0
C      1  0.5514590000000  0.4963030000000  0.5321470000000 1.0
C      1  0.4857520000000  0.4375800000000  0.4299180000000 1.0
C      1  0.4836490000000  0.4524130000000  0.4046470000000 1.0
C      1  0.3927130000000  0.4781800000000  0.5911120000000 1.0
C      1  0.5579270000000  0.5315060000000  0.4420910000000 1.0
C      1  0.5440840000000  0.5602540000000  0.5592020000000 1.0
C      1  0.4822390000000  0.5685880000000  0.5748580000000 1.0
C      1  0.4313780000000  0.4100350000000  0.5212640000000 1.0
C      1  0.5074720000000  0.4972130000000  0.4445900000000 1.0
C      1  0.5670310000000  0.5527300000000  0.4244880000000 1.0
C      1  0.4978360000000  0.4977530000000  0.5243010000000 1.0
C      1  0.5972110000000  0.5500560000000  0.5206360000000 1.0
C      1  0.5968680000000  0.4726520000000  0.4291720000000 1.0
C      1  0.4238190000000  0.4926010000000  0.4659450000000 1.0
C      1  0.5713430000000  0.4892380000000  0.6240170000000 1.0
C      1  0.4220150000000  0.4743430000000  0.5458070000000 1.0
C      1  0.5492310000000  0.4678700000000  0.5306020000000 1.0
C      1  0.4179790000000  0.4939420000000  0.5254760000000 1.0
C      1  0.4977930000000  0.4760330000000  0.5850310000000 1.0
C      1  0.5972810000000  0.4509270000000  0.4449930000000 1.0
C      1  0.4904860000000  0.4508230000000  0.5248770000000 1.0
C      1  0.6181810000000  0.5628720000000  0.5107460000000 1.0
C      1  0.4725430000000  0.5872290000000  0.5102840000000 1.0
C      1  0.4833420000000  0.5943920000000  0.5337670000000 1.0
C      1  0.4632200000000  0.4485960000000  0.4442760000000 1.0
C      1  0.4659370000000  0.4562570000000  0.4709760000000 1.0
C      1  0.4554530000000  0.5420150000000  0.4549750000000 1.0
C      1  0.3985660000000  0.5139340000000  0.5185500000000 1.0
END
