TITL C-627108-131-668 -4.61700280105229e-07 125000 -301.733606094451 0 0 51 (C1) n - 1
REM
REM in /home/nfs/bkarasulu/CARBON/AIRSS/Generating-Clusters/LCBOP/Only-C1/SD-CG/FIRE-CG
REM
REM
REM
REM
REM
REM ./C.cell (11c1c37f851c82e70ff6c80c92926a4b)
REM AIRSS Version 0.9.1 bugfix July 2018 build 013d7b7c2542+ Fri, 06 Jul 2018 19:26:36 +0100
REM compiler GCC version 9.2.1 20190827 (Red Hat 9.2.1-1)
REM options -cpp -mtune=generic -march=x86-64 -g -O0 -fpre-include=/usr/include/finclude/math-vector-fortran.h
REM seed 1024765533 1332869324 892064607 -1168061947 -1707207010 -1216946262 1740992023 -1012362140 -1287597145 -1107733459 184999899 -605929326 970060718 -487575822 -714787045 -924221144 -1902021329 934075223 -1566870755 -520039953 528271787 120402985 -908846853 1469232995 -198386252 -522887160 523987630 657723744 1535053867 912064168 27721861 -1674831322 -634453110
REM
CELL 1.54180   50.00000   50.00000   50.00000   90.00000   90.00000   90.00000
LATT -1
SFAC C  
C      1  0.4693510000000  0.4741830000000  0.5602900000000 1.0
C      1  0.5289490000000  0.4404170000000  0.5190430000000 1.0
C      1  0.5166600000000  0.4953900000000  0.5030450000000 1.0
C      1  0.4968350000000  0.4221490000000  0.5851790000000 1.0
C      1  0.4873680000000  0.5654590000000  0.5183370000000 1.0
C      1  0.5589950000000  0.4774770000000  0.5404600000000 1.0
C      1  0.4733030000000  0.5571120000000  0.4460820000000 1.0
C      1  0.4707630000000  0.4513850000000  0.4745930000000 1.0
C      1  0.5471750000000  0.5502380000000  0.5255380000000 1.0
C      1  0.4816230000000  0.5375470000000  0.4299540000000 1.0
C      1  0.4845700000000  0.4426700000000  0.4973190000000 1.0
C      1  0.4970970000000  0.5426320000000  0.5314910000000 1.0
C      1  0.5235870000000  0.4590140000000  0.4710510000000 1.0
C      1  0.4761960000000  0.4486630000000  0.5492340000000 1.0
C      1  0.5299070000000  0.5169230000000  0.5583150000000 1.0
C      1  0.4566260000000  0.4944270000000  0.4601310000000 1.0
C      1  0.5518850000000  0.5000460000000  0.5528950000000 1.0
C      1  0.4951380000000  0.5148680000000  0.4255650000000 1.0
C      1  0.4542430000000  0.5113460000000  0.5288420000000 1.0
C      1  0.5324230000000  0.5118590000000  0.4882760000000 1.0
C      1  0.4377140000000  0.5065880000000  0.4809870000000 1.0
C      1  0.5172790000000  0.4266090000000  0.5409390000000 1.0
C      1  0.5133390000000  0.4449480000000  0.4950270000000 1.0
C      1  0.4816360000000  0.5186010000000  0.5279160000000 1.0
C      1  0.4159820000000  0.5043540000000  0.4389650000000 1.0
C      1  0.5152700000000  0.4978710000000  0.4362630000000 1.0
C      1  0.4776990000000  0.4755080000000  0.4615590000000 1.0
C      1  0.5415690000000  0.5101360000000  0.4351920000000 1.0
C      1  0.5700500000000  0.5317690000000  0.4742850000000 1.0
C      1  0.4494790000000  0.4903250000000  0.5474480000000 1.0
C      1  0.4970280000000  0.4966830000000  0.5202050000000 1.0
C      1  0.4968840000000  0.4320310000000  0.5598220000000 1.0
C      1  0.4418740000000  0.4958330000000  0.4347830000000 1.0
C      1  0.5249150000000  0.5391390000000  0.5403940000000 1.0
C      1  0.5302550000000  0.5603880000000  0.4829850000000 1.0
C      1  0.4711150000000  0.4431420000000  0.5219920000000 1.0
C      1  0.4199980000000  0.5392660000000  0.5113830000000 1.0
C      1  0.4769470000000  0.5738940000000  0.4951940000000 1.0
C      1  0.4887750000000  0.4883980000000  0.5754320000000 1.0
C      1  0.4125500000000  0.5100130000000  0.4657780000000 1.0
C      1  0.5061580000000  0.4769780000000  0.4547530000000 1.0
C      1  0.5517980000000  0.4620590000000  0.4694740000000 1.0
C      1  0.5496890000000  0.5322430000000  0.4520460000000 1.0
C      1  0.4716090000000  0.5700910000000  0.4693220000000 1.0
C      1  0.4376150000000  0.5185050000000  0.5070220000000 1.0
C      1  0.5535770000000  0.5558910000000  0.4985370000000 1.0
C      1  0.5510650000000  0.4563980000000  0.5260500000000 1.0
C      1  0.5618720000000  0.5070210000000  0.4868830000000 1.0
C      1  0.5092890000000  0.5057470000000  0.5742780000000 1.0
C      1  0.5255790000000  0.5348440000000  0.4704650000000 1.0
C      1  0.5686960000000  0.4809220000000  0.4789800000000 1.0
END
