TITL C-627107-135-1011 -4.21037954313285e-07 125000 -853.833149523766 0 0 138 (C1) n - 1
REM
REM in /home/nfs/bkarasulu/CARBON/AIRSS/Generating-Clusters/LCBOP/Only-C1/SD-CG/FIRE-CG
REM
REM
REM
REM
REM
REM ./C.cell (11c1c37f851c82e70ff6c80c92926a4b)
REM AIRSS Version 0.9.1 bugfix July 2018 build 013d7b7c2542+ Fri, 06 Jul 2018 19:26:36 +0100
REM compiler GCC version 9.2.1 20190827 (Red Hat 9.2.1-1)
REM options -cpp -mtune=generic -march=x86-64 -g -O0 -fpre-include=/usr/include/finclude/math-vector-fortran.h
REM seed 523807795 -1868976410 265029939 -1026232288 -1416738989 -434288178 -381525404 668695567 239755675 1663848635 -1190483476 -1760731904 1199919578 571661467 1685760837 -542251317 1071455179 -1205785008 1060294994 -1225827842 484845549 441934143 -629231737 566388592 -1475929283 743661482 -792755269 -459417743 576707817 -526314022 721118810 1647461765 2051400438
REM
CELL 1.54180   50.00000   50.00000   50.00000   90.00000   90.00000   90.00000
LATT -1
SFAC C  
C      1  0.4597210000000  0.4139500000000  0.4895950000000 1.0
C      1  0.3929090000000  0.4939750000000  0.4948460000000 1.0
C      1  0.5194260000000  0.5259670000000  0.5219540000000 1.0
C      1  0.4644740000000  0.4121450000000  0.4410490000000 1.0
C      1  0.4185360000000  0.5457520000000  0.4366590000000 1.0
C      1  0.5370540000000  0.5574200000000  0.4092820000000 1.0
C      1  0.4998900000000  0.4598210000000  0.4334890000000 1.0
C      1  0.4539810000000  0.4785350000000  0.4234380000000 1.0
C      1  0.4217650000000  0.5164900000000  0.5903560000000 1.0
C      1  0.5504470000000  0.4109060000000  0.5429440000000 1.0
C      1  0.4990050000000  0.5048230000000  0.4029330000000 1.0
C      1  0.5980320000000  0.4342240000000  0.4899630000000 1.0
C      1  0.5173550000000  0.5523120000000  0.5325530000000 1.0
C      1  0.4366680000000  0.4763720000000  0.4462050000000 1.0
C      1  0.4187640000000  0.5350410000000  0.5218150000000 1.0
C      1  0.5454480000000  0.5116350000000  0.4277540000000 1.0
C      1  0.4753120000000  0.5791270000000  0.5661770000000 1.0
C      1  0.5980340000000  0.5528050000000  0.5144530000000 1.0
C      1  0.6128400000000  0.4849780000000  0.5334070000000 1.0
C      1  0.4145700000000  0.5351940000000  0.5491330000000 1.0
C      1  0.5555270000000  0.5828690000000  0.5280000000000 1.0
C      1  0.5312030000000  0.4767950000000  0.5695550000000 1.0
C      1  0.5699870000000  0.4029610000000  0.5227250000000 1.0
C      1  0.4386780000000  0.5152010000000  0.4827720000000 1.0
C      1  0.4912420000000  0.5219290000000  0.5157410000000 1.0
C      1  0.4588630000000  0.5460580000000  0.6021870000000 1.0
C      1  0.4839940000000  0.5235740000000  0.4546640000000 1.0
C      1  0.4984010000000  0.5134540000000  0.4311420000000 1.0
C      1  0.6135290000000  0.4409350000000  0.5131880000000 1.0
C      1  0.5977650000000  0.4832350000000  0.4766330000000 1.0
C      1  0.5363630000000  0.5218270000000  0.4995210000000 1.0
C      1  0.5409530000000  0.4975940000000  0.5855050000000 1.0
C      1  0.4500510000000  0.4667650000000  0.4709930000000 1.0
C      1  0.5215990000000  0.5898320000000  0.4564000000000 1.0
C      1  0.6047270000000  0.5344010000000  0.5331980000000 1.0
C      1  0.3668390000000  0.4936560000000  0.4860790000000 1.0
C      1  0.4609050000000  0.4615230000000  0.5888810000000 1.0
C      1  0.4846300000000  0.6028360000000  0.4886440000000 1.0
C      1  0.4519950000000  0.4990430000000  0.5249110000000 1.0
C      1  0.3977710000000  0.4860600000000  0.5219290000000 1.0
C      1  0.4624640000000  0.6157680000000  0.5406480000000 1.0
C      1  0.4267990000000  0.5681950000000  0.4519880000000 1.0
C      1  0.5231930000000  0.4058450000000  0.5346570000000 1.0
C      1  0.5046870000000  0.4661680000000  0.5258790000000 1.0
C      1  0.4487370000000  0.5732530000000  0.5527170000000 1.0
C      1  0.5750630000000  0.4449470000000  0.4491160000000 1.0
C      1  0.5601150000000  0.5073320000000  0.5031910000000 1.0
C      1  0.4373700000000  0.4986980000000  0.6050460000000 1.0
C      1  0.4590790000000  0.5924770000000  0.4820240000000 1.0
C      1  0.5796890000000  0.5060370000000  0.4824470000000 1.0
C      1  0.4738690000000  0.4826720000000  0.4784060000000 1.0
C      1  0.5597490000000  0.4473810000000  0.5112810000000 1.0
C      1  0.5071940000000  0.5895700000000  0.4994630000000 1.0
C      1  0.5202760000000  0.3949180000000  0.5086220000000 1.0
C      1  0.5716470000000  0.4213400000000  0.4985160000000 1.0
C      1  0.5160620000000  0.4759740000000  0.4511320000000 1.0
C      1  0.5267740000000  0.4028120000000  0.4826770000000 1.0
C      1  0.4212110000000  0.4550020000000  0.5532980000000 1.0
C      1  0.5566340000000  0.5764020000000  0.4984810000000 1.0
C      1  0.4761060000000  0.5087470000000  0.5346210000000 1.0
C      1  0.5736250000000  0.4519150000000  0.5367270000000 1.0
C      1  0.5205370000000  0.4437000000000  0.4199330000000 1.0
C      1  0.4382460000000  0.4476030000000  0.5765360000000 1.0
C      1  0.5318690000000  0.5873390000000  0.4836190000000 1.0
C      1  0.5226630000000  0.5006850000000  0.4401110000000 1.0
C      1  0.5004960000000  0.5663410000000  0.5135140000000 1.0
C      1  0.5677510000000  0.4973040000000  0.4180200000000 1.0
C      1  0.4991740000000  0.5394210000000  0.4729920000000 1.0
C      1  0.4118570000000  0.5090180000000  0.5636650000000 1.0
C      1  0.4995580000000  0.4175790000000  0.5450810000000 1.0
C      1  0.5290590000000  0.4672460000000  0.4737560000000 1.0
C      1  0.5421570000000  0.4616590000000  0.4959090000000 1.0
C      1  0.4822720000000  0.4023780000000  0.5612800000000 1.0
C      1  0.5461780000000  0.5398220000000  0.4291150000000 1.0
C      1  0.5596290000000  0.4732900000000  0.4047670000000 1.0
C      1  0.5924510000000  0.4550810000000  0.4695510000000 1.0
C      1  0.5958090000000  0.5301230000000  0.4449330000000 1.0
C      1  0.5580820000000  0.4360290000000  0.5553490000000 1.0
C      1  0.4332730000000  0.5434090000000  0.5901890000000 1.0
C      1  0.5168810000000  0.5752650000000  0.4114410000000 1.0
C      1  0.4870570000000  0.5449330000000  0.4983200000000 1.0
C      1  0.4391980000000  0.5921310000000  0.5035000000000 1.0
C      1  0.4811030000000  0.5081960000000  0.5824810000000 1.0
C      1  0.5960150000000  0.5077090000000  0.5378630000000 1.0
C      1  0.4499400000000  0.4711240000000  0.5199590000000 1.0
C      1  0.5436720000000  0.5473740000000  0.4559970000000 1.0
C      1  0.4587410000000  0.4017220000000  0.5740350000000 1.0
C      1  0.4933840000000  0.4756650000000  0.4995480000000 1.0
C      1  0.4904110000000  0.5000260000000  0.5570520000000 1.0
C      1  0.4665400000000  0.5540080000000  0.4163140000000 1.0
C      1  0.5112960000000  0.4819270000000  0.5499430000000 1.0
C      1  0.4298060000000  0.5550310000000  0.5639770000000 1.0
C      1  0.4092040000000  0.4828130000000  0.5485550000000 1.0
C      1  0.5438480000000  0.5800810000000  0.5532450000000 1.0
C      1  0.5205680000000  0.5631310000000  0.5583260000000 1.0
C      1  0.4955570000000  0.5597110000000  0.5737280000000 1.0
C      1  0.4131400000000  0.5024430000000  0.4763060000000 1.0
C      1  0.4395770000000  0.4193500000000  0.5808820000000 1.0
C      1  0.4231360000000  0.4333070000000  0.5302700000000 1.0
C      1  0.4646170000000  0.5092180000000  0.4701790000000 1.0
C      1  0.4073480000000  0.5789120000000  0.4697520000000 1.0
C      1  0.4379470000000  0.5187560000000  0.5103740000000 1.0
C      1  0.5272740000000  0.4238010000000  0.4399380000000 1.0
C      1  0.6318820000000  0.4890280000000  0.5124220000000 1.0
C      1  0.6015540000000  0.4582640000000  0.5332690000000 1.0
C      1  0.5029500000000  0.5822550000000  0.4354040000000 1.0
C      1  0.4642130000000  0.4526390000000  0.5366060000000 1.0
C      1  0.4617030000000  0.4894420000000  0.5943300000000 1.0
C      1  0.4818440000000  0.4467300000000  0.5990490000000 1.0
C      1  0.4535470000000  0.5031410000000  0.4089450000000 1.0
C      1  0.4577510000000  0.5299760000000  0.4072970000000 1.0
C      1  0.4783470000000  0.4113470000000  0.4660570000000 1.0
C      1  0.5080460000000  0.4119400000000  0.4618570000000 1.0
C      1  0.4828070000000  0.5371050000000  0.5886560000000 1.0
C      1  0.6244070000000  0.4879560000000  0.4863040000000 1.0
C      1  0.5515290000000  0.5170260000000  0.5992770000000 1.0
C      1  0.4906090000000  0.4426920000000  0.5354330000000 1.0
C      1  0.5856940000000  0.5330410000000  0.4716860000000 1.0
C      1  0.4634140000000  0.4311920000000  0.4220850000000 1.0
C      1  0.4457870000000  0.5938780000000  0.5309880000000 1.0
C      1  0.5917890000000  0.5107810000000  0.4257070000000 1.0
C      1  0.5536760000000  0.4117270000000  0.4767330000000 1.0
C      1  0.5546210000000  0.4251660000000  0.4511510000000 1.0
C      1  0.4155800000000  0.4960220000000  0.4487920000000 1.0
C      1  0.5799940000000  0.5562000000000  0.4915140000000 1.0
C      1  0.4796860000000  0.6071380000000  0.5604190000000 1.0
C      1  0.4734200000000  0.4576800000000  0.4232140000000 1.0
C      1  0.4384890000000  0.4295970000000  0.5039360000000 1.0
C      1  0.4122190000000  0.5195940000000  0.4331180000000 1.0
C      1  0.4405110000000  0.4574670000000  0.4957920000000 1.0
C      1  0.5421620000000  0.4510940000000  0.5725670000000 1.0
C      1  0.5276600000000  0.5357160000000  0.4757390000000 1.0
C      1  0.4127650000000  0.5887920000000  0.4942690000000 1.0
C      1  0.5326620000000  0.4633800000000  0.4012070000000 1.0
C      1  0.4746740000000  0.5733930000000  0.4363480000000 1.0
C      1  0.4541070000000  0.5788780000000  0.4563410000000 1.0
C      1  0.5692970000000  0.5036010000000  0.5296030000000 1.0
C      1  0.5136910000000  0.4839850000000  0.3919680000000 1.0
END
