TITL C-627108-131-1953 -3.30744724291714e-08 125000 -291.116345750617 0 0 49 (C1) n - 1
REM
REM in /home/nfs/bkarasulu/CARBON/AIRSS/Generating-Clusters/LCBOP/Only-C1/SD-CG/FIRE-CG
REM
REM
REM
REM
REM
REM ./C.cell (11c1c37f851c82e70ff6c80c92926a4b)
REM AIRSS Version 0.9.1 bugfix July 2018 build 013d7b7c2542+ Fri, 06 Jul 2018 19:26:36 +0100
REM compiler GCC version 9.2.1 20190827 (Red Hat 9.2.1-1)
REM options -cpp -mtune=generic -march=x86-64 -g -O0 -fpre-include=/usr/include/finclude/math-vector-fortran.h
REM seed 1199729983 -173027371 -1991476170 1106086446 -446847993 426212013 -917429754 1251735205 -1277264373 1531350694 799016120 1264384330 -780580279 1346401580 -746613349 -1837593747 -1865701677 -163801489 1423458586 1611292673 1665166033 628011855 -1782623778 -2082794087 -1132273417 -21030472 -57575177 221883545 -1687056903 386391001 -569056370 1146884004 -765982344
REM
CELL 1.54180   50.00000   50.00000   50.00000   90.00000   90.00000   90.00000
LATT -1
SFAC C  
C      1  0.5425630000000  0.5489100000000  0.5591800000000 1.0
C      1  0.4513030000000  0.4484040000000  0.5350010000000 1.0
C      1  0.5031570000000  0.5296090000000  0.4998070000000 1.0
C      1  0.5410560000000  0.5596770000000  0.5848620000000 1.0
C      1  0.5663600000000  0.5365670000000  0.5488730000000 1.0
C      1  0.5002450000000  0.4153560000000  0.5136190000000 1.0
C      1  0.5515410000000  0.5322310000000  0.5032110000000 1.0
C      1  0.4829350000000  0.5258190000000  0.5199140000000 1.0
C      1  0.5615280000000  0.5187180000000  0.5268870000000 1.0
C      1  0.4708300000000  0.4823060000000  0.5077720000000 1.0
C      1  0.5107520000000  0.5336720000000  0.4399860000000 1.0
C      1  0.4680330000000  0.4494870000000  0.4605420000000 1.0
C      1  0.5186970000000  0.5491410000000  0.5412060000000 1.0
C      1  0.4170860000000  0.4734290000000  0.4766760000000 1.0
C      1  0.4967740000000  0.4719610000000  0.5034820000000 1.0
C      1  0.5097870000000  0.4839170000000  0.4819760000000 1.0
C      1  0.4981100000000  0.5255820000000  0.5455870000000 1.0
C      1  0.5107120000000  0.5115310000000  0.4793220000000 1.0
C      1  0.4805610000000  0.4820610000000  0.5629720000000 1.0
C      1  0.5051160000000  0.5758320000000  0.5374150000000 1.0
C      1  0.5028000000000  0.4983740000000  0.5549040000000 1.0
C      1  0.4631960000000  0.4630530000000  0.5544340000000 1.0
C      1  0.5131250000000  0.4621590000000  0.5247490000000 1.0
C      1  0.4442720000000  0.4442830000000  0.5075800000000 1.0
C      1  0.5489360000000  0.4943030000000  0.5344150000000 1.0
C      1  0.5022980000000  0.5603030000000  0.4446960000000 1.0
C      1  0.4970060000000  0.5787860000000  0.4634360000000 1.0
C      1  0.5913370000000  0.5414090000000  0.5586650000000 1.0
C      1  0.4778860000000  0.4944960000000  0.4387880000000 1.0
C      1  0.4937650000000  0.5155330000000  0.3979640000000 1.0
C      1  0.5284730000000  0.5233460000000  0.4601160000000 1.0
C      1  0.4604560000000  0.4754800000000  0.4510440000000 1.0
C      1  0.5136230000000  0.4342490000000  0.5274490000000 1.0
C      1  0.5092500000000  0.3877610000000  0.4572620000000 1.0
C      1  0.4852910000000  0.4305400000000  0.4470240000000 1.0
C      1  0.4634520000000  0.4365660000000  0.4875510000000 1.0
C      1  0.4629590000000  0.5071120000000  0.5146000000000 1.0
C      1  0.5237600000000  0.4832010000000  0.5410870000000 1.0
C      1  0.4940080000000  0.5144940000000  0.4259640000000 1.0
C      1  0.4841460000000  0.4159350000000  0.4906050000000 1.0
C      1  0.4337580000000  0.4824930000000  0.4575150000000 1.0
C      1  0.4972710000000  0.5887370000000  0.5149920000000 1.0
C      1  0.5527480000000  0.5294400000000  0.4745390000000 1.0
C      1  0.4944300000000  0.4093410000000  0.4642440000000 1.0
C      1  0.4208130000000  0.4565280000000  0.4973610000000 1.0
C      1  0.5391560000000  0.5696660000000  0.6088560000000 1.0
C      1  0.5260400000000  0.5428040000000  0.5117000000000 1.0
C      1  0.4950370000000  0.5887420000000  0.4882450000000 1.0
C      1  0.4935630000000  0.5166530000000  0.3719280000000 1.0
END
