TITL C-627112-676-1697 -1.82766053783972e-07 125000 -396.972714487062 0 0 66 (C1) n - 1
REM
REM in /home/nfs/bkarasulu/CARBON/AIRSS/Generating-Clusters/LCBOP/Only-C1/SD-CG/FIRE-CG
REM
REM
REM
REM
REM
REM ./C.cell (11c1c37f851c82e70ff6c80c92926a4b)
REM AIRSS Version 0.9.1 bugfix July 2018 build 013d7b7c2542+ Fri, 06 Jul 2018 19:26:36 +0100
REM compiler GCC version 9.2.1 20190827 (Red Hat 9.2.1-1)
REM options -cpp -mtune=generic -march=x86-64 -g -O0 -fpre-include=/usr/include/finclude/math-vector-fortran.h
REM seed 835906985 1458481298 230187159 -514038022 -915755166 -1019869740 -794782521 1617434777 1114635869 834175308 -1201184724 -1284973236 1376017615 -1243739718 1267778376 27998657 -630309141 1994901730 -2027751215 -1076595591 293349879 -145216391 1654558069 14037039 820333105 -1028374209 -713837063 2021730153 -1274511044 -1445504976 488447373 2098612727 1441893605
REM
CELL 1.54180   50.00000   50.00000   50.00000   90.00000   90.00000   90.00000
LATT -1
SFAC C  
C      1  0.4558880000000  0.4954570000000  0.5354780000000 1.0
C      1  0.5455600000000  0.4399350000000  0.5137090000000 1.0
C      1  0.5479770000000  0.4893970000000  0.5790970000000 1.0
C      1  0.4283500000000  0.5439530000000  0.4872150000000 1.0
C      1  0.5263640000000  0.4713670000000  0.5799970000000 1.0
C      1  0.5358490000000  0.5028490000000  0.4098360000000 1.0
C      1  0.5573230000000  0.4712300000000  0.4824310000000 1.0
C      1  0.5117820000000  0.4343720000000  0.5501390000000 1.0
C      1  0.4386180000000  0.5189250000000  0.5280140000000 1.0
C      1  0.4758890000000  0.4634300000000  0.5697700000000 1.0
C      1  0.4686020000000  0.5654450000000  0.4591230000000 1.0
C      1  0.4662350000000  0.4634690000000  0.5957730000000 1.0
C      1  0.5034650000000  0.4803530000000  0.4821510000000 1.0
C      1  0.5485020000000  0.4658020000000  0.5264330000000 1.0
C      1  0.4786760000000  0.5307910000000  0.5143500000000 1.0
C      1  0.4346240000000  0.4208490000000  0.4779990000000 1.0
C      1  0.5598580000000  0.5430940000000  0.4896800000000 1.0
C      1  0.5247160000000  0.4815120000000  0.5249340000000 1.0
C      1  0.5345090000000  0.5303380000000  0.4127970000000 1.0
C      1  0.5698450000000  0.5423510000000  0.5169880000000 1.0
C      1  0.4562910000000  0.5249320000000  0.4295390000000 1.0
C      1  0.4921990000000  0.5238040000000  0.5733390000000 1.0
C      1  0.4565080000000  0.5420130000000  0.5283130000000 1.0
C      1  0.4222450000000  0.5210170000000  0.5042400000000 1.0
C      1  0.5407390000000  0.4368840000000  0.4581740000000 1.0
C      1  0.5516920000000  0.4421120000000  0.4853500000000 1.0
C      1  0.5260790000000  0.5036540000000  0.5424200000000 1.0
C      1  0.5859900000000  0.4931000000000  0.5143670000000 1.0
C      1  0.5233050000000  0.5676710000000  0.4549510000000 1.0
C      1  0.5268990000000  0.4251710000000  0.5293710000000 1.0
C      1  0.4060250000000  0.4724480000000  0.5070170000000 1.0
C      1  0.4560710000000  0.4702760000000  0.5491580000000 1.0
C      1  0.5689980000000  0.4851070000000  0.5355990000000 1.0
C      1  0.4534170000000  0.4981280000000  0.4297840000000 1.0
C      1  0.4222920000000  0.4274000000000  0.5007470000000 1.0
C      1  0.5742730000000  0.4938890000000  0.4886390000000 1.0
C      1  0.5380810000000  0.5086830000000  0.4634940000000 1.0
C      1  0.4361420000000  0.4525550000000  0.5399250000000 1.0
C      1  0.4607340000000  0.4537830000000  0.4492080000000 1.0
C      1  0.5340320000000  0.4774430000000  0.4200920000000 1.0
C      1  0.4712950000000  0.5389230000000  0.4485460000000 1.0
C      1  0.5322230000000  0.4619040000000  0.4442540000000 1.0
C      1  0.5593240000000  0.5356920000000  0.5435470000000 1.0
C      1  0.4950920000000  0.5784730000000  0.4574310000000 1.0
C      1  0.4193010000000  0.4497490000000  0.5174050000000 1.0
C      1  0.5255940000000  0.5452370000000  0.4359050000000 1.0
C      1  0.5005290000000  0.5120120000000  0.5504940000000 1.0
C      1  0.5538730000000  0.5064780000000  0.5535550000000 1.0
C      1  0.5614920000000  0.5173280000000  0.4771540000000 1.0
C      1  0.4446830000000  0.5632340000000  0.4759260000000 1.0
C      1  0.4835190000000  0.5036330000000  0.5262270000000 1.0
C      1  0.4531470000000  0.5661680000000  0.5399160000000 1.0
C      1  0.5378630000000  0.5547190000000  0.5478110000000 1.0
C      1  0.5007130000000  0.4835650000000  0.5100720000000 1.0
C      1  0.4658040000000  0.4811500000000  0.4486140000000 1.0
C      1  0.5043700000000  0.4563750000000  0.5670690000000 1.0
C      1  0.5208360000000  0.5631330000000  0.5282850000000 1.0
C      1  0.5175590000000  0.5239310000000  0.4532880000000 1.0
C      1  0.5308580000000  0.4805390000000  0.4686910000000 1.0
C      1  0.4836590000000  0.4939900000000  0.4667920000000 1.0
C      1  0.5155260000000  0.5566630000000  0.5011560000000 1.0
C      1  0.4946680000000  0.5384880000000  0.4932960000000 1.0
C      1  0.5364720000000  0.5602620000000  0.4815000000000 1.0
C      1  0.4069360000000  0.4980700000000  0.4990620000000 1.0
C      1  0.4904470000000  0.5236530000000  0.4656040000000 1.0
C      1  0.4495700000000  0.4316400000000  0.4587600000000 1.0
END
