TITL C-627113-6568-1113 0.000404311400059609 125000 -745.580394568373 0 0 123 (C1) n - 1
REM
REM in /home/nfs/bkarasulu/CARBON/AIRSS/Generating-Clusters/LCBOP/Only-C1/SD-CG/FIRE-CG
REM
REM
REM
REM
REM
REM ./C.cell (11c1c37f851c82e70ff6c80c92926a4b)
REM AIRSS Version 0.9.1 bugfix July 2018 build 013d7b7c2542+ Fri, 06 Jul 2018 19:26:36 +0100
REM compiler GCC version 9.2.1 20190827 (Red Hat 9.2.1-1)
REM options -cpp -mtune=generic -march=x86-64 -g -O0 -fpre-include=/usr/include/finclude/math-vector-fortran.h
REM seed -1763930022 1328652354 -1894344388 105192214 -649874146 -1823539359 -1414320540 689437011 -228778764 851422698 -1011931970 474544607 -1721692350 86710825 1843727355 960197998 -2088530636 1314562304 26547507 -32114881 2101610775 -289218011 -1578852068 -154261856 -1900144353 -46658344 602644062 1286722559 -1470669858 -747301526 354955961 1480052697 1893448133
REM
CELL 1.54180   50.00000   50.00000   50.00000   90.00000   90.00000   90.00000
LATT -1
SFAC C  
C      1  0.5713080000000  0.4399610000000  0.4345520000000 1.0
C      1  0.5260530000000  0.4938850000000  0.3751250000000 1.0
C      1  0.4493530000000  0.4940650000000  0.6386650000000 1.0
C      1  0.5146140000000  0.4347120000000  0.5739530000000 1.0
C      1  0.5021740000000  0.4224430000000  0.5019180000000 1.0
C      1  0.5955510000000  0.5453190000000  0.4987360000000 1.0
C      1  0.5569280000000  0.5369120000000  0.5819450000000 1.0
C      1  0.5484410000000  0.5870880000000  0.4166210000000 1.0
C      1  0.4712080000000  0.5404230000000  0.5488650000000 1.0
C      1  0.3746180000000  0.5133750000000  0.4593090000000 1.0
C      1  0.4307510000000  0.5290890000000  0.6123390000000 1.0
C      1  0.4645040000000  0.4874430000000  0.4195880000000 1.0
C      1  0.4322630000000  0.5148430000000  0.4465680000000 1.0
C      1  0.4000860000000  0.4422370000000  0.5418560000000 1.0
C      1  0.5326010000000  0.5096830000000  0.5271250000000 1.0
C      1  0.5168970000000  0.4449430000000  0.5126210000000 1.0
C      1  0.3952890000000  0.5102440000000  0.4783580000000 1.0
C      1  0.5322120000000  0.4505280000000  0.3915490000000 1.0
C      1  0.6110070000000  0.4898660000000  0.5749190000000 1.0
C      1  0.5353730000000  0.5197190000000  0.5738230000000 1.0
C      1  0.4703400000000  0.4634990000000  0.4092600000000 1.0
C      1  0.5358250000000  0.5368960000000  0.5202360000000 1.0
C      1  0.5454760000000  0.5124990000000  0.4195510000000 1.0
C      1  0.4325410000000  0.5025360000000  0.6187840000000 1.0
C      1  0.4293550000000  0.4261950000000  0.5001780000000 1.0
C      1  0.3951280000000  0.5153580000000  0.5415340000000 1.0
C      1  0.5862670000000  0.5285460000000  0.4784140000000 1.0
C      1  0.4917350000000  0.6047500000000  0.4852190000000 1.0
C      1  0.5893090000000  0.4193270000000  0.5589300000000 1.0
C      1  0.4892370000000  0.5041780000000  0.5766640000000 1.0
C      1  0.4171410000000  0.4838280000000  0.6047630000000 1.0
C      1  0.5139390000000  0.5893370000000  0.6149530000000 1.0
C      1  0.5207510000000  0.5681620000000  0.5991870000000 1.0
C      1  0.4705740000000  0.4369170000000  0.4187120000000 1.0
C      1  0.4219180000000  0.5301640000000  0.4267250000000 1.0
C      1  0.5694150000000  0.5132330000000  0.4354910000000 1.0
C      1  0.5942430000000  0.5458620000000  0.5506810000000 1.0
C      1  0.4550170000000  0.4981060000000  0.4434650000000 1.0
C      1  0.4226900000000  0.5104750000000  0.4735550000000 1.0
C      1  0.5162610000000  0.4077310000000  0.5716600000000 1.0
C      1  0.5525750000000  0.5574530000000  0.4559240000000 1.0
C      1  0.5095080000000  0.5730540000000  0.5282500000000 1.0
C      1  0.5041230000000  0.4709760000000  0.5156880000000 1.0
C      1  0.5617850000000  0.4897420000000  0.4934650000000 1.0
C      1  0.4805190000000  0.4105740000000  0.5161410000000 1.0
C      1  0.5013590000000  0.5519160000000  0.5855690000000 1.0
C      1  0.5378850000000  0.5645360000000  0.4797230000000 1.0
C      1  0.5125850000000  0.5150930000000  0.4841840000000 1.0
C      1  0.5353730000000  0.4568580000000  0.4640800000000 1.0
C      1  0.4796320000000  0.4729860000000  0.5289150000000 1.0
C      1  0.5646620000000  0.4856890000000  0.5586250000000 1.0
C      1  0.5082940000000  0.4629070000000  0.4604410000000 1.0
C      1  0.3832180000000  0.5629520000000  0.4576290000000 1.0
C      1  0.4818970000000  0.5894210000000  0.5604320000000 1.0
C      1  0.4057010000000  0.4672960000000  0.5875010000000 1.0
C      1  0.4909070000000  0.5601370000000  0.4249540000000 1.0
C      1  0.5819890000000  0.5295130000000  0.5700240000000 1.0
C      1  0.4019770000000  0.4493090000000  0.4361740000000 1.0
C      1  0.5217860000000  0.5227210000000  0.4314730000000 1.0
C      1  0.5477510000000  0.4663670000000  0.4875690000000 1.0
C      1  0.4603950000000  0.5727410000000  0.4658040000000 1.0
C      1  0.5087570000000  0.5245010000000  0.5820340000000 1.0
C      1  0.4327260000000  0.5755490000000  0.4697400000000 1.0
C      1  0.5420260000000  0.5020010000000  0.5523880000000 1.0
C      1  0.5598350000000  0.4578870000000  0.5630450000000 1.0
C      1  0.5124350000000  0.5122500000000  0.4560210000000 1.0
C      1  0.5738060000000  0.4385620000000  0.5472430000000 1.0
C      1  0.6014660000000  0.4568250000000  0.4776550000000 1.0
C      1  0.5321630000000  0.5600690000000  0.5356810000000 1.0
C      1  0.4065000000000  0.5740800000000  0.4647950000000 1.0
C      1  0.5870270000000  0.5009680000000  0.5681330000000 1.0
C      1  0.5452980000000  0.4473790000000  0.5089230000000 1.0
C      1  0.4839120000000  0.4697420000000  0.4690260000000 1.0
C      1  0.5739370000000  0.4648590000000  0.4214870000000 1.0
C      1  0.5174710000000  0.4312440000000  0.4057800000000 1.0
C      1  0.4815890000000  0.5613760000000  0.5668490000000 1.0
C      1  0.5852050000000  0.5007130000000  0.4829100000000 1.0
C      1  0.5050050000000  0.4133460000000  0.4750930000000 1.0
C      1  0.3828610000000  0.4680100000000  0.4356880000000 1.0
C      1  0.5157390000000  0.4964090000000  0.5075140000000 1.0
C      1  0.5104160000000  0.6177890000000  0.5267810000000 1.0
C      1  0.4706900000000  0.5121490000000  0.5560670000000 1.0
C      1  0.4961040000000  0.4246000000000  0.4233480000000 1.0
C      1  0.4461600000000  0.4280460000000  0.4296610000000 1.0
C      1  0.4966140000000  0.4781500000000  0.5854130000000 1.0
C      1  0.4729550000000  0.5452040000000  0.5208680000000 1.0
C      1  0.5535930000000  0.4687340000000  0.4019750000000 1.0
C      1  0.4545760000000  0.4188500000000  0.5097230000000 1.0
C      1  0.4944560000000  0.6099500000000  0.5475940000000 1.0
C      1  0.5168810000000  0.5502490000000  0.4258120000000 1.0
C      1  0.5245460000000  0.4742640000000  0.5942640000000 1.0
C      1  0.5397300000000  0.5662710000000  0.4318000000000 1.0
C      1  0.4802360000000  0.5787720000000  0.4853120000000 1.0
C      1  0.5924320000000  0.4432730000000  0.4997590000000 1.0
C      1  0.4404320000000  0.4980630000000  0.5179820000000 1.0
C      1  0.5157410000000  0.6093450000000  0.4997760000000 1.0
C      1  0.4935830000000  0.5597930000000  0.5048970000000 1.0
C      1  0.4621420000000  0.4870600000000  0.4694880000000 1.0
C      1  0.4098400000000  0.4337010000000  0.5187200000000 1.0
C      1  0.4242060000000  0.4267840000000  0.4727230000000 1.0
C      1  0.4158250000000  0.5051100000000  0.5294420000000 1.0
C      1  0.3689780000000  0.5404160000000  0.4537450000000 1.0
C      1  0.5191280000000  0.4673100000000  0.3715230000000 1.0
C      1  0.4844610000000  0.3892790000000  0.5327870000000 1.0
C      1  0.3992400000000  0.4532000000000  0.5659920000000 1.0
C      1  0.4236250000000  0.4338910000000  0.4455990000000 1.0
C      1  0.5837640000000  0.4870060000000  0.4378100000000 1.0
C      1  0.5500270000000  0.4367690000000  0.4507560000000 1.0
C      1  0.5709030000000  0.4400840000000  0.5189100000000 1.0
C      1  0.3706670000000  0.4907760000000  0.4430140000000 1.0
C      1  0.4906550000000  0.4512030000000  0.5761490000000 1.0
C      1  0.4620860000000  0.4935750000000  0.5358650000000 1.0
C      1  0.5716170000000  0.5355560000000  0.4548660000000 1.0
C      1  0.4430510000000  0.4969260000000  0.4895800000000 1.0
C      1  0.5008740000000  0.4125340000000  0.4485550000000 1.0
C      1  0.4700630000000  0.5665850000000  0.4401630000000 1.0
C      1  0.5187710000000  0.5438070000000  0.4930790000000 1.0
C      1  0.5447600000000  0.4963090000000  0.3968190000000 1.0
C      1  0.5366640000000  0.5916930000000  0.4903660000000 1.0
C      1  0.5478430000000  0.5598690000000  0.5955420000000 1.0
C      1  0.5958040000000  0.4816660000000  0.4640750000000 1.0
C      1  0.5374140000000  0.4522600000000  0.5796980000000 1.0
C      1  0.5983750000000  0.5507380000000  0.5247340000000 1.0
END
