TITL C-627106-156-67 0.0233786879316318 125000 -259.696517737311 0 0 44 (C1) n - 1
REM
REM in /home/nfs/bkarasulu/CARBON/AIRSS/Generating-Clusters/LCBOP/Only-C1/SD-CG/FIRE-CG
REM
REM
REM
REM
REM
REM ./C.cell (11c1c37f851c82e70ff6c80c92926a4b)
REM AIRSS Version 0.9.1 bugfix July 2018 build 013d7b7c2542+ Fri, 06 Jul 2018 19:26:36 +0100
REM compiler GCC version 9.2.1 20190827 (Red Hat 9.2.1-1)
REM options -cpp -mtune=generic -march=x86-64 -g -O0 -fpre-include=/usr/include/finclude/math-vector-fortran.h
REM seed -354188854 330303975 -1650729318 -1954645856 1595208059 1894571380 -1602211560 -814041894 -2133149688 -194908041 -1857774791 -1713299149 -1295366947 -1107536069 -1979385133 2075419274 -746234085 980776982 2001076457 1300970768 -1410888114 -1537547770 1773080387 -497840096 263727296 -131114528 1510996459 1197426680 -1387130159 1072105616 759944873 2000542013 -406524391
REM
CELL 1.54180   50.00000   50.00000   50.00000   90.00000   90.00000   90.00000
LATT -1
SFAC C  
C      1  0.5409630000000  0.4630360000000  0.4078510000000 1.0
C      1  0.4904590000000  0.5665370000000  0.5004900000000 1.0
C      1  0.4684530000000  0.4980460000000  0.4871770000000 1.0
C      1  0.5432840000000  0.5138480000000  0.3985070000000 1.0
C      1  0.4614120000000  0.4775850000000  0.4686550000000 1.0
C      1  0.4888270000000  0.4471540000000  0.5616230000000 1.0
C      1  0.4149870000000  0.4219730000000  0.4977160000000 1.0
C      1  0.4775620000000  0.5632120000000  0.5665130000000 1.0
C      1  0.4787700000000  0.5236300000000  0.4801110000000 1.0
C      1  0.5020400000000  0.4441030000000  0.4697190000000 1.0
C      1  0.4676300000000  0.4517560000000  0.5420260000000 1.0
C      1  0.5252140000000  0.4238940000000  0.5072910000000 1.0
C      1  0.4745390000000  0.5310860000000  0.4525320000000 1.0
C      1  0.4982990000000  0.5476230000000  0.5727520000000 1.0
C      1  0.5211400000000  0.4980100000000  0.5086530000000 1.0
C      1  0.4873840000000  0.4184690000000  0.5657720000000 1.0
C      1  0.5462720000000  0.4874260000000  0.3987070000000 1.0
C      1  0.4711370000000  0.5755730000000  0.5187230000000 1.0
C      1  0.4675550000000  0.4070740000000  0.5500700000000 1.0
C      1  0.5281980000000  0.5374870000000  0.5358620000000 1.0
C      1  0.4539710000000  0.4271740000000  0.5341200000000 1.0
C      1  0.4924820000000  0.5471330000000  0.4384280000000 1.0
C      1  0.5482750000000  0.5562350000000  0.5298680000000 1.0
C      1  0.5061670000000  0.4656260000000  0.5724410000000 1.0
C      1  0.5097490000000  0.5842790000000  0.4902650000000 1.0
C      1  0.5321490000000  0.5125480000000  0.5782740000000 1.0
C      1  0.4503800000000  0.4886920000000  0.4449510000000 1.0
C      1  0.5199090000000  0.5328470000000  0.5627020000000 1.0
C      1  0.5222800000000  0.4719550000000  0.5037270000000 1.0
C      1  0.5131920000000  0.5484840000000  0.4217770000000 1.0
C      1  0.4663030000000  0.5744030000000  0.5449990000000 1.0
C      1  0.5296140000000  0.4456560000000  0.4244500000000 1.0
C      1  0.4756080000000  0.4535750000000  0.4690940000000 1.0
C      1  0.5155510000000  0.4385760000000  0.4458570000000 1.0
C      1  0.4335710000000  0.4240480000000  0.5158690000000 1.0
C      1  0.5519960000000  0.5771840000000  0.5135290000000 1.0
C      1  0.5355270000000  0.5892330000000  0.4960150000000 1.0
C      1  0.5315810000000  0.5361710000000  0.4070090000000 1.0
C      1  0.5543820000000  0.5179580000000  0.5932300000000 1.0
C      1  0.5167610000000  0.4462270000000  0.4940130000000 1.0
C      1  0.4948030000000  0.5383530000000  0.4982150000000 1.0
C      1  0.5208950000000  0.4869480000000  0.5779050000000 1.0
C      1  0.5145170000000  0.5247290000000  0.5141740000000 1.0
C      1  0.4562110000000  0.5144450000000  0.4383340000000 1.0
END
