TITL C-627109-622-1827 -13.4514273199507 125000 -843.715824868382 0 0 139 (C1) n - 1
REM
REM in /home/nfs/bkarasulu/CARBON/AIRSS/Generating-Clusters/LCBOP/Only-C1/SD-CG/FIRE-CG
REM
REM
REM
REM
REM
REM ./C.cell (11c1c37f851c82e70ff6c80c92926a4b)
REM AIRSS Version 0.9.1 bugfix July 2018 build 013d7b7c2542+ Fri, 06 Jul 2018 19:26:36 +0100
REM compiler GCC version 9.2.1 20190827 (Red Hat 9.2.1-1)
REM options -cpp -mtune=generic -march=x86-64 -g -O0 -fpre-include=/usr/include/finclude/math-vector-fortran.h
REM seed -2027765510 -1291519086 1740711478 -282605944 1565077366 -1223765195 -404665269 1931464093 -1749659574 -1402408096 -776483407 -2147451853 163266690 75982246 105885655 453024753 1339877685 -1800383779 1547221707 1466955529 1681757415 -1969094176 -196763721 -2135858686 1986782172 1979987745 760490031 1835288825 -1022830740 -1786003283 -1329528307 1027422796 1746418534
REM
CELL 1.54180   50.00000   50.00000   50.00000   90.00000   90.00000   90.00000
LATT -1
SFAC C  
C      1  0.5036080000000  0.4838730000000  0.4643180000000 1.0
C      1  0.5234330000000  0.5920390000000  0.4893940000000 1.0
C      1  0.5236260000000  0.5179270000000  0.4327310000000 1.0
C      1  0.6076300000000  0.4846920000000  0.5238830000000 1.0
C      1  0.5318120000000  0.5126940000000  0.6095730000000 1.0
C      1  0.5513020000000  0.5091140000000  0.5006370000000 1.0
C      1  0.5365590000000  0.5414380000000  0.6128580000000 1.0
C      1  0.4761440000000  0.4518240000000  0.5293560000000 1.0
C      1  0.6033360000000  0.4996830000000  0.5469190000000 1.0
C      1  0.5527770000000  0.4499990000000  0.4195130000000 1.0
C      1  0.5049110000000  0.6105070000000  0.4773670000000 1.0
C      1  0.5285430000000  0.4741750000000  0.4732550000000 1.0
C      1  0.5901460000000  0.4616340000000  0.5175100000000 1.0
C      1  0.5536620000000  0.4654770000000  0.5856230000000 1.0
C      1  0.5616280000000  0.5821900000000  0.4030920000000 1.0
C      1  0.4876810000000  0.5548450000000  0.5046310000000 1.0
C      1  0.5278550000000  0.4459490000000  0.4670970000000 1.0
C      1  0.4162360000000  0.4954270000000  0.4142990000000 1.0
C      1  0.4029410000000  0.5364730000000  0.5097060000000 1.0
C      1  0.5187070000000  0.4787400000000  0.5196500000000 1.0
C      1  0.5903740000000  0.4897350000000  0.5687360000000 1.0
C      1  0.5126260000000  0.4351860000000  0.5062920000000 1.0
C      1  0.5007420000000  0.5409160000000  0.5660100000000 1.0
C      1  0.4174830000000  0.5662880000000  0.4417410000000 1.0
C      1  0.4838320000000  0.5418160000000  0.5891850000000 1.0
C      1  0.5985690000000  0.4894830000000  0.4780620000000 1.0
C      1  0.5515940000000  0.4949050000000  0.5966200000000 1.0
C      1  0.4982340000000  0.4867020000000  0.5605280000000 1.0
C      1  0.4686940000000  0.5032080000000  0.4405490000000 1.0
C      1  0.5362850000000  0.4852540000000  0.4979960000000 1.0
C      1  0.4859760000000  0.4157730000000  0.4358460000000 1.0
C      1  0.4149590000000  0.5447440000000  0.4258750000000 1.0
C      1  0.5085060000000  0.5816970000000  0.5924790000000 1.0
C      1  0.5191210000000  0.3849820000000  0.4855630000000 1.0
C      1  0.5259860000000  0.5475770000000  0.5600290000000 1.0
C      1  0.4988860000000  0.5295370000000  0.5042350000000 1.0
C      1  0.5272570000000  0.3771300000000  0.5338630000000 1.0
C      1  0.5872600000000  0.5317740000000  0.4499100000000 1.0
C      1  0.5340850000000  0.5903420000000  0.5166850000000 1.0
C      1  0.5749740000000  0.5089140000000  0.5835580000000 1.0
C      1  0.4901160000000  0.3914520000000  0.4824670000000 1.0
C      1  0.5517250000000  0.5493150000000  0.5674430000000 1.0
C      1  0.5151080000000  0.4773950000000  0.3945110000000 1.0
C      1  0.4972060000000  0.4380260000000  0.5666790000000 1.0
C      1  0.6108800000000  0.5018750000000  0.5006130000000 1.0
C      1  0.4958050000000  0.6080830000000  0.4514060000000 1.0
C      1  0.5462480000000  0.5035690000000  0.4303290000000 1.0
C      1  0.5451590000000  0.5298620000000  0.4836480000000 1.0
C      1  0.4352920000000  0.5948580000000  0.5546720000000 1.0
C      1  0.3545200000000  0.5410750000000  0.4863150000000 1.0
C      1  0.4727760000000  0.5062060000000  0.4119300000000 1.0
C      1  0.4537550000000  0.4782190000000  0.4819640000000 1.0
C      1  0.4119470000000  0.5566960000000  0.5269200000000 1.0
C      1  0.3767310000000  0.4682490000000  0.4742170000000 1.0
C      1  0.4315360000000  0.4377840000000  0.5550110000000 1.0
C      1  0.4861840000000  0.4426980000000  0.4261210000000 1.0
C      1  0.4688880000000  0.5542730000000  0.4066110000000 1.0
C      1  0.4272700000000  0.5229780000000  0.4122280000000 1.0
C      1  0.5314440000000  0.5792920000000  0.4409120000000 1.0
C      1  0.5680950000000  0.4889940000000  0.4411730000000 1.0
C      1  0.5295800000000  0.5672790000000  0.6062460000000 1.0
C      1  0.4916720000000  0.5048150000000  0.4910850000000 1.0
C      1  0.3944810000000  0.4856850000000  0.4315460000000 1.0
C      1  0.5730970000000  0.4519930000000  0.5397710000000 1.0
C      1  0.4784670000000  0.4290370000000  0.5464510000000 1.0
C      1  0.5043280000000  0.4347530000000  0.4791340000000 1.0
C      1  0.4597920000000  0.5382930000000  0.4738100000000 1.0
C      1  0.5068910000000  0.5979380000000  0.5669700000000 1.0
C      1  0.5742110000000  0.5337590000000  0.5703760000000 1.0
C      1  0.5136620000000  0.3991690000000  0.5442220000000 1.0
C      1  0.5605770000000  0.5154780000000  0.5263230000000 1.0
C      1  0.5430920000000  0.5065370000000  0.5466500000000 1.0
C      1  0.5775160000000  0.5603540000000  0.5278860000000 1.0
C      1  0.4797210000000  0.5163210000000  0.6021000000000 1.0
C      1  0.4786180000000  0.5265980000000  0.4547810000000 1.0
C      1  0.4626240000000  0.4689200000000  0.5866510000000 1.0
C      1  0.5755300000000  0.4655570000000  0.5655210000000 1.0
C      1  0.5268660000000  0.3695060000000  0.5080040000000 1.0
C      1  0.5259470000000  0.4265630000000  0.5605330000000 1.0
C      1  0.4825130000000  0.5686160000000  0.5984770000000 1.0
C      1  0.4117420000000  0.4869700000000  0.5025980000000 1.0
C      1  0.5078450000000  0.5316550000000  0.4522120000000 1.0
C      1  0.5300600000000  0.5722540000000  0.4690030000000 1.0
C      1  0.5508970000000  0.4293230000000  0.4789490000000 1.0
C      1  0.5744460000000  0.5535050000000  0.4399270000000 1.0
C      1  0.5254310000000  0.5447450000000  0.4711230000000 1.0
C      1  0.5008470000000  0.4577550000000  0.5179110000000 1.0
C      1  0.4417510000000  0.4527540000000  0.5753950000000 1.0
C      1  0.4200400000000  0.5150830000000  0.5021540000000 1.0
C      1  0.4313590000000  0.4670190000000  0.4949880000000 1.0
C      1  0.4740210000000  0.5028810000000  0.5591170000000 1.0
C      1  0.4670410000000  0.5631020000000  0.4863150000000 1.0
C      1  0.5503040000000  0.4352090000000  0.5354810000000 1.0
C      1  0.4331290000000  0.4716800000000  0.4125070000000 1.0
C      1  0.4280370000000  0.4397490000000  0.4839910000000 1.0
C      1  0.4500210000000  0.5837070000000  0.4778220000000 1.0
C      1  0.4779660000000  0.4379530000000  0.4742500000000 1.0
C      1  0.4812120000000  0.6109190000000  0.5641900000000 1.0
C      1  0.4545300000000  0.4811270000000  0.4536870000000 1.0
C      1  0.4862660000000  0.4047930000000  0.5327130000000 1.0
C      1  0.3849590000000  0.4795490000000  0.4973930000000 1.0
C      1  0.4938170000000  0.4938530000000  0.3976240000000 1.0
C      1  0.5041230000000  0.5059080000000  0.6134530000000 1.0
C      1  0.5049040000000  0.5883490000000  0.4321840000000 1.0
C      1  0.5213400000000  0.5963540000000  0.5419630000000 1.0
C      1  0.4726460000000  0.4466050000000  0.4013560000000 1.0
C      1  0.4316430000000  0.4245410000000  0.5311430000000 1.0
C      1  0.4462410000000  0.5207380000000  0.4923820000000 1.0
C      1  0.3773830000000  0.5384790000000  0.4985520000000 1.0
C      1  0.5881790000000  0.4628640000000  0.4873400000000 1.0
C      1  0.5736130000000  0.4467590000000  0.4683330000000 1.0
C      1  0.4725570000000  0.4015770000000  0.5056020000000 1.0
C      1  0.5408780000000  0.4003990000000  0.4731690000000 1.0
C      1  0.5851410000000  0.5310780000000  0.5338060000000 1.0
C      1  0.3932220000000  0.4641940000000  0.4515290000000 1.0
C      1  0.5873940000000  0.5037560000000  0.4559100000000 1.0
C      1  0.4381090000000  0.4626750000000  0.4395390000000 1.0
C      1  0.4866880000000  0.5727620000000  0.4161490000000 1.0
C      1  0.4300970000000  0.5820270000000  0.4595330000000 1.0
C      1  0.4555920000000  0.5283850000000  0.4049080000000 1.0
C      1  0.6057730000000  0.5282310000000  0.5099290000000 1.0
C      1  0.5599400000000  0.5786910000000  0.5194600000000 1.0
C      1  0.5558500000000  0.5717780000000  0.4277930000000 1.0
C      1  0.4649600000000  0.4991780000000  0.4956690000000 1.0
C      1  0.4904290000000  0.4633260000000  0.5767290000000 1.0
C      1  0.4416660000000  0.4196190000000  0.5037910000000 1.0
C      1  0.5414270000000  0.4310530000000  0.5096250000000 1.0
C      1  0.4498170000000  0.4590830000000  0.3939110000000 1.0
C      1  0.4626590000000  0.4985270000000  0.5864660000000 1.0
C      1  0.5343840000000  0.4599930000000  0.4021750000000 1.0
C      1  0.4940700000000  0.4662740000000  0.4421840000000 1.0
C      1  0.4209230000000  0.5782420000000  0.5396400000000 1.0
C      1  0.5402360000000  0.4400490000000  0.5844860000000 1.0
C      1  0.4562490000000  0.6001320000000  0.5723160000000 1.0
C      1  0.4591750000000  0.5840960000000  0.5955830000000 1.0
C      1  0.5203310000000  0.4911090000000  0.5444810000000 1.0
C      1  0.5675590000000  0.4600050000000  0.4418740000000 1.0
C      1  0.4183050000000  0.4478680000000  0.4556890000000 1.0
C      1  0.4829260000000  0.3969800000000  0.4551190000000 1.0
END
