TITL C-627107-135-1097 10740.95760305 125000 -742.401883028985 0 0 124 (C1) n - 1
REM
REM in /home/nfs/bkarasulu/CARBON/AIRSS/Generating-Clusters/LCBOP/Only-C1/SD-CG/FIRE-CG
REM
REM
REM
REM
REM
REM ./C.cell (11c1c37f851c82e70ff6c80c92926a4b)
REM AIRSS Version 0.9.1 bugfix July 2018 build 013d7b7c2542+ Fri, 06 Jul 2018 19:26:36 +0100
REM compiler GCC version 9.2.1 20190827 (Red Hat 9.2.1-1)
REM options -cpp -mtune=generic -march=x86-64 -g -O0 -fpre-include=/usr/include/finclude/math-vector-fortran.h
REM seed 1893658823 -255527512 -1622698844 547816300 -1051416648 2038716184 1415375186 301247412 -2088533393 1560296366 -5137827 -832034626 -371847406 1008044546 -41838015 -1559713516 654287490 881762413 2085769240 1385673401 -468144781 -1822981600 1746473211 -5480228 -435683129 1522516884 133188482 -1605802599 -1455625543 -736488473 -1668439145 -1202117066 -1069323602
REM
CELL 1.54180   50.00000   50.00000   50.00000   90.00000   90.00000   90.00000
LATT -1
SFAC C  
C      1  0.4650530000000  0.5952440000000  0.5346620000000 1.0
C      1  0.5374500000000  0.4970410000000  0.5637890000000 1.0
C      1  0.5669490000000  0.4721450000000  0.5276940000000 1.0
C      1  0.4784270000000  0.4725220000000  0.4095320000000 1.0
C      1  0.5415930000000  0.5434620000000  0.4149820000000 1.0
C      1  0.5303770000000  0.4833460000000  0.4680170000000 1.0
C      1  0.4301040000000  0.4512840000000  0.4814630000000 1.0
C      1  0.4989780000000  0.4597200000000  0.5515390000000 1.0
C      1  0.4747710000000  0.4539560000000  0.5358460000000 1.0
C      1  0.4534540000000  0.5246700000000  0.5101890000000 1.0
C      1  0.5838590000000  0.4960490000000  0.5194060000000 1.0
C      1  0.4528360000000  0.5634690000000  0.4226570000000 1.0
C      1  0.5249260000000  0.5610520000000  0.5055380000000 1.0
C      1  0.3853450000000  0.4960830000000  0.4984440000000 1.0
C      1  0.5090120000000  0.5330310000000  0.4606160000000 1.0
C      1  0.4349890000000  0.4237390000000  0.5327700000000 1.0
C      1  0.4682460000000  0.4336270000000  0.5942530000000 1.0
C      1  0.5747740000000  0.4397700000000  0.5647200000000 1.0
C      1  0.4816400000000  0.5379650000000  0.5039430000000 1.0
C      1  0.4254320000000  0.4794310000000  0.6294260000000 1.0
C      1  0.6395010000000  0.4467570000000  0.3928110000000 1.0
C      1  0.5846120000000  0.4862310000000  0.4266390000000 1.0
C      1  0.5223820000000  0.4424310000000  0.6012230000000 1.0
C      1  0.4620490000000  0.4729210000000  0.5179620000000 1.0
C      1  0.4133730000000  0.4807360000000  0.5578320000000 1.0
C      1  0.4072090000000  0.5631910000000  0.4692670000000 1.0
C      1  0.6745080000000  0.4480500000000  0.4533420000000 1.0
C      1  0.5219710000000  0.5563400000000  0.5879860000000 1.0
C      1  0.5244180000000  0.5572570000000  0.5602400000000 1.0
C      1  0.4894180000000  0.3933430000000  0.4494450000000 1.0
C      1  0.4197950000000  0.5104670000000  0.4191170000000 1.0
C      1  0.5886250000000  0.5274380000000  0.4742350000000 1.0
C      1  0.4718740000000  0.5869060000000  0.5593120000000 1.0
C      1  0.5476530000000  0.5042740000000  0.4617940000000 1.0
C      1  0.5011440000000  0.4769880000000  0.5032790000000 1.0
C      1  0.4746790000000  0.5532500000000  0.4065400000000 1.0
C      1  0.4326870000000  0.5532760000000  0.4683690000000 1.0
C      1  0.4442780000000  0.4987800000000  0.4254410000000 1.0
C      1  0.6163330000000  0.4597090000000  0.3944660000000 1.0
C      1  0.4738790000000  0.4581500000000  0.4717370000000 1.0
C      1  0.5557300000000  0.4524090000000  0.5482990000000 1.0
C      1  0.5307400000000  0.5745530000000  0.4513300000000 1.0
C      1  0.4323770000000  0.4362400000000  0.4561700000000 1.0
C      1  0.5497050000000  0.5220860000000  0.6032210000000 1.0
C      1  0.4379870000000  0.5338570000000  0.5919560000000 1.0
C      1  0.4577090000000  0.4319240000000  0.4407920000000 1.0
C      1  0.4717590000000  0.5666640000000  0.4958760000000 1.0
C      1  0.4639090000000  0.4484030000000  0.4172160000000 1.0
C      1  0.4856970000000  0.5010840000000  0.5769280000000 1.0
C      1  0.4843190000000  0.4799290000000  0.4551540000000 1.0
C      1  0.4807920000000  0.4185630000000  0.4548300000000 1.0
C      1  0.4978150000000  0.5667050000000  0.3967320000000 1.0
C      1  0.4811190000000  0.5253770000000  0.4122100000000 1.0
C      1  0.4048850000000  0.4803600000000  0.5104990000000 1.0
C      1  0.5003870000000  0.4778100000000  0.4284040000000 1.0
C      1  0.5043720000000  0.5797080000000  0.4585460000000 1.0
C      1  0.5363370000000  0.5291560000000  0.4710600000000 1.0
C      1  0.4542230000000  0.5660550000000  0.4516650000000 1.0
C      1  0.4766970000000  0.4094110000000  0.5541510000000 1.0
C      1  0.4093220000000  0.4251970000000  0.4456940000000 1.0
C      1  0.4150300000000  0.5203870000000  0.5827480000000 1.0
C      1  0.5372500000000  0.5148690000000  0.4120820000000 1.0
C      1  0.5229200000000  0.5316570000000  0.6014260000000 1.0
C      1  0.5692040000000  0.4972070000000  0.4452670000000 1.0
C      1  0.4039570000000  0.5349800000000  0.5602540000000 1.0
C      1  0.5958880000000  0.5038470000000  0.4924780000000 1.0
C      1  0.4128650000000  0.5354620000000  0.4119010000000 1.0
C      1  0.4666110000000  0.5001420000000  0.4066740000000 1.0
C      1  0.4307660000000  0.4745190000000  0.6028370000000 1.0
C      1  0.5116420000000  0.4494060000000  0.4920250000000 1.0
C      1  0.5011500000000  0.4925320000000  0.4772060000000 1.0
C      1  0.4610230000000  0.5168300000000  0.4673900000000 1.0
C      1  0.5754980000000  0.5450610000000  0.4559230000000 1.0
C      1  0.4771860000000  0.5739860000000  0.4679150000000 1.0
C      1  0.5706720000000  0.5231640000000  0.5859570000000 1.0
C      1  0.5242040000000  0.5602570000000  0.3991750000000 1.0
C      1  0.4878770000000  0.4184800000000  0.5785410000000 1.0
C      1  0.4997700000000  0.5284640000000  0.4342020000000 1.0
C      1  0.4920920000000  0.4364660000000  0.4746630000000 1.0
C      1  0.4174990000000  0.4914170000000  0.5832830000000 1.0
C      1  0.5770630000000  0.5210930000000  0.5325150000000 1.0
C      1  0.4119970000000  0.5517990000000  0.5402950000000 1.0
C      1  0.4582160000000  0.4957150000000  0.4500390000000 1.0
C      1  0.6416590000000  0.4757320000000  0.4823720000000 1.0
C      1  0.5451990000000  0.4740540000000  0.5096590000000 1.0
C      1  0.6616870000000  0.4614350000000  0.4724030000000 1.0
C      1  0.5326630000000  0.5812010000000  0.5472750000000 1.0
C      1  0.5383900000000  0.4601230000000  0.4848700000000 1.0
C      1  0.3673290000000  0.5109050000000  0.4868390000000 1.0
C      1  0.4993280000000  0.5165020000000  0.5971600000000 1.0
C      1  0.5651210000000  0.5387960000000  0.5138100000000 1.0
C      1  0.4696590000000  0.5628050000000  0.5706310000000 1.0
C      1  0.5449220000000  0.5443040000000  0.4944160000000 1.0
C      1  0.5319720000000  0.5841070000000  0.5202770000000 1.0
C      1  0.4410400000000  0.5296430000000  0.4832550000000 1.0
C      1  0.5165200000000  0.4262850000000  0.5781660000000 1.0
C      1  0.4504470000000  0.4999860000000  0.5294640000000 1.0
C      1  0.4621770000000  0.4279430000000  0.5385180000000 1.0
C      1  0.4956030000000  0.4751490000000  0.5759480000000 1.0
C      1  0.5245480000000  0.4434880000000  0.5539500000000 1.0
C      1  0.5218070000000  0.4887360000000  0.5201950000000 1.0
C      1  0.5792930000000  0.5246740000000  0.5604250000000 1.0
C      1  0.5096970000000  0.4665370000000  0.5997540000000 1.0
C      1  0.4582830000000  0.5374420000000  0.5725250000000 1.0
C      1  0.4544430000000  0.4627160000000  0.4911660000000 1.0
C      1  0.4661090000000  0.5127390000000  0.5594810000000 1.0
C      1  0.4268940000000  0.5585100000000  0.4121710000000 1.0
C      1  0.4532920000000  0.5782770000000  0.5153130000000 1.0
C      1  0.6617570000000  0.4388330000000  0.4051030000000 1.0
C      1  0.5977610000000  0.4736590000000  0.4073340000000 1.0
C      1  0.5056150000000  0.5445910000000  0.5190420000000 1.0
C      1  0.4125550000000  0.4328740000000  0.5210340000000 1.0
C      1  0.6750510000000  0.4393340000000  0.4281890000000 1.0
C      1  0.4285300000000  0.5661160000000  0.5241410000000 1.0
C      1  0.4208310000000  0.4902340000000  0.5324720000000 1.0
C      1  0.5922840000000  0.4287740000000  0.5805790000000 1.0
C      1  0.5516740000000  0.5562070000000  0.4400030000000 1.0
C      1  0.6189190000000  0.4890920000000  0.4850940000000 1.0
C      1  0.5241200000000  0.5071150000000  0.5420700000000 1.0
C      1  0.5161240000000  0.5348300000000  0.5431240000000 1.0
C      1  0.4102180000000  0.4533930000000  0.5016600000000 1.0
C      1  0.4894720000000  0.5207120000000  0.4791540000000 1.0
C      1  0.5232100000000  0.4920160000000  0.4179700000000 1.0
C      1  0.4489310000000  0.4527990000000  0.5969360000000 1.0
END
