TITL C-627112-676-847 1.44098580642249e-05 125000 -481.584974907847 0 0 83 (C1) n - 1
REM
REM in /home/nfs/bkarasulu/CARBON/AIRSS/Generating-Clusters/LCBOP/Only-C1/SD-CG/FIRE-CG
REM
REM
REM
REM
REM
REM ./C.cell (11c1c37f851c82e70ff6c80c92926a4b)
REM AIRSS Version 0.9.1 bugfix July 2018 build 013d7b7c2542+ Fri, 06 Jul 2018 19:26:36 +0100
REM compiler GCC version 9.2.1 20190827 (Red Hat 9.2.1-1)
REM options -cpp -mtune=generic -march=x86-64 -g -O0 -fpre-include=/usr/include/finclude/math-vector-fortran.h
REM seed -550473937 -285657427 -961637474 -1073307802 1074925611 1622640423 242299137 1225684306 1879550898 -1911757725 -1463356076 -609407861 -1736160458 -1270872958 -1164465537 -995938349 598391128 1904990267 -1160965130 417484116 -881580360 476865163 856856777 1233055873 -60361625 1936568379 -1294894995 -1019729162 -2050343543 -14227012 -1553106093 1654234203 1251073223
REM
CELL 1.54180   50.00000   50.00000   50.00000   90.00000   90.00000   90.00000
LATT -1
SFAC C  
C      1  0.4929170000000  0.5587620000000  0.4666860000000 1.0
C      1  0.4103490000000  0.5118930000000  0.4795890000000 1.0
C      1  0.5108880000000  0.4528890000000  0.5517250000000 1.0
C      1  0.5213770000000  0.5056390000000  0.5986260000000 1.0
C      1  0.5656610000000  0.4947390000000  0.4385180000000 1.0
C      1  0.5264370000000  0.5042820000000  0.4628010000000 1.0
C      1  0.4259480000000  0.5556290000000  0.4980660000000 1.0
C      1  0.4658420000000  0.5058640000000  0.4592430000000 1.0
C      1  0.4837850000000  0.4239050000000  0.4919210000000 1.0
C      1  0.5722800000000  0.4721410000000  0.5061380000000 1.0
C      1  0.4086660000000  0.3932710000000  0.5439920000000 1.0
C      1  0.4513760000000  0.5490530000000  0.4413350000000 1.0
C      1  0.5148810000000  0.5649260000000  0.5224940000000 1.0
C      1  0.4287090000000  0.4417660000000  0.5414310000000 1.0
C      1  0.5270790000000  0.3683110000000  0.4768700000000 1.0
C      1  0.4398460000000  0.4671820000000  0.5379820000000 1.0
C      1  0.4875550000000  0.3954500000000  0.5311960000000 1.0
C      1  0.4735470000000  0.4857620000000  0.4778160000000 1.0
C      1  0.4672280000000  0.5386000000000  0.5089060000000 1.0
C      1  0.4707220000000  0.4954550000000  0.3731960000000 1.0
C      1  0.4674300000000  0.4694200000000  0.5295180000000 1.0
C      1  0.5654400000000  0.5662630000000  0.4871140000000 1.0
C      1  0.4193420000000  0.4609810000000  0.4721240000000 1.0
C      1  0.5338560000000  0.5565260000000  0.5428550000000 1.0
C      1  0.4346040000000  0.4398100000000  0.4778780000000 1.0
C      1  0.5861250000000  0.4576560000000  0.4867640000000 1.0
C      1  0.5122970000000  0.5415310000000  0.5054270000000 1.0
C      1  0.4686560000000  0.5129720000000  0.5194630000000 1.0
C      1  0.4776730000000  0.5096260000000  0.3939310000000 1.0
C      1  0.5003850000000  0.4458400000000  0.4845660000000 1.0
C      1  0.5742250000000  0.5204410000000  0.4479680000000 1.0
C      1  0.4886190000000  0.5442690000000  0.4901340000000 1.0
C      1  0.5690280000000  0.5049080000000  0.5641290000000 1.0
C      1  0.5616200000000  0.5028840000000  0.5381700000000 1.0
C      1  0.4111520000000  0.4864160000000  0.4712560000000 1.0
C      1  0.4811990000000  0.3924780000000  0.5567420000000 1.0
C      1  0.5110820000000  0.5352850000000  0.4178900000000 1.0
C      1  0.4906180000000  0.5826730000000  0.5212220000000 1.0
C      1  0.5619480000000  0.5567820000000  0.5351790000000 1.0
C      1  0.5605980000000  0.5647240000000  0.4607150000000 1.0
C      1  0.5130090000000  0.5134950000000  0.5736950000000 1.0
C      1  0.5831260000000  0.5232090000000  0.5003730000000 1.0
C      1  0.5984820000000  0.5738770000000  0.5711430000000 1.0
C      1  0.5352020000000  0.4509150000000  0.5398930000000 1.0
C      1  0.5207890000000  0.4718740000000  0.4293920000000 1.0
C      1  0.4706420000000  0.5870030000000  0.5677960000000 1.0
C      1  0.4180800000000  0.4175670000000  0.5432220000000 1.0
C      1  0.5798700000000  0.4993490000000  0.5158190000000 1.0
C      1  0.4459320000000  0.5699960000000  0.4573930000000 1.0
C      1  0.4702690000000  0.4876810000000  0.5064810000000 1.0
C      1  0.4234840000000  0.4906750000000  0.5433960000000 1.0
C      1  0.4729810000000  0.5135270000000  0.5475340000000 1.0
C      1  0.4667280000000  0.5254080000000  0.4386790000000 1.0
C      1  0.5108910000000  0.3835410000000  0.4904770000000 1.0
C      1  0.4883410000000  0.4641110000000  0.4664810000000 1.0
C      1  0.4572950000000  0.5554840000000  0.5308060000000 1.0
C      1  0.5427330000000  0.4666750000000  0.5149350000000 1.0
C      1  0.4454870000000  0.5739790000000  0.4857140000000 1.0
C      1  0.4894680000000  0.4710520000000  0.5496500000000 1.0
C      1  0.4745790000000  0.3911400000000  0.5819210000000 1.0
C      1  0.5909610000000  0.4576350000000  0.4604310000000 1.0
C      1  0.5236750000000  0.5377860000000  0.5623250000000 1.0
C      1  0.4926880000000  0.4981310000000  0.5603820000000 1.0
C      1  0.5885840000000  0.5208670000000  0.4725540000000 1.0
C      1  0.5362570000000  0.4958750000000  0.5248980000000 1.0
C      1  0.5360870000000  0.5422970000000  0.4245150000000 1.0
C      1  0.5255250000000  0.4537100000000  0.4943430000000 1.0
C      1  0.4170770000000  0.5281820000000  0.5017860000000 1.0
C      1  0.5583340000000  0.5437980000000  0.4418140000000 1.0
C      1  0.4191750000000  0.5128890000000  0.5259160000000 1.0
C      1  0.4853900000000  0.5235170000000  0.4169580000000 1.0
C      1  0.4698470000000  0.5869660000000  0.4985970000000 1.0
C      1  0.5012380000000  0.5786520000000  0.4518590000000 1.0
C      1  0.4112310000000  0.4917900000000  0.5680840000000 1.0
C      1  0.5711340000000  0.5487650000000  0.5088150000000 1.0
C      1  0.4562910000000  0.4262030000000  0.4856130000000 1.0
C      1  0.5832420000000  0.4728510000000  0.4396820000000 1.0
C      1  0.4941370000000  0.4008570000000  0.5046030000000 1.0
C      1  0.4723250000000  0.5761710000000  0.5431380000000 1.0
C      1  0.5378900000000  0.4901800000000  0.4420700000000 1.0
C      1  0.5807960000000  0.5661190000000  0.5536480000000 1.0
C      1  0.5222670000000  0.5161100000000  0.5117840000000 1.0
C      1  0.4974720000000  0.4630850000000  0.4398070000000 1.0
END
