TITL C-627108-131-672 4698.59118477434 125000 -548.560551255076 0 0 92 (C1) n - 1
REM
REM in /home/nfs/bkarasulu/CARBON/AIRSS/Generating-Clusters/LCBOP/Only-C1/SD-CG/FIRE-CG
REM
REM
REM
REM
REM
REM ./C.cell (11c1c37f851c82e70ff6c80c92926a4b)
REM AIRSS Version 0.9.1 bugfix July 2018 build 013d7b7c2542+ Fri, 06 Jul 2018 19:26:36 +0100
REM compiler GCC version 9.2.1 20190827 (Red Hat 9.2.1-1)
REM options -cpp -mtune=generic -march=x86-64 -g -O0 -fpre-include=/usr/include/finclude/math-vector-fortran.h
REM seed 194830199 158013300 -1125703556 681743709 -1827155910 1616869414 1392346060 -1387398975 1992021716 174215821 1380999263 -573867480 -1019212382 -201994221 1010440429 -663121918 1958252615 1409673926 -1290556331 1083227201 1165493597 1270619899 -1651963912 -153697737 75315094 -1077627182 -101152053 169796016 1502685311 -2140267137 2014366153 -998565977 -843847374
REM
CELL 1.54180   50.00000   50.00000   50.00000   90.00000   90.00000   90.00000
LATT -1
SFAC C  
C      1  0.5928070000000  0.5613770000000  0.5451840000000 1.0
C      1  0.5165310000000  0.4323190000000  0.5477260000000 1.0
C      1  0.5789700000000  0.4727520000000  0.5056960000000 1.0
C      1  0.4903210000000  0.5149030000000  0.3920120000000 1.0
C      1  0.5346420000000  0.4706220000000  0.4579050000000 1.0
C      1  0.5288590000000  0.5848820000000  0.4933200000000 1.0
C      1  0.4066630000000  0.5259280000000  0.5243170000000 1.0
C      1  0.4729150000000  0.4821780000000  0.5534830000000 1.0
C      1  0.5136940000000  0.6005990000000  0.4779460000000 1.0
C      1  0.4867990000000  0.4267780000000  0.5477050000000 1.0
C      1  0.6354730000000  0.6066740000000  0.3797310000000 1.0
C      1  0.5479760000000  0.4703410000000  0.5723120000000 1.0
C      1  0.4808480000000  0.5160290000000  0.4647580000000 1.0
C      1  0.4752980000000  0.5368720000000  0.3935270000000 1.0
C      1  0.5110780000000  0.4995250000000  0.3986550000000 1.0
C      1  0.4523350000000  0.4971770000000  0.5958140000000 1.0
C      1  0.6154090000000  0.5913900000000  0.3863250000000 1.0
C      1  0.4145190000000  0.5504900000000  0.5141410000000 1.0
C      1  0.4781070000000  0.4784730000000  0.5261570000000 1.0
C      1  0.4644480000000  0.5426030000000  0.5053720000000 1.0
C      1  0.5577910000000  0.4331730000000  0.4422690000000 1.0
C      1  0.4884790000000  0.4416820000000  0.4370870000000 1.0
C      1  0.5182440000000  0.4813630000000  0.4793770000000 1.0
C      1  0.4854060000000  0.5173580000000  0.6289800000000 1.0
C      1  0.5461610000000  0.4442880000000  0.4658240000000 1.0
C      1  0.4413950000000  0.5582240000000  0.5038670000000 1.0
C      1  0.4894080000000  0.4726330000000  0.4763790000000 1.0
C      1  0.4205170000000  0.4513910000000  0.5596110000000 1.0
C      1  0.4384470000000  0.5852620000000  0.4936470000000 1.0
C      1  0.5547840000000  0.4506270000000  0.4210900000000 1.0
C      1  0.5024270000000  0.4084080000000  0.4773910000000 1.0
C      1  0.5539580000000  0.5508730000000  0.5188030000000 1.0
C      1  0.4611240000000  0.4345210000000  0.5050240000000 1.0
C      1  0.5246560000000  0.4103140000000  0.5277420000000 1.0
C      1  0.4174850000000  0.4632430000000  0.4690400000000 1.0
C      1  0.4717720000000  0.4817560000000  0.5814620000000 1.0
C      1  0.4705100000000  0.5824070000000  0.4184510000000 1.0
C      1  0.4879990000000  0.4649660000000  0.5958590000000 1.0
C      1  0.5391330000000  0.4946400000000  0.5862370000000 1.0
C      1  0.4401140000000  0.4333460000000  0.5693300000000 1.0
C      1  0.5034640000000  0.5337020000000  0.4619850000000 1.0
C      1  0.4176800000000  0.4529420000000  0.5312900000000 1.0
C      1  0.5032670000000  0.4066730000000  0.5062370000000 1.0
C      1  0.4018810000000  0.4998290000000  0.5260610000000 1.0
C      1  0.4658090000000  0.4263170000000  0.5661920000000 1.0
C      1  0.5201660000000  0.4475660000000  0.5061910000000 1.0
C      1  0.4959290000000  0.4214020000000  0.4540870000000 1.0
C      1  0.4814750000000  0.4682600000000  0.4326560000000 1.0
C      1  0.5111650000000  0.5104000000000  0.6274560000000 1.0
C      1  0.4671020000000  0.5182610000000  0.4905980000000 1.0
C      1  0.5405880000000  0.5162730000000  0.5668420000000 1.0
C      1  0.4123860000000  0.5940260000000  0.4974100000000 1.0
C      1  0.4960730000000  0.6045090000000  0.4583310000000 1.0
C      1  0.5294490000000  0.4614270000000  0.5504330000000 1.0
C      1  0.5258990000000  0.4879030000000  0.5322730000000 1.0
C      1  0.4126390000000  0.4723350000000  0.5765880000000 1.0
C      1  0.4669570000000  0.4531200000000  0.4829940000000 1.0
C      1  0.4975430000000  0.4593830000000  0.5167110000000 1.0
C      1  0.5016620000000  0.5319810000000  0.5405850000000 1.0
C      1  0.5299920000000  0.4994900000000  0.6120070000000 1.0
C      1  0.4805430000000  0.5978090000000  0.4377430000000 1.0
C      1  0.5357700000000  0.4957660000000  0.4115940000000 1.0
C      1  0.5454240000000  0.4406040000000  0.4937900000000 1.0
C      1  0.5315020000000  0.5542940000000  0.4227570000000 1.0
C      1  0.5756900000000  0.4741430000000  0.5652710000000 1.0
C      1  0.4810870000000  0.4890410000000  0.4529510000000 1.0
C      1  0.4351990000000  0.4366340000000  0.5161830000000 1.0
C      1  0.5350410000000  0.5580430000000  0.4992440000000 1.0
C      1  0.5700720000000  0.4470160000000  0.5064880000000 1.0
C      1  0.5750070000000  0.5603540000000  0.4008960000000 1.0
C      1  0.4254300000000  0.4912800000000  0.5906330000000 1.0
C      1  0.5617010000000  0.4931890000000  0.5006330000000 1.0
C      1  0.4655040000000  0.4956730000000  0.5076440000000 1.0
C      1  0.5211460000000  0.5128320000000  0.5463700000000 1.0
C      1  0.4684380000000  0.5608710000000  0.4028850000000 1.0
C      1  0.5714690000000  0.5449110000000  0.5402580000000 1.0
C      1  0.5113930000000  0.5463890000000  0.4384110000000 1.0
C      1  0.5548910000000  0.5161400000000  0.4080040000000 1.0
C      1  0.5544580000000  0.5441620000000  0.4101940000000 1.0
C      1  0.4039790000000  0.4734750000000  0.5168680000000 1.0
C      1  0.4620870000000  0.5135030000000  0.6163920000000 1.0
C      1  0.5406850000000  0.4746900000000  0.4293460000000 1.0
C      1  0.5671400000000  0.5222010000000  0.5569080000000 1.0
C      1  0.4006950000000  0.4691280000000  0.4891140000000 1.0
C      1  0.4799490000000  0.4188430000000  0.5197070000000 1.0
C      1  0.4434410000000  0.4570260000000  0.4668600000000 1.0
C      1  0.5950860000000  0.5758560000000  0.3932710000000 1.0
C      1  0.5332210000000  0.4905100000000  0.5036990000000 1.0
C      1  0.5845060000000  0.4994180000000  0.5588660000000 1.0
C      1  0.5202450000000  0.5392210000000  0.4842320000000 1.0
C      1  0.3977190000000  0.5738600000000  0.5096270000000 1.0
C      1  0.4828590000000  0.5449310000000  0.5266810000000 1.0
END
