TITL C-627111-6168-490 -4.02554499166637e-07 125000 -206.924865982788 0 0 35 (C1) n - 1
REM
REM in /home/nfs/bkarasulu/CARBON/AIRSS/Generating-Clusters/LCBOP/Only-C1/SD-CG/FIRE-CG
REM
REM
REM
REM
REM
REM ./C.cell (11c1c37f851c82e70ff6c80c92926a4b)
REM AIRSS Version 0.9.1 bugfix July 2018 build 013d7b7c2542+ Fri, 06 Jul 2018 19:26:36 +0100
REM compiler GCC version 9.2.1 20190827 (Red Hat 9.2.1-1)
REM options -cpp -mtune=generic -march=x86-64 -g -O0 -fpre-include=/usr/include/finclude/math-vector-fortran.h
REM seed -1025705430 -503700470 14478405 1478033836 750217550 -891903080 1742314706 -67304255 -580404158 1158685451 1781677915 -1919149044 -1791681479 -2063159549 -310931340 308870862 -694362023 951744563 1310278064 -866127788 -1353087522 -1772070291 1338800366 1406725220 2127518097 -1046053491 564066378 -127154346 973439079 1683508242 -987332880 475070439 -209598346
REM
CELL 1.54180   50.00000   50.00000   50.00000   90.00000   90.00000   90.00000
LATT -1
SFAC C  
C      1  0.5413110000000  0.4473770000000  0.4696130000000 1.0
C      1  0.4318420000000  0.4991840000000  0.5171850000000 1.0
C      1  0.5341700000000  0.5207930000000  0.5300060000000 1.0
C      1  0.5197220000000  0.5449530000000  0.5318340000000 1.0
C      1  0.4394210000000  0.4740350000000  0.5221920000000 1.0
C      1  0.4584290000000  0.5234390000000  0.4842030000000 1.0
C      1  0.4681630000000  0.4740950000000  0.4642330000000 1.0
C      1  0.5480710000000  0.4609390000000  0.5626590000000 1.0
C      1  0.4775940000000  0.5576500000000  0.5578540000000 1.0
C      1  0.4416730000000  0.5236840000000  0.5074560000000 1.0
C      1  0.5032480000000  0.5514570000000  0.5535570000000 1.0
C      1  0.5413990000000  0.4732070000000  0.5157270000000 1.0
C      1  0.5406720000000  0.5011280000000  0.5107820000000 1.0
C      1  0.5401360000000  0.5103150000000  0.4839830000000 1.0
C      1  0.4412110000000  0.5456640000000  0.5248610000000 1.0
C      1  0.4594070000000  0.5005900000000  0.4677250000000 1.0
C      1  0.5273090000000  0.4470320000000  0.4470360000000 1.0
C      1  0.5317730000000  0.4621250000000  0.5400850000000 1.0
C      1  0.4834220000000  0.4659840000000  0.4423480000000 1.0
C      1  0.5071400000000  0.4440840000000  0.3774960000000 1.0
C      1  0.4539450000000  0.5568570000000  0.5454710000000 1.0
C      1  0.5057440000000  0.4538820000000  0.4305160000000 1.0
C      1  0.5064760000000  0.4488140000000  0.4031170000000 1.0
C      1  0.5220640000000  0.5877530000000  0.5072470000000 1.0
C      1  0.5251420000000  0.5295030000000  0.4725120000000 1.0
C      1  0.4790840000000  0.5423000000000  0.4813250000000 1.0
C      1  0.5161410000000  0.5605640000000  0.5079570000000 1.0
C      1  0.4646130000000  0.4565540000000  0.4859360000000 1.0
C      1  0.5467520000000  0.4560980000000  0.4941300000000 1.0
C      1  0.4603750000000  0.4573360000000  0.5137160000000 1.0
C      1  0.5065090000000  0.5467190000000  0.4849110000000 1.0
C      1  0.4807900000000  0.4496330000000  0.5311400000000 1.0
C      1  0.5054930000000  0.4523920000000  0.5405710000000 1.0
C      1  0.5635630000000  0.4605590000000  0.5836110000000 1.0
C      1  0.5271960000000  0.6133010000000  0.5070030000000 1.0
END
