TITL C-627111-6168-1303 0.0100741483347062 125000 -875.450794555114 0 0 144 (C1) n - 1
REM
REM in /home/nfs/bkarasulu/CARBON/AIRSS/Generating-Clusters/LCBOP/Only-C1/SD-CG/FIRE-CG
REM
REM
REM
REM
REM
REM ./C.cell (11c1c37f851c82e70ff6c80c92926a4b)
REM AIRSS Version 0.9.1 bugfix July 2018 build 013d7b7c2542+ Fri, 06 Jul 2018 19:26:36 +0100
REM compiler GCC version 9.2.1 20190827 (Red Hat 9.2.1-1)
REM options -cpp -mtune=generic -march=x86-64 -g -O0 -fpre-include=/usr/include/finclude/math-vector-fortran.h
REM seed -149998760 956474506 1126819004 1595060062 -526002172 187905564 1143512503 -942439548 228441993 -417991631 1766402260 -349419011 334440071 140553929 1815391066 1528301241 1887422960 -590816503 2102198252 28430415 1576414870 -961638961 -674624297 -719057460 20755598 1299594532 746465200 2016431393 56537040 1690433191 -747893464 671513790 -1335165148
REM
CELL 1.54180   50.00000   50.00000   50.00000   90.00000   90.00000   90.00000
LATT -1
SFAC C  
C      1  0.4737850000000  0.4760450000000  0.4687100000000 1.0
C      1  0.4644850000000  0.6189350000000  0.5154680000000 1.0
C      1  0.4353210000000  0.4616230000000  0.5965100000000 1.0
C      1  0.4838520000000  0.4991130000000  0.4570210000000 1.0
C      1  0.4633260000000  0.5896440000000  0.5560130000000 1.0
C      1  0.4855910000000  0.5542420000000  0.5031650000000 1.0
C      1  0.5977970000000  0.5566400000000  0.5525190000000 1.0
C      1  0.4688540000000  0.5607220000000  0.5963030000000 1.0
C      1  0.5338290000000  0.5620030000000  0.6034470000000 1.0
C      1  0.4556100000000  0.4198360000000  0.5702710000000 1.0
C      1  0.5920110000000  0.4684670000000  0.4409150000000 1.0
C      1  0.4025820000000  0.4535610000000  0.5332530000000 1.0
C      1  0.4157670000000  0.4482690000000  0.5085180000000 1.0
C      1  0.5493850000000  0.5856990000000  0.4797510000000 1.0
C      1  0.5255260000000  0.4806500000000  0.4939780000000 1.0
C      1  0.5335390000000  0.5114250000000  0.5447210000000 1.0
C      1  0.4441050000000  0.5547980000000  0.4064460000000 1.0
C      1  0.4112780000000  0.4633530000000  0.4845300000000 1.0
C      1  0.4558720000000  0.4888030000000  0.5260320000000 1.0
C      1  0.5175630000000  0.5395280000000  0.5991360000000 1.0
C      1  0.4848300000000  0.4807740000000  0.5251900000000 1.0
C      1  0.4556980000000  0.5182600000000  0.4920130000000 1.0
C      1  0.5488230000000  0.3807520000000  0.5146080000000 1.0
C      1  0.4633630000000  0.4519740000000  0.4684050000000 1.0
C      1  0.3971800000000  0.5134290000000  0.5348090000000 1.0
C      1  0.4480810000000  0.4858160000000  0.6067080000000 1.0
C      1  0.5370460000000  0.5967140000000  0.3766990000000 1.0
C      1  0.5309140000000  0.4927950000000  0.5642260000000 1.0
C      1  0.4877000000000  0.5467760000000  0.4747710000000 1.0
C      1  0.5272650000000  0.4005660000000  0.5195920000000 1.0
C      1  0.6147500000000  0.4626400000000  0.4858020000000 1.0
C      1  0.4120370000000  0.6037860000000  0.4640130000000 1.0
C      1  0.5198260000000  0.4364740000000  0.4658540000000 1.0
C      1  0.4091380000000  0.4607970000000  0.5850940000000 1.0
C      1  0.5524820000000  0.4132390000000  0.3684870000000 1.0
C      1  0.4576410000000  0.4120460000000  0.5181560000000 1.0
C      1  0.6120400000000  0.5292020000000  0.4709570000000 1.0
C      1  0.5338470000000  0.5793260000000  0.5814880000000 1.0
C      1  0.4110030000000  0.5189690000000  0.5585220000000 1.0
C      1  0.5563300000000  0.5775940000000  0.5644590000000 1.0
C      1  0.4990190000000  0.4980350000000  0.4328190000000 1.0
C      1  0.5071040000000  0.5262420000000  0.6213810000000 1.0
C      1  0.5882700000000  0.3921500000000  0.5428600000000 1.0
C      1  0.4267010000000  0.5747670000000  0.4190440000000 1.0
C      1  0.5043300000000  0.5365260000000  0.5738620000000 1.0
C      1  0.4529050000000  0.6286780000000  0.4664020000000 1.0
C      1  0.4809040000000  0.5168580000000  0.6207130000000 1.0
C      1  0.5476650000000  0.4366800000000  0.5984650000000 1.0
C      1  0.5133620000000  0.4741080000000  0.4247260000000 1.0
C      1  0.4049960000000  0.5346300000000  0.4922980000000 1.0
C      1  0.4619100000000  0.6307120000000  0.4915500000000 1.0
C      1  0.4552020000000  0.4353710000000  0.4083830000000 1.0
C      1  0.5621380000000  0.5709510000000  0.6483410000000 1.0
C      1  0.5128860000000  0.5983330000000  0.5441850000000 1.0
C      1  0.6317530000000  0.4321020000000  0.5171230000000 1.0
C      1  0.5635140000000  0.5106730000000  0.5036010000000 1.0
C      1  0.4339900000000  0.5282000000000  0.4054040000000 1.0
C      1  0.4128630000000  0.5149530000000  0.5112330000000 1.0
C      1  0.4766830000000  0.4887610000000  0.6140930000000 1.0
C      1  0.5270370000000  0.5934260000000  0.5220020000000 1.0
C      1  0.5157060000000  0.5170690000000  0.5230490000000 1.0
C      1  0.5428070000000  0.4253130000000  0.5241450000000 1.0
C      1  0.4638900000000  0.5936970000000  0.5280100000000 1.0
C      1  0.5483850000000  0.5666450000000  0.6266280000000 1.0
C      1  0.4388040000000  0.5132950000000  0.5662520000000 1.0
C      1  0.3998300000000  0.4567670000000  0.5599000000000 1.0
C      1  0.5147260000000  0.4333550000000  0.3979200000000 1.0
C      1  0.4398630000000  0.5050210000000  0.5098030000000 1.0
C      1  0.6057890000000  0.4546860000000  0.4206240000000 1.0
C      1  0.4926540000000  0.5495560000000  0.4243050000000 1.0
C      1  0.6080870000000  0.4778610000000  0.4628380000000 1.0
C      1  0.6007280000000  0.4243320000000  0.3794310000000 1.0
C      1  0.4129150000000  0.4783060000000  0.4619440000000 1.0
C      1  0.5200180000000  0.4615840000000  0.4745290000000 1.0
C      1  0.4689290000000  0.4286990000000  0.4539820000000 1.0
C      1  0.4325930000000  0.4489840000000  0.4042370000000 1.0
C      1  0.5090440000000  0.4769920000000  0.5724620000000 1.0
C      1  0.5788050000000  0.4189210000000  0.4581570000000 1.0
C      1  0.5681120000000  0.4603030000000  0.5018190000000 1.0
C      1  0.5683270000000  0.3753500000000  0.5346770000000 1.0
C      1  0.5954030000000  0.4581020000000  0.5074450000000 1.0
C      1  0.5730070000000  0.5374220000000  0.5036500000000 1.0
C      1  0.4973750000000  0.5387680000000  0.5249880000000 1.0
C      1  0.5514070000000  0.5911770000000  0.4539140000000 1.0
C      1  0.6371920000000  0.4462530000000  0.4938410000000 1.0
C      1  0.4426380000000  0.5986610000000  0.4271620000000 1.0
C      1  0.4354570000000  0.6133680000000  0.4506140000000 1.0
C      1  0.5460310000000  0.5793370000000  0.5067450000000 1.0
C      1  0.4476410000000  0.4869370000000  0.5535220000000 1.0
C      1  0.4904810000000  0.4690800000000  0.5521570000000 1.0
C      1  0.4682290000000  0.4056000000000  0.4706430000000 1.0
C      1  0.5870120000000  0.4206830000000  0.5419870000000 1.0
C      1  0.5790500000000  0.4143040000000  0.3676890000000 1.0
C      1  0.5481120000000  0.4867620000000  0.3938900000000 1.0
C      1  0.6166620000000  0.5045770000000  0.4619740000000 1.0
C      1  0.4979960000000  0.4769300000000  0.5990160000000 1.0
C      1  0.4186010000000  0.4690690000000  0.4148620000000 1.0
C      1  0.3447720000000  0.5011280000000  0.5333280000000 1.0
C      1  0.5057110000000  0.4025650000000  0.5003670000000 1.0
C      1  0.6098850000000  0.4394640000000  0.3992810000000 1.0
C      1  0.4642800000000  0.4656270000000  0.5630400000000 1.0
C      1  0.4700350000000  0.5234550000000  0.4674550000000 1.0
C      1  0.5641370000000  0.4733570000000  0.4366810000000 1.0
C      1  0.5157990000000  0.4117130000000  0.4750390000000 1.0
C      1  0.5512200000000  0.4358450000000  0.5726480000000 1.0
C      1  0.4721150000000  0.5640290000000  0.4107810000000 1.0
C      1  0.5605880000000  0.3869990000000  0.4892270000000 1.0
C      1  0.5560180000000  0.4345150000000  0.4998780000000 1.0
C      1  0.4767710000000  0.4032270000000  0.4985840000000 1.0
C      1  0.3699990000000  0.5075870000000  0.5343000000000 1.0
C      1  0.5418980000000  0.4777090000000  0.4192830000000 1.0
C      1  0.4805880000000  0.5806280000000  0.5772440000000 1.0
C      1  0.4612350000000  0.5339790000000  0.6067130000000 1.0
C      1  0.4862910000000  0.5385450000000  0.5516490000000 1.0
C      1  0.4384830000000  0.5679230000000  0.4969190000000 1.0
C      1  0.4054470000000  0.5670710000000  0.4362070000000 1.0
C      1  0.4470100000000  0.5261960000000  0.4490890000000 1.0
C      1  0.5298500000000  0.4206670000000  0.3802340000000 1.0
C      1  0.5725010000000  0.5644940000000  0.5454820000000 1.0
C      1  0.4596430000000  0.4084700000000  0.5461320000000 1.0
C      1  0.5012210000000  0.4479920000000  0.4180240000000 1.0
C      1  0.5494670000000  0.5946020000000  0.4277060000000 1.0
C      1  0.4690120000000  0.5923790000000  0.4172850000000 1.0
C      1  0.5628340000000  0.5595280000000  0.5189440000000 1.0
C      1  0.5064260000000  0.4928620000000  0.5108700000000 1.0
C      1  0.4998210000000  0.5226620000000  0.4184880000000 1.0
C      1  0.6047870000000  0.4371140000000  0.5267030000000 1.0
C      1  0.5440380000000  0.5961320000000  0.4018060000000 1.0
C      1  0.4051450000000  0.5761500000000  0.4630990000000 1.0
C      1  0.4357160000000  0.4280560000000  0.5093000000000 1.0
C      1  0.5656630000000  0.4140160000000  0.4815210000000 1.0
C      1  0.4765600000000  0.4350610000000  0.4268870000000 1.0
C      1  0.5087380000000  0.5878720000000  0.5704850000000 1.0
C      1  0.4631920000000  0.5715720000000  0.5098500000000 1.0
C      1  0.5533860000000  0.4845290000000  0.4997740000000 1.0
C      1  0.4193150000000  0.4880610000000  0.4356600000000 1.0
C      1  0.5952540000000  0.5421880000000  0.4870690000000 1.0
C      1  0.4145700000000  0.5598090000000  0.4843560000000 1.0
C      1  0.5596680000000  0.4293970000000  0.5470250000000 1.0
C      1  0.4315610000000  0.5133380000000  0.4295770000000 1.0
C      1  0.4425230000000  0.5131600000000  0.5958280000000 1.0
C      1  0.4987720000000  0.5580810000000  0.4512350000000 1.0
C      1  0.4588610000000  0.5330430000000  0.5549530000000 1.0
C      1  0.4535880000000  0.4459960000000  0.5801400000000 1.0
END
