TITL C-627107-135-1115 16449.2436161626 125000 -782.184210827819 0 0 129 (C1) n - 1
REM
REM in /home/nfs/bkarasulu/CARBON/AIRSS/Generating-Clusters/LCBOP/Only-C1/SD-CG/FIRE-CG
REM
REM
REM
REM
REM
REM ./C.cell (11c1c37f851c82e70ff6c80c92926a4b)
REM AIRSS Version 0.9.1 bugfix July 2018 build 013d7b7c2542+ Fri, 06 Jul 2018 19:26:36 +0100
REM compiler GCC version 9.2.1 20190827 (Red Hat 9.2.1-1)
REM options -cpp -mtune=generic -march=x86-64 -g -O0 -fpre-include=/usr/include/finclude/math-vector-fortran.h
REM seed -1099179913 -1942531997 707488383 1455235026 1136530810 909416113 1316601447 -697208952 -167235877 -38306999 -565085212 497593751 586215951 1057272125 501317090 -265282578 -347540565 1530583830 868784761 302995611 1838057028 1629881843 -1788042634 -1914665190 1942386211 -1825007230 -781481460 -985199187 -1423042076 795356439 522933596 168668641 2118191400
REM
CELL 1.54180   50.00000   50.00000   50.00000   90.00000   90.00000   90.00000
LATT -1
SFAC C  
C      1  0.5086670000000  0.4960390000000  0.4228190000000 1.0
C      1  0.5560130000000  0.5890100000000  0.5276430000000 1.0
C      1  0.5248540000000  0.3825290000000  0.5422840000000 1.0
C      1  0.5746190000000  0.4189040000000  0.5260440000000 1.0
C      1  0.5754300000000  0.5007040000000  0.4890370000000 1.0
C      1  0.4618790000000  0.4888190000000  0.3992050000000 1.0
C      1  0.4496740000000  0.5249180000000  0.4900180000000 1.0
C      1  0.5730740000000  0.5733270000000  0.5101530000000 1.0
C      1  0.5307710000000  0.5108410000000  0.4843700000000 1.0
C      1  0.4510060000000  0.5506260000000  0.5480020000000 1.0
C      1  0.4990570000000  0.5354890000000  0.5891590000000 1.0
C      1  0.5014130000000  0.4372240000000  0.5775510000000 1.0
C      1  0.4874080000000  0.4374500000000  0.4461090000000 1.0
C      1  0.4544890000000  0.5130280000000  0.6007130000000 1.0
C      1  0.5167120000000  0.4749510000000  0.5296130000000 1.0
C      1  0.5693450000000  0.5064670000000  0.4228420000000 1.0
C      1  0.4958700000000  0.5276100000000  0.4606260000000 1.0
C      1  0.4679400000000  0.5433760000000  0.5010580000000 1.0
C      1  0.5450020000000  0.5483800000000  0.5619710000000 1.0
C      1  0.4513520000000  0.4693470000000  0.4497360000000 1.0
C      1  0.5715480000000  0.4389390000000  0.5465440000000 1.0
C      1  0.4369880000000  0.5205610000000  0.5793800000000 1.0
C      1  0.4830280000000  0.5107730000000  0.5952360000000 1.0
C      1  0.4530890000000  0.5017330000000  0.5417080000000 1.0
C      1  0.4164390000000  0.5527280000000  0.5085190000000 1.0
C      1  0.4379070000000  0.5043720000000  0.3985800000000 1.0
C      1  0.4266240000000  0.4903570000000  0.5470380000000 1.0
C      1  0.5512370000000  0.4621850000000  0.4369720000000 1.0
C      1  0.5062340000000  0.5928960000000  0.5203310000000 1.0
C      1  0.4148530000000  0.5156100000000  0.5598550000000 1.0
C      1  0.4959970000000  0.5671260000000  0.4334000000000 1.0
C      1  0.4971970000000  0.4942970000000  0.5338590000000 1.0
C      1  0.6141720000000  0.4894490000000  0.5921780000000 1.0
C      1  0.4849380000000  0.5040320000000  0.4070980000000 1.0
C      1  0.4576240000000  0.5246270000000  0.5580340000000 1.0
C      1  0.5266170000000  0.3950790000000  0.4687990000000 1.0
C      1  0.4239460000000  0.5237190000000  0.4106920000000 1.0
C      1  0.4919100000000  0.5551550000000  0.4587970000000 1.0
C      1  0.5406480000000  0.5079970000000  0.6020590000000 1.0
C      1  0.5050780000000  0.3885420000000  0.4841010000000 1.0
C      1  0.4709620000000  0.4535110000000  0.4618030000000 1.0
C      1  0.3875900000000  0.4977070000000  0.5040540000000 1.0
C      1  0.4347480000000  0.4622470000000  0.5548960000000 1.0
C      1  0.5103640000000  0.4263440000000  0.4381220000000 1.0
C      1  0.5100440000000  0.6041430000000  0.4947330000000 1.0
C      1  0.5576940000000  0.5298990000000  0.4135890000000 1.0
C      1  0.5493570000000  0.4986540000000  0.5000580000000 1.0
C      1  0.5874190000000  0.4627380000000  0.5406010000000 1.0
C      1  0.4240460000000  0.5416120000000  0.4322240000000 1.0
C      1  0.5885970000000  0.4932710000000  0.5834220000000 1.0
C      1  0.5822230000000  0.4828620000000  0.4675950000000 1.0
C      1  0.5498390000000  0.4412160000000  0.5678510000000 1.0
C      1  0.5245020000000  0.4096430000000  0.5428990000000 1.0
C      1  0.5182920000000  0.6019270000000  0.4693240000000 1.0
C      1  0.4081900000000  0.5393470000000  0.4570230000000 1.0
C      1  0.4579450000000  0.4612430000000  0.3959240000000 1.0
C      1  0.5294300000000  0.4551240000000  0.4817470000000 1.0
C      1  0.4568250000000  0.4604230000000  0.5739820000000 1.0
C      1  0.6048980000000  0.5946250000000  0.4805870000000 1.0
C      1  0.4077160000000  0.4917650000000  0.4495800000000 1.0
C      1  0.4724270000000  0.4577520000000  0.4897450000000 1.0
C      1  0.4378410000000  0.4439050000000  0.4000940000000 1.0
C      1  0.4817710000000  0.4410400000000  0.5100130000000 1.0
C      1  0.5022530000000  0.5218150000000  0.5319590000000 1.0
C      1  0.4722220000000  0.5569790000000  0.4197980000000 1.0
C      1  0.5238280000000  0.4271750000000  0.5210590000000 1.0
C      1  0.5397500000000  0.5189370000000  0.4582450000000 1.0
C      1  0.4788690000000  0.5326330000000  0.4058330000000 1.0
C      1  0.5254270000000  0.4251720000000  0.5665800000000 1.0
C      1  0.5349550000000  0.4339680000000  0.4965200000000 1.0
C      1  0.4190380000000  0.5572130000000  0.4781930000000 1.0
C      1  0.3751180000000  0.5020960000000  0.4789570000000 1.0
C      1  0.5563450000000  0.4358810000000  0.4527300000000 1.0
C      1  0.5436760000000  0.4628930000000  0.5855520000000 1.0
C      1  0.4693380000000  0.4156540000000  0.5126050000000 1.0
C      1  0.4233340000000  0.5445120000000  0.5367380000000 1.0
C      1  0.4329800000000  0.4870580000000  0.4610320000000 1.0
C      1  0.5247720000000  0.5315490000000  0.6022100000000 1.0
C      1  0.5235310000000  0.5654940000000  0.5569770000000 1.0
C      1  0.5548970000000  0.5254050000000  0.5537080000000 1.0
C      1  0.4932280000000  0.5323650000000  0.5077500000000 1.0
C      1  0.5766770000000  0.4347840000000  0.4764560000000 1.0
C      1  0.5616430000000  0.5848100000000  0.4626020000000 1.0
C      1  0.4142570000000  0.4939910000000  0.5072230000000 1.0
C      1  0.4330970000000  0.4393910000000  0.5378110000000 1.0
C      1  0.4387640000000  0.4966690000000  0.4891730000000 1.0
C      1  0.5709230000000  0.4835060000000  0.4412010000000 1.0
C      1  0.3946770000000  0.4498900000000  0.4275480000000 1.0
C      1  0.5419960000000  0.5525820000000  0.4159870000000 1.0
C      1  0.5425760000000  0.4873970000000  0.5253600000000 1.0
C      1  0.5905000000000  0.4593200000000  0.4839540000000 1.0
C      1  0.5265500000000  0.4839350000000  0.5946120000000 1.0
C      1  0.5767840000000  0.4164030000000  0.4988310000000 1.0
C      1  0.5961300000000  0.5004670000000  0.5091140000000 1.0
C      1  0.5688930000000  0.5059720000000  0.5998450000000 1.0
C      1  0.5153400000000  0.5157040000000  0.4424030000000 1.0
C      1  0.4806440000000  0.5822960000000  0.5273440000000 1.0
C      1  0.4972920000000  0.4847250000000  0.5918240000000 1.0
C      1  0.3672370000000  0.4781520000000  0.4636360000000 1.0
C      1  0.4616750000000  0.4811120000000  0.5005860000000 1.0
C      1  0.4292300000000  0.3924130000000  0.5271220000000 1.0
C      1  0.5357900000000  0.5878860000000  0.4518470000000 1.0
C      1  0.5052380000000  0.4488200000000  0.5245490000000 1.0
C      1  0.5672750000000  0.6117540000000  0.5385490000000 1.0
C      1  0.4843700000000  0.4602540000000  0.5821020000000 1.0
C      1  0.4437760000000  0.4156270000000  0.5258590000000 1.0
C      1  0.5797380000000  0.5841870000000  0.4842080000000 1.0
C      1  0.4661830000000  0.5710820000000  0.5056430000000 1.0
C      1  0.3882420000000  0.4704440000000  0.4451140000000 1.0
C      1  0.6003160000000  0.5263940000000  0.5194890000000 1.0
C      1  0.5883710000000  0.5507610000000  0.5188320000000 1.0
C      1  0.4447840000000  0.5999570000000  0.4666090000000 1.0
C      1  0.5801580000000  0.4849270000000  0.5573450000000 1.0
C      1  0.4464640000000  0.5600810000000  0.4356040000000 1.0
C      1  0.5046760000000  0.5196240000000  0.4862320000000 1.0
C      1  0.5263680000000  0.4726550000000  0.4243910000000 1.0
C      1  0.5576910000000  0.4987650000000  0.5467320000000 1.0
C      1  0.4833180000000  0.3948160000000  0.4990110000000 1.0
C      1  0.4710610000000  0.4890230000000  0.5258550000000 1.0
C      1  0.4138200000000  0.4403820000000  0.4114060000000 1.0
C      1  0.3940520000000  0.5153910000000  0.4604480000000 1.0
C      1  0.5337190000000  0.4164960000000  0.4510970000000 1.0
C      1  0.5247300000000  0.5717390000000  0.4299490000000 1.0
C      1  0.4390230000000  0.5737740000000  0.4616090000000 1.0
C      1  0.5612050000000  0.5357870000000  0.4582490000000 1.0
C      1  0.5973790000000  0.4702590000000  0.5135130000000 1.0
C      1  0.4744580000000  0.5675570000000  0.5514790000000 1.0
C      1  0.5285910000000  0.5834710000000  0.5351670000000 1.0
C      1  0.4973880000000  0.5575590000000  0.5680310000000 1.0
END
