TITL C-627108-131-1537 157531.512162369 125000 -985.671428700688 0 0 162 (C1) n - 1
REM
REM in /home/nfs/bkarasulu/CARBON/AIRSS/Generating-Clusters/LCBOP/Only-C1/SD-CG/FIRE-CG
REM
REM
REM
REM
REM
REM ./C.cell (11c1c37f851c82e70ff6c80c92926a4b)
REM AIRSS Version 0.9.1 bugfix July 2018 build 013d7b7c2542+ Fri, 06 Jul 2018 19:26:36 +0100
REM compiler GCC version 9.2.1 20190827 (Red Hat 9.2.1-1)
REM options -cpp -mtune=generic -march=x86-64 -g -O0 -fpre-include=/usr/include/finclude/math-vector-fortran.h
REM seed 2024620171 1275597366 1775362104 -25768271 1425331936 -206604842 662660104 -65547967 529553633 -710374047 -1318154554 946243754 391740157 -1380652613 1117771654 -2084754348 -897574128 252456778 -1354476750 -1344971806 -1034262666 491042763 -1874370079 938726405 474910476 535111313 -227485849 -1277394225 -155252615 -603298603 1625530394 657740395 -1527716402
REM
CELL 1.54180   50.00000   50.00000   50.00000   90.00000   90.00000   90.00000
LATT -1
SFAC C  
C      1  0.4395960000000  0.4114390000000  0.5156140000000 1.0
C      1  0.3757790000000  0.5394080000000  0.5051950000000 1.0
C      1  0.4797460000000  0.5298400000000  0.3687310000000 1.0
C      1  0.5270870000000  0.4934760000000  0.4274630000000 1.0
C      1  0.5929150000000  0.5231110000000  0.4350800000000 1.0
C      1  0.5071020000000  0.6092230000000  0.5430600000000 1.0
C      1  0.5303790000000  0.5652160000000  0.5831660000000 1.0
C      1  0.6328060000000  0.3743020000000  0.6371460000000 1.0
C      1  0.4300820000000  0.5880270000000  0.5447360000000 1.0
C      1  0.5398920000000  0.4230740000000  0.4258470000000 1.0
C      1  0.4560480000000  0.4989920000000  0.4359400000000 1.0
C      1  0.4194850000000  0.5449130000000  0.4746710000000 1.0
C      1  0.5771270000000  0.5804750000000  0.5766410000000 1.0
C      1  0.4625020000000  0.4717690000000  0.6407400000000 1.0
C      1  0.5074080000000  0.4843320000000  0.5636290000000 1.0
C      1  0.4643880000000  0.4317790000000  0.5911110000000 1.0
C      1  0.4346550000000  0.5467490000000  0.5293750000000 1.0
C      1  0.3717520000000  0.5189970000000  0.4867430000000 1.0
C      1  0.5112750000000  0.4142550000000  0.5824060000000 1.0
C      1  0.4828590000000  0.4699880000000  0.5704910000000 1.0
C      1  0.5714160000000  0.4850410000000  0.4529160000000 1.0
C      1  0.4045640000000  0.5117640000000  0.4500670000000 1.0
C      1  0.5317020000000  0.5101480000000  0.4504310000000 1.0
C      1  0.5037450000000  0.4519570000000  0.4762580000000 1.0
C      1  0.5178040000000  0.5341700000000  0.4551440000000 1.0
C      1  0.4820210000000  0.4114290000000  0.5801150000000 1.0
C      1  0.6148450000000  0.4865350000000  0.4660780000000 1.0
C      1  0.4067520000000  0.5397150000000  0.4499520000000 1.0
C      1  0.5236480000000  0.4216100000000  0.5568660000000 1.0
C      1  0.4786200000000  0.4149680000000  0.4170480000000 1.0
C      1  0.4755030000000  0.4586470000000  0.5953060000000 1.0
C      1  0.4788330000000  0.4033700000000  0.5511740000000 1.0
C      1  0.5713520000000  0.5181190000000  0.5409960000000 1.0
C      1  0.5350970000000  0.5002290000000  0.5971770000000 1.0
C      1  0.5008660000000  0.5465640000000  0.5059970000000 1.0
C      1  0.4449520000000  0.5560470000000  0.4729140000000 1.0
C      1  0.5725850000000  0.5284410000000  0.4142910000000 1.0
C      1  0.4317000000000  0.4493950000000  0.4846640000000 1.0
C      1  0.5253220000000  0.4193930000000  0.4497630000000 1.0
C      1  0.4709590000000  0.5084410000000  0.3550180000000 1.0
C      1  0.4204530000000  0.4226590000000  0.5339770000000 1.0
C      1  0.3426440000000  0.4637600000000  0.6865760000000 1.0
C      1  0.5677600000000  0.4572140000000  0.4507540000000 1.0
C      1  0.5726220000000  0.4224120000000  0.6197910000000 1.0
C      1  0.5278330000000  0.6043300000000  0.4035800000000 1.0
C      1  0.5277880000000  0.5461400000000  0.6046810000000 1.0
C      1  0.5611990000000  0.5113580000000  0.6018880000000 1.0
C      1  0.4996440000000  0.4962370000000  0.5168200000000 1.0
C      1  0.4988510000000  0.4052550000000  0.4855720000000 1.0
C      1  0.4808420000000  0.6202090000000  0.4795610000000 1.0
C      1  0.5103070000000  0.5206700000000  0.5987780000000 1.0
C      1  0.4909240000000  0.5899590000000  0.5568860000000 1.0
C      1  0.5013550000000  0.4834170000000  0.4228350000000 1.0
C      1  0.5162980000000  0.4850370000000  0.5356920000000 1.0
C      1  0.5570420000000  0.4481330000000  0.4760130000000 1.0
C      1  0.6109350000000  0.5386000000000  0.4798210000000 1.0
C      1  0.5455700000000  0.5934960000000  0.4831070000000 1.0
C      1  0.5821050000000  0.5023070000000  0.5847900000000 1.0
C      1  0.5564600000000  0.5632150000000  0.5687970000000 1.0
C      1  0.5011320000000  0.4183080000000  0.5391530000000 1.0
C      1  0.5436210000000  0.5850810000000  0.3945370000000 1.0
C      1  0.5284500000000  0.4773350000000  0.5833880000000 1.0
C      1  0.3819400000000  0.4735530000000  0.4573970000000 1.0
C      1  0.5257890000000  0.4262810000000  0.4016070000000 1.0
C      1  0.5553670000000  0.5456090000000  0.4967970000000 1.0
C      1  0.6125810000000  0.3901280000000  0.6326610000000 1.0
C      1  0.5386220000000  0.4539420000000  0.5944710000000 1.0
C      1  0.5563290000000  0.5688430000000  0.4809300000000 1.0
C      1  0.5453580000000  0.5505200000000  0.5234660000000 1.0
C      1  0.5572630000000  0.5040810000000  0.5185770000000 1.0
C      1  0.4766550000000  0.4774940000000  0.6173280000000 1.0
C      1  0.4788450000000  0.4980190000000  0.5009160000000 1.0
C      1  0.5589750000000  0.4603780000000  0.5409690000000 1.0
C      1  0.4543270000000  0.4113240000000  0.4637460000000 1.0
C      1  0.4905410000000  0.4405760000000  0.3738040000000 1.0
C      1  0.4971190000000  0.5180690000000  0.5680330000000 1.0
C      1  0.5535160000000  0.5030170000000  0.4670210000000 1.0
C      1  0.4364370000000  0.4795930000000  0.4800180000000 1.0
C      1  0.4888120000000  0.5357310000000  0.4157700000000 1.0
C      1  0.4635610000000  0.6160490000000  0.5230930000000 1.0
C      1  0.4579480000000  0.5474280000000  0.4496290000000 1.0
C      1  0.4964830000000  0.4243950000000  0.3972150000000 1.0
C      1  0.5569850000000  0.5166970000000  0.4924060000000 1.0
C      1  0.4500550000000  0.4938450000000  0.5473370000000 1.0
C      1  0.4899560000000  0.5032370000000  0.6149100000000 1.0
C      1  0.4747710000000  0.5497890000000  0.5133160000000 1.0
C      1  0.5474150000000  0.4844860000000  0.4102110000000 1.0
C      1  0.4818320000000  0.4826830000000  0.3549040000000 1.0
C      1  0.4694680000000  0.4527840000000  0.5292880000000 1.0
C      1  0.5061050000000  0.5679690000000  0.5674640000000 1.0
C      1  0.5538220000000  0.4656510000000  0.3921800000000 1.0
C      1  0.5541410000000  0.5365850000000  0.6140370000000 1.0
C      1  0.4198240000000  0.4649370000000  0.6707550000000 1.0
C      1  0.4655290000000  0.5170740000000  0.5531210000000 1.0
C      1  0.5300100000000  0.6092700000000  0.5002540000000 1.0
C      1  0.5369540000000  0.4453710000000  0.3825910000000 1.0
C      1  0.3809920000000  0.5015680000000  0.4652300000000 1.0
C      1  0.4148180000000  0.5660660000000  0.5327210000000 1.0
C      1  0.5428580000000  0.4811230000000  0.5284620000000 1.0
C      1  0.5613370000000  0.5449280000000  0.5465420000000 1.0
C      1  0.5068850000000  0.5429170000000  0.5531130000000 1.0
C      1  0.4287140000000  0.4933640000000  0.5289550000000 1.0
C      1  0.4785380000000  0.4799610000000  0.4383540000000 1.0
C      1  0.3896220000000  0.5577220000000  0.5208420000000 1.0
C      1  0.5181910000000  0.5455870000000  0.5274700000000 1.0
C      1  0.4433020000000  0.4519300000000  0.3630070000000 1.0
C      1  0.5543390000000  0.4383460000000  0.6091180000000 1.0
C      1  0.5861700000000  0.4731080000000  0.5406070000000 1.0
C      1  0.5567080000000  0.5629050000000  0.3836970000000 1.0
C      1  0.5760410000000  0.4530730000000  0.4967410000000 1.0
C      1  0.5078180000000  0.5476090000000  0.4329330000000 1.0
C      1  0.5296700000000  0.4416960000000  0.4687350000000 1.0
C      1  0.4987080000000  0.5323110000000  0.3895230000000 1.0
C      1  0.4216020000000  0.4280100000000  0.5605220000000 1.0
C      1  0.4179990000000  0.5236020000000  0.4932600000000 1.0
C      1  0.4917000000000  0.6402410000000  0.4164300000000 1.0
C      1  0.4372460000000  0.4300710000000  0.5824170000000 1.0
C      1  0.5021180000000  0.4040110000000  0.4573910000000 1.0
C      1  0.4576830000000  0.6171320000000  0.4947180000000 1.0
C      1  0.5740030000000  0.5656070000000  0.3626600000000 1.0
C      1  0.6033610000000  0.5421430000000  0.4538070000000 1.0
C      1  0.4591550000000  0.3968840000000  0.5314250000000 1.0
C      1  0.5086350000000  0.5421380000000  0.4799450000000 1.0
C      1  0.4697870000000  0.4578910000000  0.3638500000000 1.0
C      1  0.4601550000000  0.5383410000000  0.5356230000000 1.0
C      1  0.4556950000000  0.5613110000000  0.4977060000000 1.0
C      1  0.5962480000000  0.4963230000000  0.4461450000000 1.0
C      1  0.4575460000000  0.5974200000000  0.5440330000000 1.0
C      1  0.5943910000000  0.4712000000000  0.5112780000000 1.0
C      1  0.5642450000000  0.4379190000000  0.4302430000000 1.0
C      1  0.5322040000000  0.6054400000000  0.5292450000000 1.0
C      1  0.5271720000000  0.5027200000000  0.3649200000000 1.0
C      1  0.5266210000000  0.5242920000000  0.3839690000000 1.0
C      1  0.5110940000000  0.4806940000000  0.3570820000000 1.0
C      1  0.6128630000000  0.5188010000000  0.4985970000000 1.0
C      1  0.6100650000000  0.4902720000000  0.4948960000000 1.0
C      1  0.3979610000000  0.5576000000000  0.4309320000000 1.0
C      1  0.5161020000000  0.4535660000000  0.3651650000000 1.0
C      1  0.5922540000000  0.4062620000000  0.6272690000000 1.0
C      1  0.3685350000000  0.4634890000000  0.6835490000000 1.0
C      1  0.4413420000000  0.4222930000000  0.4877880000000 1.0
C      1  0.4269280000000  0.4893680000000  0.4499580000000 1.0
C      1  0.3903670000000  0.5748080000000  0.4128960000000 1.0
C      1  0.4430030000000  0.4675860000000  0.6581830000000 1.0
C      1  0.4907480000000  0.4369260000000  0.5211620000000 1.0
C      1  0.3946160000000  0.4636940000000  0.6788320000000 1.0
C      1  0.5043100000000  0.6222380000000  0.4963080000000 1.0
C      1  0.4117320000000  0.4444460000000  0.4269730000000 1.0
C      1  0.5466770000000  0.4362930000000  0.5493700000000 1.0
C      1  0.4662450000000  0.4819420000000  0.4825840000000 1.0
C      1  0.4916620000000  0.6241170000000  0.5237950000000 1.0
C      1  0.4764110000000  0.4081450000000  0.4445190000000 1.0
C      1  0.4244650000000  0.4975380000000  0.5014210000000 1.0
C      1  0.5964050000000  0.5963820000000  0.5840110000000 1.0
C      1  0.4834160000000  0.4688450000000  0.4643450000000 1.0
C      1  0.5099000000000  0.6223970000000  0.4109580000000 1.0
C      1  0.5516270000000  0.5368500000000  0.3949040000000 1.0
C      1  0.5854420000000  0.4983580000000  0.5566270000000 1.0
C      1  0.4638910000000  0.4698930000000  0.5501440000000 1.0
C      1  0.4953320000000  0.4318520000000  0.4949120000000 1.0
C      1  0.4650460000000  0.5271960000000  0.4306770000000 1.0
C      1  0.4069470000000  0.4653500000000  0.4433250000000 1.0
END
