TITL C-627107-135-1299 1.04893993637729e-07 125000 -99.9727595136073 0 0 18 (C1) n - 1
REM
REM in /home/nfs/bkarasulu/CARBON/AIRSS/Generating-Clusters/LCBOP/Only-C1/SD-CG/FIRE-CG
REM
REM
REM
REM
REM
REM ./C.cell (11c1c37f851c82e70ff6c80c92926a4b)
REM AIRSS Version 0.9.1 bugfix July 2018 build 013d7b7c2542+ Fri, 06 Jul 2018 19:26:36 +0100
REM compiler GCC version 9.2.1 20190827 (Red Hat 9.2.1-1)
REM options -cpp -mtune=generic -march=x86-64 -g -O0 -fpre-include=/usr/include/finclude/math-vector-fortran.h
REM seed -753302462 1994741760 1110424043 688802452 1005282 -330960440 707809010 1610068301 -1417373138 685138276 169034139 -43241217 859861239 990226817 91743439 425501058 -714035898 -534294253 328300761 2010825822 -1411073317 -792442523 229459082 928799597 1357232741 -2104068619 -1862774787 1670275726 1669142271 -1627825236 1010987891 -1355452030 -1577175446
REM
CELL 1.54180   50.00000   50.00000   50.00000   90.00000   90.00000   90.00000
LATT -1
SFAC C  
C      1  0.4488290000000  0.4659960000000  0.4602640000000 1.0
C      1  0.4291660000000  0.4546030000000  0.4475060000000 1.0
C      1  0.5356860000000  0.4778580000000  0.5241430000000 1.0
C      1  0.5433700000000  0.4937750000000  0.5022370000000 1.0
C      1  0.4697790000000  0.4806740000000  0.5018940000000 1.0
C      1  0.4921550000000  0.4885920000000  0.4604230000000 1.0
C      1  0.5156040000000  0.5009530000000  0.4635510000000 1.0
C      1  0.4836790000000  0.4903750000000  0.5242530000000 1.0
C      1  0.4698150000000  0.4781620000000  0.4739010000000 1.0
C      1  0.4772610000000  0.5160630000000  0.5348380000000 1.0
C      1  0.5310770000000  0.5392280000000  0.4896700000000 1.0
C      1  0.5083960000000  0.4787860000000  0.5309340000000 1.0
C      1  0.5477790000000  0.5576290000000  0.4784380000000 1.0
C      1  0.5112720000000  0.5462430000000  0.5083390000000 1.0
C      1  0.4580570000000  0.5192970000000  0.5539500000000 1.0
C      1  0.4918930000000  0.5377220000000  0.5245260000000 1.0
C      1  0.5326380000000  0.5115080000000  0.4832280000000 1.0
C      1  0.5535440000000  0.4625350000000  0.5379040000000 1.0
END
