TITL C-627109-622-1701 130.472817644943 125000 -1081.33360785452 0 0 176 (C1) n - 1
REM
REM in /home/nfs/bkarasulu/CARBON/AIRSS/Generating-Clusters/LCBOP/Only-C1/SD-CG/FIRE-CG
REM
REM
REM
REM
REM
REM ./C.cell (11c1c37f851c82e70ff6c80c92926a4b)
REM AIRSS Version 0.9.1 bugfix July 2018 build 013d7b7c2542+ Fri, 06 Jul 2018 19:26:36 +0100
REM compiler GCC version 9.2.1 20190827 (Red Hat 9.2.1-1)
REM options -cpp -mtune=generic -march=x86-64 -g -O0 -fpre-include=/usr/include/finclude/math-vector-fortran.h
REM seed 2094653596 1264304912 -2143834606 571083040 270969191 755651511 -2067894187 -1872485690 334097927 -2030569819 -1303831016 912557014 -393367167 -1026958749 -69208782 -1157682632 1439804982 70849112 -1294225940 270610107 -1088133269 -428007349 -1744966198 1378473571 849662675 -1842455713 1099538289 -754956055 -1994648523 -1299850347 791245666 -1417599167 -214772016
REM
CELL 1.54180   50.00000   50.00000   50.00000   90.00000   90.00000   90.00000
LATT -1
SFAC C  
C      1  0.5491380000000  0.3926480000000  0.4589180000000 1.0
C      1  0.5455770000000  0.4573730000000  0.5485950000000 1.0
C      1  0.4431550000000  0.5690060000000  0.4278550000000 1.0
C      1  0.5185250000000  0.5258070000000  0.4884960000000 1.0
C      1  0.5379960000000  0.5960210000000  0.4432000000000 1.0
C      1  0.4174780000000  0.4791700000000  0.5690940000000 1.0
C      1  0.5849240000000  0.4647520000000  0.4165400000000 1.0
C      1  0.4795720000000  0.5904500000000  0.5221480000000 1.0
C      1  0.4799700000000  0.4699680000000  0.6093320000000 1.0
C      1  0.5045090000000  0.5865050000000  0.6023480000000 1.0
C      1  0.4696720000000  0.3752770000000  0.4813860000000 1.0
C      1  0.3923850000000  0.5095040000000  0.5312730000000 1.0
C      1  0.4162100000000  0.4372050000000  0.5469890000000 1.0
C      1  0.4738500000000  0.4633070000000  0.3883400000000 1.0
C      1  0.5589910000000  0.5461190000000  0.5848240000000 1.0
C      1  0.4808680000000  0.5217010000000  0.4596040000000 1.0
C      1  0.4315970000000  0.4939740000000  0.4456360000000 1.0
C      1  0.5020030000000  0.5364130000000  0.4698380000000 1.0
C      1  0.4158610000000  0.5534790000000  0.5214540000000 1.0
C      1  0.5507450000000  0.6225430000000  0.5335400000000 1.0
C      1  0.4947910000000  0.4448020000000  0.6008850000000 1.0
C      1  0.4344580000000  0.5232340000000  0.4481280000000 1.0
C      1  0.5085400000000  0.6009680000000  0.5208470000000 1.0
C      1  0.5479560000000  0.4988190000000  0.6067980000000 1.0
C      1  0.5265060000000  0.4212320000000  0.4242780000000 1.0
C      1  0.4314810000000  0.5415880000000  0.4258140000000 1.0
C      1  0.5226950000000  0.4517960000000  0.6072950000000 1.0
C      1  0.4539790000000  0.4819840000000  0.6044570000000 1.0
C      1  0.4585100000000  0.6075060000000  0.5658760000000 1.0
C      1  0.5375530000000  0.4332380000000  0.4726740000000 1.0
C      1  0.4027620000000  0.5787370000000  0.5212830000000 1.0
C      1  0.5078950000000  0.4730410000000  0.4711710000000 1.0
C      1  0.4611770000000  0.4621030000000  0.5608470000000 1.0
C      1  0.5547800000000  0.5093680000000  0.3868950000000 1.0
C      1  0.3917660000000  0.4736320000000  0.4983930000000 1.0
C      1  0.4370710000000  0.5783560000000  0.4725150000000 1.0
C      1  0.5093920000000  0.4965430000000  0.5553980000000 1.0
C      1  0.5523200000000  0.5098320000000  0.5337620000000 1.0
C      1  0.5565440000000  0.5226330000000  0.5976530000000 1.0
C      1  0.5853140000000  0.4364500000000  0.4543760000000 1.0
C      1  0.4953800000000  0.5609130000000  0.5935850000000 1.0
C      1  0.5702390000000  0.5123040000000  0.4116440000000 1.0
C      1  0.5952110000000  0.4840320000000  0.5258230000000 1.0
C      1  0.5725780000000  0.4426090000000  0.4292310000000 1.0
C      1  0.4833980000000  0.6044550000000  0.4511400000000 1.0
C      1  0.6078640000000  0.5427160000000  0.4757480000000 1.0
C      1  0.3751110000000  0.5363670000000  0.4666150000000 1.0
C      1  0.4893740000000  0.5914190000000  0.4254970000000 1.0
C      1  0.4989710000000  0.3903840000000  0.4460540000000 1.0
C      1  0.4729830000000  0.5425240000000  0.4058920000000 1.0
C      1  0.5003530000000  0.4911180000000  0.6109470000000 1.0
C      1  0.4809910000000  0.4101650000000  0.4320560000000 1.0
C      1  0.5438190000000  0.4431220000000  0.4279920000000 1.0
C      1  0.5273090000000  0.3978650000000  0.4412330000000 1.0
C      1  0.4941440000000  0.4615360000000  0.5180440000000 1.0
C      1  0.4551210000000  0.4773680000000  0.4499790000000 1.0
C      1  0.4747630000000  0.4684880000000  0.4324480000000 1.0
C      1  0.4364460000000  0.5907120000000  0.5743690000000 1.0
C      1  0.5826590000000  0.5902050000000  0.4643640000000 1.0
C      1  0.5632860000000  0.4721460000000  0.4746990000000 1.0
C      1  0.5099010000000  0.5568170000000  0.4535850000000 1.0
C      1  0.4873150000000  0.5090710000000  0.5684790000000 1.0
C      1  0.5189260000000  0.3917110000000  0.5689490000000 1.0
C      1  0.5150190000000  0.5426610000000  0.5458490000000 1.0
C      1  0.5976900000000  0.5673850000000  0.4685820000000 1.0
C      1  0.5288750000000  0.5942260000000  0.5902910000000 1.0
C      1  0.5588410000000  0.5665710000000  0.5650390000000 1.0
C      1  0.5584370000000  0.6070080000000  0.4615750000000 1.0
C      1  0.5503020000000  0.4785910000000  0.4989420000000 1.0
C      1  0.4092060000000  0.4747380000000  0.4474200000000 1.0
C      1  0.4437810000000  0.5547680000000  0.5290500000000 1.0
C      1  0.5797060000000  0.4901590000000  0.4273020000000 1.0
C      1  0.5096030000000  0.5081980000000  0.5086710000000 1.0
C      1  0.4489780000000  0.3999250000000  0.5411670000000 1.0
C      1  0.6118010000000  0.4462720000000  0.4579980000000 1.0
C      1  0.5485980000000  0.5259960000000  0.4857260000000 1.0
C      1  0.4901920000000  0.5208730000000  0.4118850000000 1.0
C      1  0.4866490000000  0.6077440000000  0.6063620000000 1.0
C      1  0.5544910000000  0.5047800000000  0.5056110000000 1.0
C      1  0.3892330000000  0.5313690000000  0.4879540000000 1.0
C      1  0.5138700000000  0.4453210000000  0.4708220000000 1.0
C      1  0.3939490000000  0.4756150000000  0.4716240000000 1.0
C      1  0.4440480000000  0.4776790000000  0.5781300000000 1.0
C      1  0.4726700000000  0.6195480000000  0.5866410000000 1.0
C      1  0.5922130000000  0.4552680000000  0.5185880000000 1.0
C      1  0.5395480000000  0.5880900000000  0.5649130000000 1.0
C      1  0.4131350000000  0.4475280000000  0.4358050000000 1.0
C      1  0.5221570000000  0.5152460000000  0.5363090000000 1.0
C      1  0.4007900000000  0.5304780000000  0.5135390000000 1.0
C      1  0.5143320000000  0.3595510000000  0.4821050000000 1.0
C      1  0.4875760000000  0.4532690000000  0.4118970000000 1.0
C      1  0.5125940000000  0.4854120000000  0.4442650000000 1.0
C      1  0.4464960000000  0.4526460000000  0.3943700000000 1.0
C      1  0.5752310000000  0.3916130000000  0.5317200000000 1.0
C      1  0.4991080000000  0.4279120000000  0.4173110000000 1.0
C      1  0.4936680000000  0.3722510000000  0.4675160000000 1.0
C      1  0.4205470000000  0.5979630000000  0.4676300000000 1.0
C      1  0.5400140000000  0.5725290000000  0.4863420000000 1.0
C      1  0.5351630000000  0.5413070000000  0.4131330000000 1.0
C      1  0.5223370000000  0.5799760000000  0.4640390000000 1.0
C      1  0.4478080000000  0.5064750000000  0.6182930000000 1.0
C      1  0.4523690000000  0.4601000000000  0.4723360000000 1.0
C      1  0.6145120000000  0.5153250000000  0.4834590000000 1.0
C      1  0.6248700000000  0.4698190000000  0.4597970000000 1.0
C      1  0.5698870000000  0.4346330000000  0.5071610000000 1.0
C      1  0.5310130000000  0.6029840000000  0.5412590000000 1.0
C      1  0.5369150000000  0.3666630000000  0.4951450000000 1.0
C      1  0.5592280000000  0.6292160000000  0.5087090000000 1.0
C      1  0.4448140000000  0.4723090000000  0.4959990000000 1.0
C      1  0.4712750000000  0.5700580000000  0.4176180000000 1.0
C      1  0.4409170000000  0.4132910000000  0.4820020000000 1.0
C      1  0.4553080000000  0.5326340000000  0.4667220000000 1.0
C      1  0.4532000000000  0.5078190000000  0.5316010000000 1.0
C      1  0.4954970000000  0.4153280000000  0.5318400000000 1.0
C      1  0.5031430000000  0.5554960000000  0.5662960000000 1.0
C      1  0.5296470000000  0.4688600000000  0.4243470000000 1.0
C      1  0.4515530000000  0.5462590000000  0.5554310000000 1.0
C      1  0.5750020000000  0.4205850000000  0.5697920000000 1.0
C      1  0.5575700000000  0.5190760000000  0.4575760000000 1.0
C      1  0.4610350000000  0.6082280000000  0.5371190000000 1.0
C      1  0.5436340000000  0.4507220000000  0.5190950000000 1.0
C      1  0.4425190000000  0.5631380000000  0.5760340000000 1.0
C      1  0.4536130000000  0.4326320000000  0.4656900000000 1.0
C      1  0.5681620000000  0.3955970000000  0.5586450000000 1.0
C      1  0.4072410000000  0.4646480000000  0.5465500000000 1.0
C      1  0.4564140000000  0.4242580000000  0.4377900000000 1.0
C      1  0.4591550000000  0.5314380000000  0.6201830000000 1.0
C      1  0.4698200000000  0.4029630000000  0.5217490000000 1.0
C      1  0.4031800000000  0.4259470000000  0.4526670000000 1.0
C      1  0.5448580000000  0.6196270000000  0.4861670000000 1.0
C      1  0.4877820000000  0.4871780000000  0.3780090000000 1.0
C      1  0.5693240000000  0.4920000000000  0.4548810000000 1.0
C      1  0.5162130000000  0.6126450000000  0.4941110000000 1.0
C      1  0.5663120000000  0.4418730000000  0.4765540000000 1.0
C      1  0.5489050000000  0.4830430000000  0.3791570000000 1.0
C      1  0.5567410000000  0.5525360000000  0.4956680000000 1.0
C      1  0.5033280000000  0.5100760000000  0.3887730000000 1.0
C      1  0.4638180000000  0.5659450000000  0.5103850000000 1.0
C      1  0.5272200000000  0.4803890000000  0.6112320000000 1.0
C      1  0.5296100000000  0.5243000000000  0.3894810000000 1.0
C      1  0.3963910000000  0.4813260000000  0.5252820000000 1.0
C      1  0.6250050000000  0.4962880000000  0.4650190000000 1.0
C      1  0.5556400000000  0.5307090000000  0.4307280000000 1.0
C      1  0.5444860000000  0.3839600000000  0.5683090000000 1.0
C      1  0.5540640000000  0.3879360000000  0.4869950000000 1.0
C      1  0.5185800000000  0.5964210000000  0.4210270000000 1.0
C      1  0.5020400000000  0.6008650000000  0.4722100000000 1.0
C      1  0.4356340000000  0.6143930000000  0.5248100000000 1.0
C      1  0.4371760000000  0.4396740000000  0.4197620000000 1.0
C      1  0.5644920000000  0.4447560000000  0.5650070000000 1.0
C      1  0.4545800000000  0.5583130000000  0.4828060000000 1.0
C      1  0.5097220000000  0.4381060000000  0.5200130000000 1.0
C      1  0.3780700000000  0.5164720000000  0.5537070000000 1.0
C      1  0.5753240000000  0.5635890000000  0.5426570000000 1.0
C      1  0.4709090000000  0.4663860000000  0.5341820000000 1.0
C      1  0.6086660000000  0.5028470000000  0.5086410000000 1.0
C      1  0.4935330000000  0.5077150000000  0.4372300000000 1.0
C      1  0.4388790000000  0.4214460000000  0.5558500000000 1.0
C      1  0.5678950000000  0.4039730000000  0.5072900000000 1.0
C      1  0.4136120000000  0.4115940000000  0.4736760000000 1.0
C      1  0.4835420000000  0.5386150000000  0.6068520000000 1.0
C      1  0.4853420000000  0.4271410000000  0.5797400000000 1.0
C      1  0.4931200000000  0.5138990000000  0.5960330000000 1.0
C      1  0.4454250000000  0.5327340000000  0.4017900000000 1.0
C      1  0.5312830000000  0.4710810000000  0.3956880000000 1.0
C      1  0.5740930000000  0.5572630000000  0.5168940000000 1.0
C      1  0.5762360000000  0.4972220000000  0.5439570000000 1.0
C      1  0.4117510000000  0.5993520000000  0.5631610000000 1.0
C      1  0.4115500000000  0.6019530000000  0.5346080000000 1.0
C      1  0.5244080000000  0.4731170000000  0.5589450000000 1.0
C      1  0.4602640000000  0.4352120000000  0.5688890000000 1.0
C      1  0.5017990000000  0.4821580000000  0.4987250000000 1.0
C      1  0.5004360000000  0.4110890000000  0.5608510000000 1.0
C      1  0.4594370000000  0.3968270000000  0.4958210000000 1.0
C      1  0.4643880000000  0.5207690000000  0.5544660000000 1.0
C      1  0.4533190000000  0.4830890000000  0.5198000000000 1.0
END
