TITL C-627110-360-1808 0.00182374905170989 125000 -969.823704553447 0 0 157 (C1) n - 1
REM
REM in /home/nfs/bkarasulu/CARBON/AIRSS/Generating-Clusters/LCBOP/Only-C1/SD-CG/FIRE-CG
REM
REM
REM
REM
REM
REM ./C.cell (11c1c37f851c82e70ff6c80c92926a4b)
REM AIRSS Version 0.9.1 bugfix July 2018 build 013d7b7c2542+ Fri, 06 Jul 2018 19:26:36 +0100
REM compiler GCC version 9.2.1 20190827 (Red Hat 9.2.1-1)
REM options -cpp -mtune=generic -march=x86-64 -g -O0 -fpre-include=/usr/include/finclude/math-vector-fortran.h
REM seed 1243909810 152056140 525430574 -8917704 1308422342 1127923857 577661978 -1843320863 -929704783 -1725499011 1786021970 -791284764 1327162993 998204153 1290043240 -157563954 1046225478 -2138918565 1844394993 1170737213 2057289712 -1023192818 82334386 -345058471 1369091851 231966035 -720118747 -1458901609 1215881791 1171490291 1743110958 -1229815177 -2003802602
REM
CELL 1.54180   50.00000   50.00000   50.00000   90.00000   90.00000   90.00000
LATT -1
SFAC C  
C      1  0.4136010000000  0.4416240000000  0.4645160000000 1.0
C      1  0.5742020000000  0.4436900000000  0.5081840000000 1.0
C      1  0.4908580000000  0.5086020000000  0.3961860000000 1.0
C      1  0.4914050000000  0.3761340000000  0.4671190000000 1.0
C      1  0.4822190000000  0.4342350000000  0.5400850000000 1.0
C      1  0.4428900000000  0.4964580000000  0.4150590000000 1.0
C      1  0.4254880000000  0.4892860000000  0.5274360000000 1.0
C      1  0.5746910000000  0.5316060000000  0.4397730000000 1.0
C      1  0.4264320000000  0.5616780000000  0.5065500000000 1.0
C      1  0.5753630000000  0.4450660000000  0.5368260000000 1.0
C      1  0.5321170000000  0.4177350000000  0.5442220000000 1.0
C      1  0.4411660000000  0.5259880000000  0.4785930000000 1.0
C      1  0.5880600000000  0.4931570000000  0.4645940000000 1.0
C      1  0.4917220000000  0.5521930000000  0.4459050000000 1.0
C      1  0.5781540000000  0.5641080000000  0.5229810000000 1.0
C      1  0.5178250000000  0.5894870000000  0.5291840000000 1.0
C      1  0.4386500000000  0.5248440000000  0.4109230000000 1.0
C      1  0.5358910000000  0.5271740000000  0.5036240000000 1.0
C      1  0.4420410000000  0.5418250000000  0.5229850000000 1.0
C      1  0.5521760000000  0.5140200000000  0.5230940000000 1.0
C      1  0.4124710000000  0.4598870000000  0.4423520000000 1.0
C      1  0.4576830000000  0.4442750000000  0.4705300000000 1.0
C      1  0.4585780000000  0.3826030000000  0.5005610000000 1.0
C      1  0.5844330000000  0.5305860000000  0.5649170000000 1.0
C      1  0.5247920000000  0.4690700000000  0.5325990000000 1.0
C      1  0.5869880000000  0.5054720000000  0.4393230000000 1.0
C      1  0.4949070000000  0.5990090000000  0.5713740000000 1.0
C      1  0.5471570000000  0.4029680000000  0.4306060000000 1.0
C      1  0.5024960000000  0.4214410000000  0.4183170000000 1.0
C      1  0.5083750000000  0.4290030000000  0.5562570000000 1.0
C      1  0.4435380000000  0.4615800000000  0.5849800000000 1.0
C      1  0.4369300000000  0.5628040000000  0.5729160000000 1.0
C      1  0.6166770000000  0.4594590000000  0.4743730000000 1.0
C      1  0.5274080000000  0.5024530000000  0.4619850000000 1.0
C      1  0.5182500000000  0.5937950000000  0.5570000000000 1.0
C      1  0.5503380000000  0.4035470000000  0.5011810000000 1.0
C      1  0.5046620000000  0.4911070000000  0.6949900000000 1.0
C      1  0.5574680000000  0.6066610000000  0.5031890000000 1.0
C      1  0.5142360000000  0.5779600000000  0.4789020000000 1.0
C      1  0.4654420000000  0.5735320000000  0.4797370000000 1.0
C      1  0.4745180000000  0.4613640000000  0.5500870000000 1.0
C      1  0.4294840000000  0.5109530000000  0.5856620000000 1.0
C      1  0.5777510000000  0.5559080000000  0.5510650000000 1.0
C      1  0.4377440000000  0.5574430000000  0.4769310000000 1.0
C      1  0.4703750000000  0.5770890000000  0.5071240000000 1.0
C      1  0.4561990000000  0.4006310000000  0.4265650000000 1.0
C      1  0.5123990000000  0.5833020000000  0.4042390000000 1.0
C      1  0.5297560000000  0.4615270000000  0.4343510000000 1.0
C      1  0.4735660000000  0.4831460000000  0.5324720000000 1.0
C      1  0.3921050000000  0.5283160000000  0.4384750000000 1.0
C      1  0.6024920000000  0.4962310000000  0.5083060000000 1.0
C      1  0.5001650000000  0.4407330000000  0.4878300000000 1.0
C      1  0.4759910000000  0.3900290000000  0.5231570000000 1.0
C      1  0.5614950000000  0.5406430000000  0.4639700000000 1.0
C      1  0.5783400000000  0.4731890000000  0.5444250000000 1.0
C      1  0.5425350000000  0.5178280000000  0.5505950000000 1.0
C      1  0.4843700000000  0.6358460000000  0.5156560000000 1.0
C      1  0.4069480000000  0.5061150000000  0.4481060000000 1.0
C      1  0.5605850000000  0.5676510000000  0.4739260000000 1.0
C      1  0.5066520000000  0.4496630000000  0.4221830000000 1.0
C      1  0.4713100000000  0.4898230000000  0.4085230000000 1.0
C      1  0.5551690000000  0.4333380000000  0.5537280000000 1.0
C      1  0.4440770000000  0.6000500000000  0.5375410000000 1.0
C      1  0.4641940000000  0.6186150000000  0.5273260000000 1.0
C      1  0.4379640000000  0.4332770000000  0.5845510000000 1.0
C      1  0.4693030000000  0.6876740000000  0.5101410000000 1.0
C      1  0.5047730000000  0.3866780000000  0.5154310000000 1.0
C      1  0.4900750000000  0.5719530000000  0.4654870000000 1.0
C      1  0.4980630000000  0.4672010000000  0.6199200000000 1.0
C      1  0.4508600000000  0.4129870000000  0.5711010000000 1.0
C      1  0.4376200000000  0.4256140000000  0.4627890000000 1.0
C      1  0.5634010000000  0.5102110000000  0.5688310000000 1.0
C      1  0.5154870000000  0.5107090000000  0.5565710000000 1.0
C      1  0.5451490000000  0.5041270000000  0.3920230000000 1.0
C      1  0.5257390000000  0.5998130000000  0.4208530000000 1.0
C      1  0.5668250000000  0.5425190000000  0.4150030000000 1.0
C      1  0.4708930000000  0.4836710000000  0.5038750000000 1.0
C      1  0.5367130000000  0.6274450000000  0.4639030000000 1.0
C      1  0.3799550000000  0.4556920000000  0.5019500000000 1.0
C      1  0.5169920000000  0.4473000000000  0.5786110000000 1.0
C      1  0.4417110000000  0.5146390000000  0.5318360000000 1.0
C      1  0.4910910000000  0.5228420000000  0.5495360000000 1.0
C      1  0.4346720000000  0.4143770000000  0.5271220000000 1.0
C      1  0.4955150000000  0.4598260000000  0.5932550000000 1.0
C      1  0.4252500000000  0.5873440000000  0.5195610000000 1.0
C      1  0.5003040000000  0.4751550000000  0.6450820000000 1.0
C      1  0.5705480000000  0.4214010000000  0.4911910000000 1.0
C      1  0.4839220000000  0.4660340000000  0.4171870000000 1.0
C      1  0.5618660000000  0.4701190000000  0.4989640000000 1.0
C      1  0.4262240000000  0.4837650000000  0.5767220000000 1.0
C      1  0.4014280000000  0.5538840000000  0.4409770000000 1.0
C      1  0.5854100000000  0.4835790000000  0.4196790000000 1.0
C      1  0.4930350000000  0.5420270000000  0.5298220000000 1.0
C      1  0.4072320000000  0.4468960000000  0.4945150000000 1.0
C      1  0.5650160000000  0.5749200000000  0.5677980000000 1.0
C      1  0.4761900000000  0.4120690000000  0.4124570000000 1.0
C      1  0.5692520000000  0.4085710000000  0.4442630000000 1.0
C      1  0.4843820000000  0.4366000000000  0.4648670000000 1.0
C      1  0.5060050000000  0.4892560000000  0.4747970000000 1.0
C      1  0.5294670000000  0.4012330000000  0.5211920000000 1.0
C      1  0.5953390000000  0.4582720000000  0.4301460000000 1.0
C      1  0.5336480000000  0.4673770000000  0.5067690000000 1.0
C      1  0.3849110000000  0.4727810000000  0.5480770000000 1.0
C      1  0.4324260000000  0.5377170000000  0.5821600000000 1.0
C      1  0.5377520000000  0.5816510000000  0.4633590000000 1.0
C      1  0.5144730000000  0.4646720000000  0.4872250000000 1.0
C      1  0.4285180000000  0.4666630000000  0.5066230000000 1.0
C      1  0.4765440000000  0.6627780000000  0.5127800000000 1.0
C      1  0.6090600000000  0.4861850000000  0.4824230000000 1.0
C      1  0.5657430000000  0.4858320000000  0.3992680000000 1.0
C      1  0.4148430000000  0.4220280000000  0.5108610000000 1.0
C      1  0.4674660000000  0.5077470000000  0.5444640000000 1.0
C      1  0.3715930000000  0.4643900000000  0.5261850000000 1.0
C      1  0.5647310000000  0.4777020000000  0.4702090000000 1.0
C      1  0.5157400000000  0.5453600000000  0.5132470000000 1.0
C      1  0.4661260000000  0.5175430000000  0.4679430000000 1.0
C      1  0.5194030000000  0.4012860000000  0.4293230000000 1.0
C      1  0.4615550000000  0.6114260000000  0.6039170000000 1.0
C      1  0.4207100000000  0.4854720000000  0.4326060000000 1.0
C      1  0.4639530000000  0.3841550000000  0.4724320000000 1.0
C      1  0.6347610000000  0.5206500000000  0.5817110000000 1.0
C      1  0.4686970000000  0.5545730000000  0.5237490000000 1.0
C      1  0.5686200000000  0.5793460000000  0.5000160000000 1.0
C      1  0.4114650000000  0.4812390000000  0.5518920000000 1.0
C      1  0.4482170000000  0.5875500000000  0.5637210000000 1.0
C      1  0.4571550000000  0.4574890000000  0.4981230000000 1.0
C      1  0.4809400000000  0.4392900000000  0.5102220000000 1.0
C      1  0.5409670000000  0.5237280000000  0.4755240000000 1.0
C      1  0.5063320000000  0.3715440000000  0.4909680000000 1.0
C      1  0.5059920000000  0.3811610000000  0.4438570000000 1.0
C      1  0.5362570000000  0.6243690000000  0.4928500000000 1.0
C      1  0.5642210000000  0.4802370000000  0.5697240000000 1.0
C      1  0.4616900000000  0.4108170000000  0.5424920000000 1.0
C      1  0.5361960000000  0.6046060000000  0.4465930000000 1.0
C      1  0.4990740000000  0.5617780000000  0.3950610000000 1.0
C      1  0.5429530000000  0.4799480000000  0.4516320000000 1.0
C      1  0.6003890000000  0.4444270000000  0.4555000000000 1.0
C      1  0.4889600000000  0.5368570000000  0.3931110000000 1.0
C      1  0.5025010000000  0.4831960000000  0.6702430000000 1.0
C      1  0.4485170000000  0.4006150000000  0.4539590000000 1.0
C      1  0.5112420000000  0.6300510000000  0.5064400000000 1.0
C      1  0.5173730000000  0.4988560000000  0.3905640000000 1.0
C      1  0.5178540000000  0.5727820000000  0.5065160000000 1.0
C      1  0.5425440000000  0.5890420000000  0.5700860000000 1.0
C      1  0.4474090000000  0.5429030000000  0.4308340000000 1.0
C      1  0.5532050000000  0.5312190000000  0.3946930000000 1.0
C      1  0.6104380000000  0.5260360000000  0.5740680000000 1.0
C      1  0.5744760000000  0.4916320000000  0.5194700000000 1.0
C      1  0.4714270000000  0.4643840000000  0.5782000000000 1.0
C      1  0.4683150000000  0.5995340000000  0.5802420000000 1.0
C      1  0.4809190000000  0.4984470000000  0.4821190000000 1.0
C      1  0.4712720000000  0.5334980000000  0.4445670000000 1.0
C      1  0.5153090000000  0.4831020000000  0.5528680000000 1.0
C      1  0.5463800000000  0.4546110000000  0.5746030000000 1.0
C      1  0.5819880000000  0.4234480000000  0.4644600000000 1.0
C      1  0.4182600000000  0.5104040000000  0.4738130000000 1.0
C      1  0.4288120000000  0.5586280000000  0.4474580000000 1.0
END
