TITL C-627109-622-1659 1.67570193177119 125000 -150.439976062277 0 0 27 (C1) n - 1
REM
REM in /home/nfs/bkarasulu/CARBON/AIRSS/Generating-Clusters/LCBOP/Only-C1/SD-CG/FIRE-CG
REM
REM
REM
REM
REM
REM ./C.cell (11c1c37f851c82e70ff6c80c92926a4b)
REM AIRSS Version 0.9.1 bugfix July 2018 build 013d7b7c2542+ Fri, 06 Jul 2018 19:26:36 +0100
REM compiler GCC version 9.2.1 20190827 (Red Hat 9.2.1-1)
REM options -cpp -mtune=generic -march=x86-64 -g -O0 -fpre-include=/usr/include/finclude/math-vector-fortran.h
REM seed -74322146 1999735921 -736613561 1959085336 776954684 -205274950 1283864479 871121101 475321381 -479479131 -1702506858 -1152202302 -1850908944 -935503044 1662252072 -73239011 1625972194 1206229783 -992197491 125704715 1151146411 2061676862 1132576684 -1067018211 -1805120078 1697618768 69622369 950175216 -217967273 280446209 -1794357380 -817838719 280891972
REM
CELL 1.54180   50.00000   50.00000   50.00000   90.00000   90.00000   90.00000
LATT -1
SFAC C  
C      1  0.4817530000000  0.3975730000000  0.4472980000000 1.0
C      1  0.4905820000000  0.4178100000000  0.4619520000000 1.0
C      1  0.4091320000000  0.5382700000000  0.5653280000000 1.0
C      1  0.5306740000000  0.5473250000000  0.5007010000000 1.0
C      1  0.5701090000000  0.5216520000000  0.4763690000000 1.0
C      1  0.4729220000000  0.3773300000000  0.4326400000000 1.0
C      1  0.4917010000000  0.4805460000000  0.4983920000000 1.0
C      1  0.4696090000000  0.5279150000000  0.5126190000000 1.0
C      1  0.5506900000000  0.5343820000000  0.4891520000000 1.0
C      1  0.5598520000000  0.4613200000000  0.5105390000000 1.0
C      1  0.4821230000000  0.5509900000000  0.5017700000000 1.0
C      1  0.5095120000000  0.5780670000000  0.5316460000000 1.0
C      1  0.4695500000000  0.5656630000000  0.4816250000000 1.0
C      1  0.5890000000000  0.5090790000000  0.4635370000000 1.0
C      1  0.4642360000000  0.3574210000000  0.4182240000000 1.0
C      1  0.6089620000000  0.4690390000000  0.5276120000000 1.0
C      1  0.3897680000000  0.5420610000000  0.5823660000000 1.0
C      1  0.4994110000000  0.4380360000000  0.4766000000000 1.0
C      1  0.4288210000000  0.5344170000000  0.5480060000000 1.0
C      1  0.5845740000000  0.4647540000000  0.5194590000000 1.0
C      1  0.5076360000000  0.5589020000000  0.5114300000000 1.0
C      1  0.5087450000000  0.4593500000000  0.4920420000000 1.0
C      1  0.5105340000000  0.5958760000000  0.5506450000000 1.0
C      1  0.4786820000000  0.5025580000000  0.5052440000000 1.0
C      1  0.4577230000000  0.5794310000000  0.4629250000000 1.0
C      1  0.4485490000000  0.5307160000000  0.5307240000000 1.0
C      1  0.5351490000000  0.4595180000000  0.5011550000000 1.0
END
