TITL C-627107-135-1344 -9.4257000812791e-07 125000 -370.330357746505 0 0 62 (C1) n - 1
REM
REM in /home/nfs/bkarasulu/CARBON/AIRSS/Generating-Clusters/LCBOP/Only-C1/SD-CG/FIRE-CG
REM
REM
REM
REM
REM
REM ./C.cell (11c1c37f851c82e70ff6c80c92926a4b)
REM AIRSS Version 0.9.1 bugfix July 2018 build 013d7b7c2542+ Fri, 06 Jul 2018 19:26:36 +0100
REM compiler GCC version 9.2.1 20190827 (Red Hat 9.2.1-1)
REM options -cpp -mtune=generic -march=x86-64 -g -O0 -fpre-include=/usr/include/finclude/math-vector-fortran.h
REM seed -1358225530 -697274118 -496417389 953643709 -2118267802 -730367237 1062583208 -1005546957 -1425780210 -7055 1732934320 1582373190 -921288459 -1595972307 -77472876 708960650 -965028291 472149588 -1773656960 -349162466 1228154709 -1413350772 390635359 -43500304 1483663866 2087970814 -806626889 -682215078 -2004158551 -341356429 2052572380 367142818 108406774
REM
CELL 1.54180   50.00000   50.00000   50.00000   90.00000   90.00000   90.00000
LATT -1
SFAC C  
C      1  0.4987380000000  0.4217730000000  0.5323780000000 1.0
C      1  0.4401900000000  0.4864090000000  0.4485340000000 1.0
C      1  0.4480500000000  0.5167170000000  0.4481160000000 1.0
C      1  0.4860950000000  0.4935420000000  0.5919350000000 1.0
C      1  0.5619620000000  0.4505140000000  0.4948320000000 1.0
C      1  0.5004070000000  0.5208060000000  0.4956950000000 1.0
C      1  0.4640350000000  0.4977670000000  0.5751620000000 1.0
C      1  0.5180380000000  0.4773310000000  0.4970340000000 1.0
C      1  0.5427550000000  0.4308910000000  0.5034050000000 1.0
C      1  0.5869730000000  0.5181510000000  0.5048040000000 1.0
C      1  0.5363490000000  0.5090460000000  0.4675640000000 1.0
C      1  0.5019640000000  0.5720960000000  0.5285420000000 1.0
C      1  0.5611670000000  0.5635120000000  0.4995890000000 1.0
C      1  0.5665250000000  0.4573950000000  0.4669530000000 1.0
C      1  0.5505590000000  0.5238090000000  0.4462280000000 1.0
C      1  0.4504580000000  0.4768260000000  0.5597810000000 1.0
C      1  0.4597950000000  0.4923760000000  0.5000410000000 1.0
C      1  0.4807810000000  0.5003740000000  0.4817800000000 1.0
C      1  0.4348610000000  0.5019440000000  0.4896610000000 1.0
C      1  0.5719580000000  0.4684020000000  0.5154860000000 1.0
C      1  0.4761570000000  0.5497050000000  0.4701410000000 1.0
C      1  0.5152830000000  0.4690620000000  0.5435510000000 1.0
C      1  0.5392730000000  0.4715510000000  0.5577780000000 1.0
C      1  0.5111430000000  0.4684980000000  0.4699180000000 1.0
C      1  0.4779700000000  0.4317280000000  0.5467950000000 1.0
C      1  0.4738970000000  0.4647910000000  0.4191080000000 1.0
C      1  0.4365560000000  0.5262420000000  0.4745040000000 1.0
C      1  0.4610840000000  0.4504300000000  0.5569510000000 1.0
C      1  0.5286000000000  0.4830050000000  0.4501230000000 1.0
C      1  0.4325060000000  0.4899220000000  0.5393920000000 1.0
C      1  0.4529480000000  0.5447960000000  0.4888620000000 1.0
C      1  0.4736940000000  0.4743190000000  0.5169800000000 1.0
C      1  0.4842290000000  0.4766280000000  0.4644300000000 1.0
C      1  0.5684680000000  0.5015870000000  0.4369040000000 1.0
C      1  0.4237970000000  0.4806630000000  0.4733730000000 1.0
C      1  0.5402800000000  0.6048110000000  0.4861150000000 1.0
C      1  0.5211880000000  0.4217420000000  0.5171020000000 1.0
C      1  0.4121870000000  0.4650700000000  0.4948590000000 1.0
C      1  0.4640680000000  0.4705980000000  0.4449090000000 1.0
C      1  0.4579650000000  0.5237120000000  0.5637440000000 1.0
C      1  0.4571780000000  0.5347240000000  0.5169970000000 1.0
C      1  0.4164210000000  0.4735950000000  0.5212710000000 1.0
C      1  0.5129100000000  0.5683330000000  0.5024080000000 1.0
C      1  0.5018910000000  0.4714710000000  0.5195450000000 1.0
C      1  0.5383000000000  0.5793640000000  0.4959100000000 1.0
C      1  0.5282380000000  0.5375670000000  0.4331510000000 1.0
C      1  0.4755200000000  0.5314040000000  0.4451980000000 1.0
C      1  0.5577340000000  0.4747060000000  0.4455440000000 1.0
C      1  0.4423660000000  0.5195850000000  0.5384000000000 1.0
C      1  0.5778620000000  0.5430310000000  0.5024470000000 1.0
C      1  0.4891730000000  0.5645350000000  0.5510910000000 1.0
C      1  0.5009920000000  0.5491670000000  0.4847630000000 1.0
C      1  0.4850550000000  0.5261360000000  0.5207230000000 1.0
C      1  0.5254890000000  0.5056020000000  0.4930850000000 1.0
C      1  0.5020520000000  0.5234260000000  0.4324910000000 1.0
C      1  0.5104760000000  0.4950960000000  0.4277720000000 1.0
C      1  0.5623900000000  0.4671160000000  0.5422940000000 1.0
C      1  0.4962090000000  0.4776710000000  0.4106390000000 1.0
C      1  0.5351520000000  0.4808710000000  0.5840130000000 1.0
C      1  0.5122170000000  0.4888700000000  0.5957860000000 1.0
C      1  0.4736430000000  0.5473960000000  0.5651370000000 1.0
C      1  0.5857800000000  0.4917910000000  0.5082790000000 1.0
END
