TITL C-627108-131-1653 0.0279835711328437 125000 -1078.6092676184 0 0 176 (C1) n - 1
REM
REM in /home/nfs/bkarasulu/CARBON/AIRSS/Generating-Clusters/LCBOP/Only-C1/SD-CG/FIRE-CG
REM
REM
REM
REM
REM
REM ./C.cell (11c1c37f851c82e70ff6c80c92926a4b)
REM AIRSS Version 0.9.1 bugfix July 2018 build 013d7b7c2542+ Fri, 06 Jul 2018 19:26:36 +0100
REM compiler GCC version 9.2.1 20190827 (Red Hat 9.2.1-1)
REM options -cpp -mtune=generic -march=x86-64 -g -O0 -fpre-include=/usr/include/finclude/math-vector-fortran.h
REM seed -986326330 -2020223524 1196830398 -1169568239 -1320525237 -863446486 -60262305 -1337189416 -1496430067 227945320 1366278303 1548421440 -1709613446 -773727181 -1862603460 -1951220197 1855790003 -203359141 1228433781 1218110253 1573248099 -497613379 -1797050959 -923646051 986458771 153336962 891926103 1224772669 371053789 -676870697 -405447660 742927463 -1214567449
REM
CELL 1.54180   50.00000   50.00000   50.00000   90.00000   90.00000   90.00000
LATT -1
SFAC C  
C      1  0.4306550000000  0.5462670000000  0.4090690000000 1.0
C      1  0.5747940000000  0.4861140000000  0.5766480000000 1.0
C      1  0.6036240000000  0.5305630000000  0.5404540000000 1.0
C      1  0.5227430000000  0.5936760000000  0.4454610000000 1.0
C      1  0.5074250000000  0.5859460000000  0.5708160000000 1.0
C      1  0.5449840000000  0.3993070000000  0.4570480000000 1.0
C      1  0.4911140000000  0.4631640000000  0.6196630000000 1.0
C      1  0.4762830000000  0.3909220000000  0.4355700000000 1.0
C      1  0.4540470000000  0.5447610000000  0.4488240000000 1.0
C      1  0.4754700000000  0.5646640000000  0.3983860000000 1.0
C      1  0.4067130000000  0.4939660000000  0.4583100000000 1.0
C      1  0.5886030000000  0.4802800000000  0.5527310000000 1.0
C      1  0.5682490000000  0.5218500000000  0.6117780000000 1.0
C      1  0.4614180000000  0.5176040000000  0.4548250000000 1.0
C      1  0.5387900000000  0.4493030000000  0.5917390000000 1.0
C      1  0.4607070000000  0.6099040000000  0.4791910000000 1.0
C      1  0.5213850000000  0.5660320000000  0.4587640000000 1.0
C      1  0.6089400000000  0.4320320000000  0.5440170000000 1.0
C      1  0.4955420000000  0.5508710000000  0.4094840000000 1.0
C      1  0.5303290000000  0.5029650000000  0.4648350000000 1.0
C      1  0.4963460000000  0.4493930000000  0.5738260000000 1.0
C      1  0.6435880000000  0.4957460000000  0.5432830000000 1.0
C      1  0.4082570000000  0.5605740000000  0.4603710000000 1.0
C      1  0.5787470000000  0.5131910000000  0.5863830000000 1.0
C      1  0.3887680000000  0.4495880000000  0.4942520000000 1.0
C      1  0.4048460000000  0.4962430000000  0.4316870000000 1.0
C      1  0.4495540000000  0.4553750000000  0.4165060000000 1.0
C      1  0.4237470000000  0.4801240000000  0.5032230000000 1.0
C      1  0.3991600000000  0.4694590000000  0.5116900000000 1.0
C      1  0.5007820000000  0.5909590000000  0.5984230000000 1.0
C      1  0.4485240000000  0.5652720000000  0.3975590000000 1.0
C      1  0.4831370000000  0.4241930000000  0.5819880000000 1.0
C      1  0.5615820000000  0.4343370000000  0.4061220000000 1.0
C      1  0.4798700000000  0.5166880000000  0.5711080000000 1.0
C      1  0.4806420000000  0.5062990000000  0.3802710000000 1.0
C      1  0.4337860000000  0.5196920000000  0.3974930000000 1.0
C      1  0.5906120000000  0.4670400000000  0.5022240000000 1.0
C      1  0.5488360000000  0.4537740000000  0.4447550000000 1.0
C      1  0.4927640000000  0.5460310000000  0.5009420000000 1.0
C      1  0.4544410000000  0.5053060000000  0.6117340000000 1.0
C      1  0.5235020000000  0.5333670000000  0.5700650000000 1.0
C      1  0.4684570000000  0.4409760000000  0.4856010000000 1.0
C      1  0.4142170000000  0.5887110000000  0.4676460000000 1.0
C      1  0.4864970000000  0.4168750000000  0.6103930000000 1.0
C      1  0.5288880000000  0.4057090000000  0.4339590000000 1.0
C      1  0.5353160000000  0.4251850000000  0.4129670000000 1.0
C      1  0.5306600000000  0.5074090000000  0.3894130000000 1.0
C      1  0.5528900000000  0.5220770000000  0.4000440000000 1.0
C      1  0.5914220000000  0.4784970000000  0.5262450000000 1.0
C      1  0.5495790000000  0.5749870000000  0.4033240000000 1.0
C      1  0.5403580000000  0.4360180000000  0.5119930000000 1.0
C      1  0.5887780000000  0.5266980000000  0.4363050000000 1.0
C      1  0.4768440000000  0.6095330000000  0.5050490000000 1.0
C      1  0.5134640000000  0.4964230000000  0.5118460000000 1.0
C      1  0.5499180000000  0.4728230000000  0.5790310000000 1.0
C      1  0.5167100000000  0.5458840000000  0.5207850000000 1.0
C      1  0.6804310000000  0.5643370000000  0.3940060000000 1.0
C      1  0.4689260000000  0.5707210000000  0.5426410000000 1.0
C      1  0.5298520000000  0.4850480000000  0.5626810000000 1.0
C      1  0.4814900000000  0.4378350000000  0.6287400000000 1.0
C      1  0.5654720000000  0.5699300000000  0.4936440000000 1.0
C      1  0.4618320000000  0.5938730000000  0.5259220000000 1.0
C      1  0.5105960000000  0.5484490000000  0.4758140000000 1.0
C      1  0.4517490000000  0.5066580000000  0.4787080000000 1.0
C      1  0.5573060000000  0.4947800000000  0.4641250000000 1.0
C      1  0.5543360000000  0.4310470000000  0.5368910000000 1.0
C      1  0.5421930000000  0.4116420000000  0.5540840000000 1.0
C      1  0.4734880000000  0.5275790000000  0.5184640000000 1.0
C      1  0.5927190000000  0.5366440000000  0.5146150000000 1.0
C      1  0.4630140000000  0.5307470000000  0.6208990000000 1.0
C      1  0.5323890000000  0.4014970000000  0.6018550000000 1.0
C      1  0.4887990000000  0.5660160000000  0.5620480000000 1.0
C      1  0.4699950000000  0.4941470000000  0.5615490000000 1.0
C      1  0.5047850000000  0.6137610000000  0.5046710000000 1.0
C      1  0.5073050000000  0.5330140000000  0.4255560000000 1.0
C      1  0.4370850000000  0.5874560000000  0.5108950000000 1.0
C      1  0.4329830000000  0.5036080000000  0.5921780000000 1.0
C      1  0.5010400000000  0.4762030000000  0.5280730000000 1.0
C      1  0.5247630000000  0.5182870000000  0.5262240000000 1.0
C      1  0.4235800000000  0.5113830000000  0.5657980000000 1.0
C      1  0.6319540000000  0.4455620000000  0.5460560000000 1.0
C      1  0.4320620000000  0.4335580000000  0.4131040000000 1.0
C      1  0.4674830000000  0.5664930000000  0.4612590000000 1.0
C      1  0.5108520000000  0.4574160000000  0.5991580000000 1.0
C      1  0.5359770000000  0.3888740000000  0.5353010000000 1.0
C      1  0.5057010000000  0.4934750000000  0.3866970000000 1.0
C      1  0.4004030000000  0.5439800000000  0.4850850000000 1.0
C      1  0.4717390000000  0.5946310000000  0.4568900000000 1.0
C      1  0.4722060000000  0.4840830000000  0.6182480000000 1.0
C      1  0.5306670000000  0.5706770000000  0.5274560000000 1.0
C      1  0.5543030000000  0.4028850000000  0.4839220000000 1.0
C      1  0.5643750000000  0.4677450000000  0.4620470000000 1.0
C      1  0.5600980000000  0.4303060000000  0.4909560000000 1.0
C      1  0.5138160000000  0.4393370000000  0.5001060000000 1.0
C      1  0.4942200000000  0.3800150000000  0.5130260000000 1.0
C      1  0.4264810000000  0.4978640000000  0.4141140000000 1.0
C      1  0.4621120000000  0.5053440000000  0.5055150000000 1.0
C      1  0.4257780000000  0.5413600000000  0.4981000000000 1.0
C      1  0.3945130000000  0.5529850000000  0.5529050000000 1.0
C      1  0.6133520000000  0.5362450000000  0.4260990000000 1.0
C      1  0.4794120000000  0.4013570000000  0.5664170000000 1.0
C      1  0.4272260000000  0.4093560000000  0.5306090000000 1.0
C      1  0.4365410000000  0.4602940000000  0.5608560000000 1.0
C      1  0.4440780000000  0.5612020000000  0.5016300000000 1.0
C      1  0.5026590000000  0.3947680000000  0.4335940000000 1.0
C      1  0.5374790000000  0.5503980000000  0.5866190000000 1.0
C      1  0.5759580000000  0.4572880000000  0.4049590000000 1.0
C      1  0.5300380000000  0.6058180000000  0.4943030000000 1.0
C      1  0.4199800000000  0.5578960000000  0.5664560000000 1.0
C      1  0.4553190000000  0.5767700000000  0.6047200000000 1.0
C      1  0.5813080000000  0.5465900000000  0.4901910000000 1.0
C      1  0.5490310000000  0.5353870000000  0.6263860000000 1.0
C      1  0.4227250000000  0.4291830000000  0.4606750000000 1.0
C      1  0.5085980000000  0.3995340000000  0.6147200000000 1.0
C      1  0.5309590000000  0.5121870000000  0.5534140000000 1.0
C      1  0.4681590000000  0.4978500000000  0.4358370000000 1.0
C      1  0.4694470000000  0.5609810000000  0.4889670000000 1.0
C      1  0.5291830000000  0.5524530000000  0.6141040000000 1.0
C      1  0.5752990000000  0.4530780000000  0.4834330000000 1.0
C      1  0.4879210000000  0.4265550000000  0.5000950000000 1.0
C      1  0.4001510000000  0.5036850000000  0.5482950000000 1.0
C      1  0.5062230000000  0.4656660000000  0.3928180000000 1.0
C      1  0.4771670000000  0.4020740000000  0.5097620000000 1.0
C      1  0.3980370000000  0.4343810000000  0.4736680000000 1.0
C      1  0.4957420000000  0.5391590000000  0.5690710000000 1.0
C      1  0.4398730000000  0.4936970000000  0.3570800000000 1.0
C      1  0.5098300000000  0.3773940000000  0.5364430000000 1.0
C      1  0.4940890000000  0.3799770000000  0.5594520000000 1.0
C      1  0.4941820000000  0.6021760000000  0.4417240000000 1.0
C      1  0.4730490000000  0.5995830000000  0.6018270000000 1.0
C      1  0.4188430000000  0.4475380000000  0.3659570000000 1.0
C      1  0.4580020000000  0.5432590000000  0.5383900000000 1.0
C      1  0.7024040000000  0.5735660000000  0.3834400000000 1.0
C      1  0.5407640000000  0.4205570000000  0.5823120000000 1.0
C      1  0.5800600000000  0.4832600000000  0.4109800000000 1.0
C      1  0.4522460000000  0.5104430000000  0.3764190000000 1.0
C      1  0.4271830000000  0.4702400000000  0.3544800000000 1.0
C      1  0.4322820000000  0.5716690000000  0.5883630000000 1.0
C      1  0.5349500000000  0.6107560000000  0.4668440000000 1.0
C      1  0.5184280000000  0.5161930000000  0.4431780000000 1.0
C      1  0.5077630000000  0.4676520000000  0.5539530000000 1.0
C      1  0.5733920000000  0.5103760000000  0.4169750000000 1.0
C      1  0.5161230000000  0.4891280000000  0.4848990000000 1.0
C      1  0.4325750000000  0.6020540000000  0.4856140000000 1.0
C      1  0.6446900000000  0.4691030000000  0.5455330000000 1.0
C      1  0.4495560000000  0.4824910000000  0.4215230000000 1.0
C      1  0.3884850000000  0.5292690000000  0.5357580000000 1.0
C      1  0.4100850000000  0.4260070000000  0.5432190000000 1.0
C      1  0.4105190000000  0.4527020000000  0.5531070000000 1.0
C      1  0.5486900000000  0.3873930000000  0.5083610000000 1.0
C      1  0.5030970000000  0.5657880000000  0.6158250000000 1.0
C      1  0.3962840000000  0.4749940000000  0.5400180000000 1.0
C      1  0.4302650000000  0.4165270000000  0.4358990000000 1.0
C      1  0.3827340000000  0.5348750000000  0.5070290000000 1.0
C      1  0.6580900000000  0.5549530000000  0.4047490000000 1.0
C      1  0.5383590000000  0.5919690000000  0.4205960000000 1.0
C      1  0.5896920000000  0.5304130000000  0.5657510000000 1.0
C      1  0.4500320000000  0.3961930000000  0.4368660000000 1.0
C      1  0.4261730000000  0.4930550000000  0.4781300000000 1.0
C      1  0.5147770000000  0.4419690000000  0.4021810000000 1.0
C      1  0.4470980000000  0.4851110000000  0.5199080000000 1.0
C      1  0.5825640000000  0.4313190000000  0.5396070000000 1.0
C      1  0.5280580000000  0.5861410000000  0.5515480000000 1.0
C      1  0.6357540000000  0.5455730000000  0.4154870000000 1.0
C      1  0.4365400000000  0.5359300000000  0.5559510000000 1.0
C      1  0.4737510000000  0.5564180000000  0.6169770000000 1.0
C      1  0.4449390000000  0.4405400000000  0.4736860000000 1.0
C      1  0.4268890000000  0.5497880000000  0.4385580000000 1.0
C      1  0.5133120000000  0.4613140000000  0.4816060000000 1.0
C      1  0.4529680000000  0.4780060000000  0.5466130000000 1.0
C      1  0.4193550000000  0.4324160000000  0.3881380000000 1.0
C      1  0.4502490000000  0.4016840000000  0.5190620000000 1.0
C      1  0.5440430000000  0.5836140000000  0.5058360000000 1.0
C      1  0.5834130000000  0.5348270000000  0.4637550000000 1.0
C      1  0.5541480000000  0.5498690000000  0.3956950000000 1.0
C      1  0.6291860000000  0.5181730000000  0.5408630000000 1.0
END
