TITL C-627109-622-1992 797.151588647242 125000 -1103.40848045687 0 0 178 (C1) n - 1
REM
REM in /home/nfs/bkarasulu/CARBON/AIRSS/Generating-Clusters/LCBOP/Only-C1/SD-CG/FIRE-CG
REM
REM
REM
REM
REM
REM ./C.cell (11c1c37f851c82e70ff6c80c92926a4b)
REM AIRSS Version 0.9.1 bugfix July 2018 build 013d7b7c2542+ Fri, 06 Jul 2018 19:26:36 +0100
REM compiler GCC version 9.2.1 20190827 (Red Hat 9.2.1-1)
REM options -cpp -mtune=generic -march=x86-64 -g -O0 -fpre-include=/usr/include/finclude/math-vector-fortran.h
REM seed -1945122318 -1721593637 -1351704175 -720005951 -628514514 -420924900 -1830235882 -318412241 1289728609 -2056745288 393649059 -610240121 -435342527 1682567921 1928674784 1475617192 1988244203 1531896679 461536650 -1975528171 -799669523 1469621948 -398569305 2109291504 -1112667573 1850014803 356694190 1148141141 -102778960 681872915 -816356174 -1184843791 2083057205
REM
CELL 1.54180   50.00000   50.00000   50.00000   90.00000   90.00000   90.00000
LATT -1
SFAC C  
C      1  0.3921760000000  0.5691420000000  0.4894620000000 1.0
C      1  0.5421190000000  0.3892680000000  0.5519310000000 1.0
C      1  0.4103210000000  0.4991870000000  0.4698180000000 1.0
C      1  0.4979480000000  0.5883630000000  0.5692330000000 1.0
C      1  0.5257610000000  0.6201830000000  0.4919110000000 1.0
C      1  0.4683320000000  0.3748070000000  0.6502610000000 1.0
C      1  0.5163570000000  0.4094830000000  0.4761440000000 1.0
C      1  0.4025900000000  0.4497930000000  0.4561150000000 1.0
C      1  0.4824910000000  0.4527110000000  0.4257970000000 1.0
C      1  0.4882210000000  0.4109540000000  0.4888840000000 1.0
C      1  0.5711710000000  0.5024260000000  0.4440280000000 1.0
C      1  0.5144740000000  0.3822830000000  0.5472820000000 1.0
C      1  0.3794710000000  0.4827810000000  0.5061140000000 1.0
C      1  0.5053050000000  0.5933000000000  0.3997310000000 1.0
C      1  0.4301950000000  0.5499810000000  0.4368300000000 1.0
C      1  0.4927730000000  0.4357320000000  0.5744350000000 1.0
C      1  0.5009090000000  0.6044560000000  0.5923520000000 1.0
C      1  0.4745410000000  0.3580940000000  0.3529290000000 1.0
C      1  0.4422480000000  0.6110760000000  0.5358280000000 1.0
C      1  0.4859460000000  0.5949080000000  0.5233010000000 1.0
C      1  0.4110560000000  0.5696490000000  0.5103580000000 1.0
C      1  0.5707360000000  0.5758340000000  0.4679230000000 1.0
C      1  0.6157260000000  0.5530800000000  0.4721130000000 1.0
C      1  0.4682650000000  0.4687230000000  0.4748300000000 1.0
C      1  0.5467990000000  0.4339540000000  0.5254090000000 1.0
C      1  0.5188790000000  0.4913750000000  0.5136730000000 1.0
C      1  0.5179440000000  0.4235830000000  0.4507350000000 1.0
C      1  0.4290740000000  0.5898100000000  0.5496920000000 1.0
C      1  0.4812440000000  0.4102370000000  0.3523110000000 1.0
C      1  0.6047020000000  0.4861480000000  0.4856680000000 1.0
C      1  0.4338740000000  0.4430330000000  0.5041230000000 1.0
C      1  0.3731700000000  0.4726480000000  0.5301790000000 1.0
C      1  0.4702720000000  0.4188850000000  0.4575550000000 1.0
C      1  0.4884450000000  0.3919260000000  0.5570770000000 1.0
C      1  0.5620700000000  0.4755340000000  0.5203760000000 1.0
C      1  0.4306600000000  0.4778060000000  0.4279350000000 1.0
C      1  0.6128470000000  0.5299470000000  0.4582250000000 1.0
C      1  0.4499760000000  0.5237140000000  0.5579450000000 1.0
C      1  0.4782800000000  0.4747580000000  0.5377050000000 1.0
C      1  0.5185990000000  0.5432580000000  0.5000240000000 1.0
C      1  0.5850370000000  0.4873140000000  0.5317550000000 1.0
C      1  0.4950160000000  0.4782830000000  0.4740190000000 1.0
C      1  0.5797640000000  0.3926790000000  0.4278780000000 1.0
C      1  0.4860680000000  0.5809690000000  0.3856810000000 1.0
C      1  0.5691690000000  0.4309370000000  0.5731830000000 1.0
C      1  0.4975970000000  0.4916440000000  0.6143180000000 1.0
C      1  0.4245150000000  0.4880080000000  0.5796920000000 1.0
C      1  0.4107610000000  0.5408150000000  0.6017430000000 1.0
C      1  0.5274870000000  0.5411710000000  0.5449220000000 1.0
C      1  0.6007030000000  0.4405920000000  0.5374820000000 1.0
C      1  0.4209830000000  0.5746520000000  0.4491650000000 1.0
C      1  0.4693130000000  0.4779690000000  0.5649570000000 1.0
C      1  0.4757710000000  0.5431860000000  0.4520390000000 1.0
C      1  0.4864760000000  0.4478210000000  0.5298580000000 1.0
C      1  0.5509890000000  0.4583950000000  0.4329390000000 1.0
C      1  0.4525860000000  0.4890270000000  0.4652150000000 1.0
C      1  0.5555780000000  0.3848090000000  0.5033090000000 1.0
C      1  0.5077600000000  0.5502490000000  0.5253040000000 1.0
C      1  0.4587660000000  0.4498000000000  0.4927890000000 1.0
C      1  0.4321960000000  0.5337930000000  0.6162860000000 1.0
C      1  0.5069670000000  0.5983870000000  0.5433270000000 1.0
C      1  0.4949460000000  0.4884760000000  0.3634950000000 1.0
C      1  0.5358330000000  0.5984440000000  0.5352390000000 1.0
C      1  0.3923810000000  0.5601010000000  0.5566560000000 1.0
C      1  0.5496400000000  0.5799460000000  0.4876060000000 1.0
C      1  0.4009360000000  0.4986840000000  0.4971190000000 1.0
C      1  0.5617460000000  0.4108040000000  0.4329710000000 1.0
C      1  0.4843060000000  0.3884600000000  0.5094190000000 1.0
C      1  0.5174090000000  0.4715380000000  0.4885290000000 1.0
C      1  0.4608410000000  0.5554700000000  0.5098640000000 1.0
C      1  0.4611790000000  0.6080570000000  0.5139970000000 1.0
C      1  0.4802210000000  0.3986450000000  0.6049490000000 1.0
C      1  0.5075280000000  0.5986560000000  0.6178340000000 1.0
C      1  0.4845640000000  0.4665320000000  0.6112410000000 1.0
C      1  0.5792940000000  0.5179410000000  0.3852390000000 1.0
C      1  0.5586930000000  0.3818150000000  0.5298680000000 1.0
C      1  0.4802640000000  0.4357330000000  0.5051670000000 1.0
C      1  0.5575730000000  0.4509620000000  0.5049900000000 1.0
C      1  0.4160440000000  0.5102720000000  0.5186470000000 1.0
C      1  0.4082580000000  0.4013210000000  0.4568900000000 1.0
C      1  0.5204570000000  0.4966840000000  0.3730500000000 1.0
C      1  0.5871400000000  0.5501300000000  0.5643350000000 1.0
C      1  0.4742400000000  0.3864290000000  0.6276870000000 1.0
C      1  0.4386580000000  0.5707180000000  0.5019860000000 1.0
C      1  0.3818630000000  0.4715300000000  0.5554520000000 1.0
C      1  0.5819000000000  0.5278820000000  0.5833750000000 1.0
C      1  0.3959670000000  0.5724410000000  0.4628410000000 1.0
C      1  0.4850640000000  0.4364560000000  0.3526760000000 1.0
C      1  0.5537390000000  0.4086750000000  0.5696550000000 1.0
C      1  0.4006920000000  0.4778050000000  0.5733060000000 1.0
C      1  0.4964090000000  0.5238290000000  0.4554740000000 1.0
C      1  0.4101800000000  0.4764270000000  0.4501370000000 1.0
C      1  0.4844960000000  0.5696580000000  0.4548160000000 1.0
C      1  0.5680780000000  0.5030980000000  0.5765910000000 1.0
C      1  0.5074340000000  0.3741050000000  0.5197330000000 1.0
C      1  0.5739050000000  0.5397450000000  0.5182230000000 1.0
C      1  0.4844410000000  0.5662040000000  0.5208450000000 1.0
C      1  0.4241560000000  0.5302550000000  0.4162080000000 1.0
C      1  0.5927100000000  0.4652420000000  0.4690100000000 1.0
C      1  0.5821140000000  0.4814230000000  0.5607170000000 1.0
C      1  0.6034360000000  0.4355540000000  0.5107220000000 1.0
C      1  0.5720070000000  0.5749470000000  0.5714090000000 1.0
C      1  0.4584090000000  0.5282570000000  0.5113840000000 1.0
C      1  0.4288010000000  0.4233190000000  0.5219130000000 1.0
C      1  0.5131600000000  0.5741970000000  0.6277850000000 1.0
C      1  0.4690340000000  0.5347430000000  0.3671640000000 1.0
C      1  0.5434860000000  0.4310550000000  0.4394420000000 1.0
C      1  0.5246830000000  0.5653600000000  0.4828780000000 1.0
C      1  0.4496020000000  0.4978450000000  0.5711900000000 1.0
C      1  0.5229910000000  0.5250230000000  0.4437500000000 1.0
C      1  0.4184400000000  0.4263800000000  0.4535540000000 1.0
C      1  0.4881430000000  0.5604210000000  0.5737880000000 1.0
C      1  0.5289370000000  0.5168370000000  0.4995310000000 1.0
C      1  0.4481310000000  0.5355310000000  0.4542010000000 1.0
C      1  0.5735640000000  0.4733020000000  0.4469640000000 1.0
C      1  0.5738470000000  0.5436190000000  0.6069470000000 1.0
C      1  0.5677460000000  0.5700490000000  0.5999610000000 1.0
C      1  0.5466810000000  0.5126850000000  0.4552900000000 1.0
C      1  0.5396400000000  0.5695390000000  0.4285900000000 1.0
C      1  0.4732860000000  0.5600240000000  0.3749360000000 1.0
C      1  0.5042460000000  0.4681950000000  0.4166700000000 1.0
C      1  0.5424520000000  0.6018550000000  0.5066920000000 1.0
C      1  0.5231550000000  0.5246820000000  0.3745060000000 1.0
C      1  0.4904460000000  0.5067510000000  0.4766220000000 1.0
C      1  0.5271120000000  0.5443260000000  0.4232530000000 1.0
C      1  0.4692100000000  0.3934810000000  0.5346450000000 1.0
C      1  0.5654270000000  0.5667470000000  0.4403470000000 1.0
C      1  0.4765650000000  0.4517840000000  0.6327270000000 1.0
C      1  0.5243500000000  0.5292180000000  0.5704220000000 1.0
C      1  0.5858290000000  0.4509590000000  0.5608630000000 1.0
C      1  0.5397140000000  0.4556870000000  0.4840310000000 1.0
C      1  0.4457730000000  0.4311250000000  0.4469070000000 1.0
C      1  0.4777990000000  0.3839580000000  0.3526040000000 1.0
C      1  0.5080440000000  0.6098020000000  0.4738400000000 1.0
C      1  0.4564740000000  0.5248380000000  0.6233490000000 1.0
C      1  0.5305340000000  0.4498710000000  0.5432500000000 1.0
C      1  0.5234890000000  0.4940750000000  0.6025050000000 1.0
C      1  0.4388490000000  0.5944290000000  0.4621660000000 1.0
C      1  0.5048600000000  0.5818290000000  0.4694320000000 1.0
C      1  0.5822750000000  0.5411310000000  0.3987120000000 1.0
C      1  0.5562280000000  0.5910780000000  0.5541910000000 1.0
C      1  0.4522870000000  0.4556580000000  0.4291640000000 1.0
C      1  0.4894910000000  0.4624050000000  0.3556090000000 1.0
C      1  0.4364330000000  0.5118160000000  0.4653950000000 1.0
C      1  0.4797950000000  0.4590350000000  0.5844940000000 1.0
C      1  0.5133070000000  0.5509450000000  0.6141520000000 1.0
C      1  0.4612340000000  0.5506150000000  0.5672670000000 1.0
C      1  0.5071870000000  0.5440580000000  0.5874870000000 1.0
C      1  0.4395130000000  0.5203890000000  0.5305950000000 1.0
C      1  0.5361300000000  0.4777350000000  0.5339730000000 1.0
C      1  0.4474150000000  0.5958730000000  0.4899390000000 1.0
C      1  0.5220430000000  0.5395270000000  0.3964310000000 1.0
C      1  0.4802120000000  0.5123010000000  0.6228680000000 1.0
C      1  0.4753630000000  0.5090300000000  0.3628680000000 1.0
C      1  0.3959280000000  0.5484790000000  0.5807090000000 1.0
C      1  0.5053010000000  0.4404100000000  0.5495020000000 1.0
C      1  0.4867240000000  0.4086200000000  0.5798820000000 1.0
C      1  0.6048640000000  0.4926140000000  0.5122580000000 1.0
C      1  0.5978270000000  0.5730080000000  0.4760800000000 1.0
C      1  0.4435210000000  0.5730280000000  0.5670390000000 1.0
C      1  0.5909020000000  0.5234640000000  0.4416160000000 1.0
C      1  0.5511880000000  0.5156300000000  0.4829770000000 1.0
C      1  0.5739130000000  0.5270400000000  0.4946270000000 1.0
C      1  0.4432790000000  0.4041430000000  0.5340320000000 1.0
C      1  0.4917360000000  0.4296400000000  0.4412660000000 1.0
C      1  0.5327240000000  0.4705350000000  0.4130260000000 1.0
C      1  0.5984700000000  0.4409710000000  0.4841660000000 1.0
C      1  0.4069240000000  0.5754900000000  0.5378920000000 1.0
C      1  0.5383410000000  0.3947460000000  0.4854380000000 1.0
C      1  0.5540760000000  0.5431630000000  0.5357610000000 1.0
C      1  0.4291610000000  0.5031530000000  0.4137400000000 1.0
C      1  0.4904310000000  0.4950030000000  0.5223480000000 1.0
C      1  0.5666520000000  0.4941980000000  0.3848730000000 1.0
C      1  0.5266030000000  0.5911870000000  0.4161240000000 1.0
C      1  0.5386760000000  0.5063160000000  0.5816330000000 1.0
C      1  0.5816350000000  0.5464090000000  0.4264910000000 1.0
C      1  0.5407460000000  0.4834430000000  0.3887020000000 1.0
C      1  0.4783510000000  0.5114860000000  0.5025000000000 1.0
END
