TITL C-627112-676-939 0.00392425917461059 125000 -574.309160202536 0 0 97 (C1) n - 1
REM
REM in /home/nfs/bkarasulu/CARBON/AIRSS/Generating-Clusters/LCBOP/Only-C1/SD-CG/FIRE-CG
REM
REM
REM
REM
REM
REM ./C.cell (11c1c37f851c82e70ff6c80c92926a4b)
REM AIRSS Version 0.9.1 bugfix July 2018 build 013d7b7c2542+ Fri, 06 Jul 2018 19:26:36 +0100
REM compiler GCC version 9.2.1 20190827 (Red Hat 9.2.1-1)
REM options -cpp -mtune=generic -march=x86-64 -g -O0 -fpre-include=/usr/include/finclude/math-vector-fortran.h
REM seed -1924086829 855961339 -426103351 -2123373065 -1055094671 -1198492653 154505139 1246553074 1652840957 -1813400969 206038298 -1723783516 128979066 1215281119 -1557326394 -1291949304 -1235861024 1221370314 -415832569 -1526047845 -1331996117 -804033488 -123293722 409256624 1006184026 1326261659 -155321377 382097220 -490576639 -1706351388 859826813 800225498 9411115
REM
CELL 1.54180   50.00000   50.00000   50.00000   90.00000   90.00000   90.00000
LATT -1
SFAC C  
C      1  0.3869840000000  0.5247660000000  0.4759300000000 1.0
C      1  0.5456580000000  0.4974160000000  0.6423590000000 1.0
C      1  0.5901770000000  0.4383770000000  0.4619760000000 1.0
C      1  0.4719390000000  0.5293060000000  0.5228090000000 1.0
C      1  0.5558470000000  0.5329010000000  0.5760670000000 1.0
C      1  0.5712520000000  0.5122570000000  0.5684800000000 1.0
C      1  0.5130840000000  0.5584110000000  0.5728220000000 1.0
C      1  0.4392050000000  0.4632460000000  0.5620560000000 1.0
C      1  0.4626470000000  0.4856890000000  0.5244920000000 1.0
C      1  0.5526860000000  0.4074300000000  0.4592640000000 1.0
C      1  0.5412370000000  0.5183130000000  0.4332670000000 1.0
C      1  0.3697160000000  0.5303240000000  0.4572190000000 1.0
C      1  0.5863820000000  0.5091790000000  0.4963890000000 1.0
C      1  0.5657340000000  0.5122120000000  0.4487930000000 1.0
C      1  0.5298420000000  0.4217020000000  0.5372790000000 1.0
C      1  0.5337620000000  0.6058310000000  0.5213100000000 1.0
C      1  0.4935340000000  0.5085220000000  0.5827880000000 1.0
C      1  0.4938390000000  0.4535910000000  0.4854690000000 1.0
C      1  0.5849000000000  0.4620320000000  0.4473680000000 1.0
C      1  0.5027000000000  0.4288190000000  0.5315100000000 1.0
C      1  0.4643800000000  0.6004170000000  0.4134500000000 1.0
C      1  0.4773210000000  0.5795630000000  0.5226310000000 1.0
C      1  0.4744290000000  0.5528360000000  0.4796170000000 1.0
C      1  0.5192580000000  0.5208570000000  0.5177270000000 1.0
C      1  0.5550200000000  0.5421750000000  0.4905940000000 1.0
C      1  0.3960020000000  0.4321730000000  0.4615750000000 1.0
C      1  0.4875090000000  0.5139820000000  0.4466390000000 1.0
C      1  0.5040020000000  0.5654470000000  0.5168060000000 1.0
C      1  0.4482670000000  0.5143100000000  0.5803720000000 1.0
C      1  0.4320740000000  0.5268100000000  0.4934100000000 1.0
C      1  0.5163130000000  0.5125470000000  0.4470490000000 1.0
C      1  0.4308480000000  0.4643780000000  0.4528800000000 1.0
C      1  0.4715250000000  0.5734840000000  0.5506270000000 1.0
C      1  0.5785520000000  0.4767230000000  0.5313600000000 1.0
C      1  0.3977530000000  0.5018560000000  0.5172230000000 1.0
C      1  0.5263260000000  0.5337110000000  0.4895790000000 1.0
C      1  0.4986720000000  0.5372010000000  0.5286450000000 1.0
C      1  0.5051880000000  0.5553330000000  0.4870350000000 1.0
C      1  0.5826990000000  0.5233560000000  0.5226180000000 1.0
C      1  0.4515480000000  0.4412620000000  0.5458110000000 1.0
C      1  0.4651760000000  0.5790610000000  0.4953970000000 1.0
C      1  0.3988830000000  0.4848680000000  0.5376690000000 1.0
C      1  0.4124630000000  0.4696270000000  0.5548980000000 1.0
C      1  0.5646950000000  0.5459610000000  0.5187700000000 1.0
C      1  0.5291120000000  0.5787110000000  0.5250880000000 1.0
C      1  0.4817370000000  0.4863110000000  0.5687120000000 1.0
C      1  0.4291190000000  0.4390440000000  0.4959970000000 1.0
C      1  0.6165720000000  0.4292890000000  0.4638900000000 1.0
C      1  0.4841200000000  0.5558130000000  0.5704550000000 1.0
C      1  0.4374780000000  0.4357520000000  0.5212690000000 1.0
C      1  0.5653380000000  0.4238570000000  0.5029900000000 1.0
C      1  0.5236400000000  0.4931270000000  0.5156680000000 1.0
C      1  0.5421630000000  0.5288680000000  0.4080810000000 1.0
C      1  0.3949770000000  0.5562250000000  0.3926120000000 1.0
C      1  0.4149560000000  0.5449260000000  0.4058430000000 1.0
C      1  0.6410480000000  0.4206700000000  0.4662880000000 1.0
C      1  0.5695400000000  0.4232420000000  0.4750310000000 1.0
C      1  0.3751340000000  0.5674460000000  0.3799650000000 1.0
C      1  0.5703910000000  0.4518400000000  0.5429850000000 1.0
C      1  0.4725270000000  0.4895320000000  0.4529750000000 1.0
C      1  0.4589740000000  0.5330600000000  0.4977160000000 1.0
C      1  0.4738240000000  0.5397300000000  0.4516170000000 1.0
C      1  0.4191170000000  0.4454020000000  0.4702830000000 1.0
C      1  0.5478120000000  0.5607290000000  0.5370800000000 1.0
C      1  0.5177320000000  0.3932880000000  0.4310350000000 1.0
C      1  0.5330020000000  0.4866300000000  0.4891840000000 1.0
C      1  0.5332050000000  0.3708620000000  0.4368670000000 1.0
C      1  0.5568140000000  0.4724920000000  0.4880240000000 1.0
C      1  0.5288050000000  0.4154340000000  0.4440630000000 1.0
C      1  0.5246210000000  0.5085890000000  0.4735060000000 1.0
C      1  0.4765140000000  0.4745980000000  0.4770890000000 1.0
C      1  0.4606130000000  0.5759980000000  0.4217340000000 1.0
C      1  0.4355200000000  0.5337550000000  0.4210360000000 1.0
C      1  0.4462190000000  0.4854940000000  0.4420420000000 1.0
C      1  0.5793870000000  0.4813830000000  0.5024110000000 1.0
C      1  0.4055870000000  0.5179030000000  0.4956000000000 1.0
C      1  0.5801610000000  0.5032660000000  0.5435660000000 1.0
C      1  0.3743230000000  0.4201080000000  0.4535960000000 1.0
C      1  0.4565360000000  0.5501330000000  0.4314070000000 1.0
C      1  0.5029160000000  0.4499050000000  0.5121680000000 1.0
C      1  0.4852350000000  0.4824360000000  0.5413410000000 1.0
C      1  0.5724590000000  0.5239070000000  0.4748550000000 1.0
C      1  0.5396370000000  0.5522250000000  0.5636490000000 1.0
C      1  0.5555070000000  0.4316620000000  0.5284120000000 1.0
C      1  0.5136590000000  0.5065120000000  0.6016670000000 1.0
C      1  0.5542170000000  0.3785990000000  0.4536460000000 1.0
C      1  0.5773300000000  0.4464810000000  0.5690360000000 1.0
C      1  0.5370320000000  0.6318180000000  0.5173520000000 1.0
C      1  0.4780160000000  0.4290010000000  0.5468090000000 1.0
C      1  0.5074410000000  0.4741340000000  0.5270310000000 1.0
C      1  0.4594600000000  0.4826500000000  0.4981690000000 1.0
C      1  0.4734680000000  0.5305310000000  0.5803170000000 1.0
C      1  0.5401000000000  0.6574060000000  0.5134210000000 1.0
C      1  0.5787250000000  0.4876440000000  0.4424000000000 1.0
C      1  0.5293830000000  0.5018790000000  0.6224900000000 1.0
C      1  0.4531980000000  0.4851900000000  0.5748530000000 1.0
C      1  0.4355680000000  0.5062490000000  0.4266490000000 1.0
END
