TITL C-627107-135-954 -6.57678154193913e-07 125000 -733.016585741796 0 0 119 (C1) n - 1
REM
REM in /home/nfs/bkarasulu/CARBON/AIRSS/Generating-Clusters/LCBOP/Only-C1/SD-CG/FIRE-CG
REM
REM
REM
REM
REM
REM ./C.cell (11c1c37f851c82e70ff6c80c92926a4b)
REM AIRSS Version 0.9.1 bugfix July 2018 build 013d7b7c2542+ Fri, 06 Jul 2018 19:26:36 +0100
REM compiler GCC version 9.2.1 20190827 (Red Hat 9.2.1-1)
REM options -cpp -mtune=generic -march=x86-64 -g -O0 -fpre-include=/usr/include/finclude/math-vector-fortran.h
REM seed -2047605924 -482268898 -193829921 -1075455710 1525232272 83432044 -708239307 293189543 -1870045272 858249666 1266952465 -2146775321 -1447583694 -1702285500 776186210 -327748714 1725299951 481756361 2061289197 1261394236 -1999758113 -1778959717 -1210929680 606724530 -1620599427 1852915565 1170432214 -1295304095 -103291411 370221568 -41387125 -297267195 927427126
REM
CELL 1.54180   50.00000   50.00000   50.00000   90.00000   90.00000   90.00000
LATT -1
SFAC C  
C      1  0.5314630000000  0.4580750000000  0.5793430000000 1.0
C      1  0.4688150000000  0.4504720000000  0.4551520000000 1.0
C      1  0.4708250000000  0.4878660000000  0.5123010000000 1.0
C      1  0.4878430000000  0.4707360000000  0.5645870000000 1.0
C      1  0.4762110000000  0.5661650000000  0.4716280000000 1.0
C      1  0.5354550000000  0.4317590000000  0.5661070000000 1.0
C      1  0.4575380000000  0.4250860000000  0.4462670000000 1.0
C      1  0.5044750000000  0.4185050000000  0.4882370000000 1.0
C      1  0.5148110000000  0.4131100000000  0.5585870000000 1.0
C      1  0.5183480000000  0.5261020000000  0.5311890000000 1.0
C      1  0.4397750000000  0.5950210000000  0.5133570000000 1.0
C      1  0.5624970000000  0.4344750000000  0.5543780000000 1.0
C      1  0.5155490000000  0.5539120000000  0.5373680000000 1.0
C      1  0.5228230000000  0.3953560000000  0.4503280000000 1.0
C      1  0.4624470000000  0.5135770000000  0.5044850000000 1.0
C      1  0.4028950000000  0.5018680000000  0.5026650000000 1.0
C      1  0.4918810000000  0.4096590000000  0.5411570000000 1.0
C      1  0.4932960000000  0.4590300000000  0.5394170000000 1.0
C      1  0.5363650000000  0.4709250000000  0.4438370000000 1.0
C      1  0.5980400000000  0.4596190000000  0.5124940000000 1.0
C      1  0.4399790000000  0.5979280000000  0.4620640000000 1.0
C      1  0.4021260000000  0.5222050000000  0.5240760000000 1.0
C      1  0.5283130000000  0.4174080000000  0.5038020000000 1.0
C      1  0.4971860000000  0.5016800000000  0.3783970000000 1.0
C      1  0.4086150000000  0.4727380000000  0.5043640000000 1.0
C      1  0.4127080000000  0.4667050000000  0.5526020000000 1.0
C      1  0.5817990000000  0.5294830000000  0.4814460000000 1.0
C      1  0.5132160000000  0.5236660000000  0.3851420000000 1.0
C      1  0.4785420000000  0.5047830000000  0.6085500000000 1.0
C      1  0.5203330000000  0.5262480000000  0.4818600000000 1.0
C      1  0.5129610000000  0.6317080000000  0.4905470000000 1.0
C      1  0.4309490000000  0.6038060000000  0.4880770000000 1.0
C      1  0.4689850000000  0.5179550000000  0.5543920000000 1.0
C      1  0.4734050000000  0.5376450000000  0.5747200000000 1.0
C      1  0.5478310000000  0.4007300000000  0.5110160000000 1.0
C      1  0.5153800000000  0.5148920000000  0.4349730000000 1.0
C      1  0.5836430000000  0.4761140000000  0.5301940000000 1.0
C      1  0.4960910000000  0.4779830000000  0.5187730000000 1.0
C      1  0.4992890000000  0.4846930000000  0.6092550000000 1.0
C      1  0.5346830000000  0.5603110000000  0.4522160000000 1.0
C      1  0.4554270000000  0.4947050000000  0.5926260000000 1.0
C      1  0.5809110000000  0.4143620000000  0.5534030000000 1.0
C      1  0.4439900000000  0.4873910000000  0.4188530000000 1.0
C      1  0.5343660000000  0.4673020000000  0.4911430000000 1.0
C      1  0.5630930000000  0.3796270000000  0.5126180000000 1.0
C      1  0.5403260000000  0.4548070000000  0.4667600000000 1.0
C      1  0.4271700000000  0.4946120000000  0.5902000000000 1.0
C      1  0.5275330000000  0.5216660000000  0.4093830000000 1.0
C      1  0.4821710000000  0.4338070000000  0.4994170000000 1.0
C      1  0.5480250000000  0.5040280000000  0.5674500000000 1.0
C      1  0.4653170000000  0.5419010000000  0.4637870000000 1.0
C      1  0.4533490000000  0.5205990000000  0.4776090000000 1.0
C      1  0.4302880000000  0.5688660000000  0.5216730000000 1.0
C      1  0.5193720000000  0.4855590000000  0.5059400000000 1.0
C      1  0.5524200000000  0.4765270000000  0.5703380000000 1.0
C      1  0.4996690000000  0.5702220000000  0.5211240000000 1.0
C      1  0.4520080000000  0.5538590000000  0.5304010000000 1.0
C      1  0.3971940000000  0.4618070000000  0.5288550000000 1.0
C      1  0.4861980000000  0.5316570000000  0.5996270000000 1.0
C      1  0.4912100000000  0.5633750000000  0.4950950000000 1.0
C      1  0.5817450000000  0.5038390000000  0.5231360000000 1.0
C      1  0.5580660000000  0.5589040000000  0.4364440000000 1.0
C      1  0.4059180000000  0.5119880000000  0.4767650000000 1.0
C      1  0.4616700000000  0.4496820000000  0.4836110000000 1.0
C      1  0.4948710000000  0.5986930000000  0.5225200000000 1.0
C      1  0.5686610000000  0.5526850000000  0.5248870000000 1.0
C      1  0.5605710000000  0.5497950000000  0.5527910000000 1.0
C      1  0.5797920000000  0.4909500000000  0.4513870000000 1.0
C      1  0.4785500000000  0.3874950000000  0.5281390000000 1.0
C      1  0.5383700000000  0.5906360000000  0.4979500000000 1.0
C      1  0.5036230000000  0.3955980000000  0.4707010000000 1.0
C      1  0.4236820000000  0.5984370000000  0.4402280000000 1.0
C      1  0.4312360000000  0.5009980000000  0.4376840000000 1.0
C      1  0.5636190000000  0.4916450000000  0.4077330000000 1.0
C      1  0.5221290000000  0.5136520000000  0.5061080000000 1.0
C      1  0.5340100000000  0.5607910000000  0.5587120000000 1.0
C      1  0.5062410000000  0.4685230000000  0.5866050000000 1.0
C      1  0.4826280000000  0.4827520000000  0.3902770000000 1.0
C      1  0.5800990000000  0.5193050000000  0.4548090000000 1.0
C      1  0.5453360000000  0.4099260000000  0.4483360000000 1.0
C      1  0.4397750000000  0.4609670000000  0.5461800000000 1.0
C      1  0.4853970000000  0.6120430000000  0.4546050000000 1.0
C      1  0.4076790000000  0.5507610000000  0.5192960000000 1.0
C      1  0.5338480000000  0.5807770000000  0.4715320000000 1.0
C      1  0.5167320000000  0.5679490000000  0.3546560000000 1.0
C      1  0.4503370000000  0.4708070000000  0.5220620000000 1.0
C      1  0.5618120000000  0.4787040000000  0.4326840000000 1.0
C      1  0.5562460000000  0.5189410000000  0.4099040000000 1.0
C      1  0.5662110000000  0.5259350000000  0.5676540000000 1.0
C      1  0.4698910000000  0.4778370000000  0.4146310000000 1.0
C      1  0.4303680000000  0.5108960000000  0.4636100000000 1.0
C      1  0.4685350000000  0.4918940000000  0.5662860000000 1.0
C      1  0.5110300000000  0.4852950000000  0.4404700000000 1.0
C      1  0.4677030000000  0.5909960000000  0.4603940000000 1.0
C      1  0.5093700000000  0.5474180000000  0.6032040000000 1.0
C      1  0.5208080000000  0.5348870000000  0.4554950000000 1.0
C      1  0.4662970000000  0.6046170000000  0.5223120000000 1.0
C      1  0.5147300000000  0.5463270000000  0.3690670000000 1.0
C      1  0.5698280000000  0.5338150000000  0.4312850000000 1.0
C      1  0.5180560000000  0.6098920000000  0.5078450000000 1.0
C      1  0.5242440000000  0.5102510000000  0.5536860000000 1.0
C      1  0.5695820000000  0.4628810000000  0.5514420000000 1.0
C      1  0.4906420000000  0.3737290000000  0.4829780000000 1.0
C      1  0.5783200000000  0.5292390000000  0.5099440000000 1.0
C      1  0.4471770000000  0.4052210000000  0.4621700000000 1.0
C      1  0.4845490000000  0.4702720000000  0.4385850000000 1.0
C      1  0.4099080000000  0.4912870000000  0.5674250000000 1.0
C      1  0.5002790000000  0.6307120000000  0.4668040000000 1.0
C      1  0.5823350000000  0.4315240000000  0.4731420000000 1.0
C      1  0.4481470000000  0.3918820000000  0.4860590000000 1.0
C      1  0.4367560000000  0.4615110000000  0.4979010000000 1.0
C      1  0.4696460000000  0.3803650000000  0.5014160000000 1.0
C      1  0.4617180000000  0.5282920000000  0.5291490000000 1.0
C      1  0.5565320000000  0.4315840000000  0.4623300000000 1.0
C      1  0.4012020000000  0.5129370000000  0.5511120000000 1.0
C      1  0.5586620000000  0.5764520000000  0.5121930000000 1.0
C      1  0.5248150000000  0.5610480000000  0.5855650000000 1.0
C      1  0.5975660000000  0.4427500000000  0.4919070000000 1.0
C      1  0.4850240000000  0.4343330000000  0.5285420000000 1.0
END
