TITL C-627111-6168-65 -2.51175287864617e-07 125000 -510.104366886045 0 0 83 (C1) n - 1
REM
REM in /home/nfs/bkarasulu/CARBON/AIRSS/Generating-Clusters/LCBOP/Only-C1/SD-CG/FIRE-CG
REM
REM
REM
REM
REM
REM ./C.cell (11c1c37f851c82e70ff6c80c92926a4b)
REM AIRSS Version 0.9.1 bugfix July 2018 build 013d7b7c2542+ Fri, 06 Jul 2018 19:26:36 +0100
REM compiler GCC version 9.2.1 20190827 (Red Hat 9.2.1-1)
REM options -cpp -mtune=generic -march=x86-64 -g -O0 -fpre-include=/usr/include/finclude/math-vector-fortran.h
REM seed -2128824818 -1891536021 -927394000 1661424839 537777149 -1720901801 -1966001159 -335219181 -377435108 -1546018536 1410786248 2019239251 -631933144 1581857303 -568131543 -567321168 -1754539428 177274343 1178903484 -1724969113 -1414730904 341982686 553907543 1231285744 1610677326 -1011191493 965485901 1591367584 -2069707810 1131819722 1040817752 -1294708583 -1818208206
REM
CELL 1.54180   50.00000   50.00000   50.00000   90.00000   90.00000   90.00000
LATT -1
SFAC C  
C      1  0.4371970000000  0.5699090000000  0.4767060000000 1.0
C      1  0.4943870000000  0.5174040000000  0.5724160000000 1.0
C      1  0.5088210000000  0.4925070000000  0.5739970000000 1.0
C      1  0.4890770000000  0.4993190000000  0.4095500000000 1.0
C      1  0.5652350000000  0.5214420000000  0.5098580000000 1.0
C      1  0.4090410000000  0.4386450000000  0.4354860000000 1.0
C      1  0.4641970000000  0.5873840000000  0.5321840000000 1.0
C      1  0.4267300000000  0.5445550000000  0.4830330000000 1.0
C      1  0.5788400000000  0.5149910000000  0.5333260000000 1.0
C      1  0.5146970000000  0.4095140000000  0.4829820000000 1.0
C      1  0.5059710000000  0.5821010000000  0.4766100000000 1.0
C      1  0.4822560000000  0.5938540000000  0.4874160000000 1.0
C      1  0.4572570000000  0.5875240000000  0.4761120000000 1.0
C      1  0.5871450000000  0.4711500000000  0.5518010000000 1.0
C      1  0.5608940000000  0.5021530000000  0.5768110000000 1.0
C      1  0.5515480000000  0.4269470000000  0.5059110000000 1.0
C      1  0.4000440000000  0.5322890000000  0.5234050000000 1.0
C      1  0.5137140000000  0.4766860000000  0.4669340000000 1.0
C      1  0.5805410000000  0.4866890000000  0.4504360000000 1.0
C      1  0.5093150000000  0.4272370000000  0.5308120000000 1.0
C      1  0.5571640000000  0.5526620000000  0.4772760000000 1.0
C      1  0.3974320000000  0.5103650000000  0.5688360000000 1.0
C      1  0.4192370000000  0.5051390000000  0.5834040000000 1.0
C      1  0.5514320000000  0.4477890000000  0.4862750000000 1.0
C      1  0.5128530000000  0.4943770000000  0.4209360000000 1.0
C      1  0.5681210000000  0.4539170000000  0.5403440000000 1.0
C      1  0.5020720000000  0.5650260000000  0.5543470000000 1.0
C      1  0.4456790000000  0.5090320000000  0.5838540000000 1.0
C      1  0.4359250000000  0.4438760000000  0.5031330000000 1.0
C      1  0.5556940000000  0.5803400000000  0.4856120000000 1.0
C      1  0.4250500000000  0.4442250000000  0.4558440000000 1.0
C      1  0.5798070000000  0.4983820000000  0.5561600000000 1.0
C      1  0.4661500000000  0.4645700000000  0.4721360000000 1.0
C      1  0.3941820000000  0.4341580000000  0.4145420000000 1.0
C      1  0.4480860000000  0.5304210000000  0.5252760000000 1.0
C      1  0.4799900000000  0.5107040000000  0.4650540000000 1.0
C      1  0.5749410000000  0.5297810000000  0.4830890000000 1.0
C      1  0.4862560000000  0.4836580000000  0.4693320000000 1.0
C      1  0.4283550000000  0.5114990000000  0.4403160000000 1.0
C      1  0.5686440000000  0.4649800000000  0.4390940000000 1.0
C      1  0.5703490000000  0.4290100000000  0.5271140000000 1.0
C      1  0.5321080000000  0.5937770000000  0.4757040000000 1.0
C      1  0.4734100000000  0.5657820000000  0.5479380000000 1.0
C      1  0.5272350000000  0.4308130000000  0.4341430000000 1.0
C      1  0.5356420000000  0.4954110000000  0.5828040000000 1.0
C      1  0.5237250000000  0.4775250000000  0.4403940000000 1.0
C      1  0.4822650000000  0.6010840000000  0.5150720000000 1.0
C      1  0.3899610000000  0.5214360000000  0.5456690000000 1.0
C      1  0.5218680000000  0.4150280000000  0.4573750000000 1.0
C      1  0.4661990000000  0.5219230000000  0.5699300000000 1.0
C      1  0.5360900000000  0.5244730000000  0.5073590000000 1.0
C      1  0.4642000000000  0.4858710000000  0.4096460000000 1.0
C      1  0.4245600000000  0.5368860000000  0.5105510000000 1.0
C      1  0.4418540000000  0.4980320000000  0.4215580000000 1.0
C      1  0.4662270000000  0.4583190000000  0.4038090000000 1.0
C      1  0.5293730000000  0.4788610000000  0.5136860000000 1.0
C      1  0.6053570000000  0.3904330000000  0.5404200000000 1.0
C      1  0.5185560000000  0.5044470000000  0.5155440000000 1.0
C      1  0.4931010000000  0.4446610000000  0.5470460000000 1.0
C      1  0.4421560000000  0.4509260000000  0.4768000000000 1.0
C      1  0.4911240000000  0.5062600000000  0.5176490000000 1.0
C      1  0.5883660000000  0.4090870000000  0.5339020000000 1.0
C      1  0.5418750000000  0.4560870000000  0.4351310000000 1.0
C      1  0.5009080000000  0.4672710000000  0.5629310000000 1.0
C      1  0.5437380000000  0.4671290000000  0.5344570000000 1.0
C      1  0.4444130000000  0.4403880000000  0.5280650000000 1.0
C      1  0.5095860000000  0.5414100000000  0.5680270000000 1.0
C      1  0.5065460000000  0.6059420000000  0.5286470000000 1.0
C      1  0.4586510000000  0.5413940000000  0.5495700000000 1.0
C      1  0.5197880000000  0.5848030000000  0.5427340000000 1.0
C      1  0.4872130000000  0.5363110000000  0.4654750000000 1.0
C      1  0.5315170000000  0.4681490000000  0.4875450000000 1.0
C      1  0.5075950000000  0.4289620000000  0.4136830000000 1.0
C      1  0.4841490000000  0.4383750000000  0.4047520000000 1.0
C      1  0.5304470000000  0.5418320000000  0.4852710000000 1.0
C      1  0.4228870000000  0.5260950000000  0.4620410000000 1.0
C      1  0.5068470000000  0.5534350000000  0.4751890000000 1.0
C      1  0.4651750000000  0.5108720000000  0.5149800000000 1.0
C      1  0.5614500000000  0.5847970000000  0.5131320000000 1.0
C      1  0.5245320000000  0.4170310000000  0.5087410000000 1.0
C      1  0.5826040000000  0.5096610000000  0.4645750000000 1.0
C      1  0.5470270000000  0.5821120000000  0.5358690000000 1.0
C      1  0.4653480000000  0.4406990000000  0.5444280000000 1.0
END
