TITL C-627113-6568-27 9.48720515987831e-07 125000 -550.901512840409 0 0 92 (C1) n - 1
REM
REM in /home/nfs/bkarasulu/CARBON/AIRSS/Generating-Clusters/LCBOP/Only-C1/SD-CG/FIRE-CG
REM
REM
REM
REM
REM
REM ./C.cell (11c1c37f851c82e70ff6c80c92926a4b)
REM AIRSS Version 0.9.1 bugfix July 2018 build 013d7b7c2542+ Fri, 06 Jul 2018 19:26:36 +0100
REM compiler GCC version 9.2.1 20190827 (Red Hat 9.2.1-1)
REM options -cpp -mtune=generic -march=x86-64 -g -O0 -fpre-include=/usr/include/finclude/math-vector-fortran.h
REM seed -565056976 -969411650 1690824716 -864673368 1155433413 -1102302729 -325026583 849120933 69409459 -946064019 -789966265 -1225303068 1119800598 1148403179 -2086250644 -328306629 -384341603 -1183579898 1889103886 203446474 234614240 1877741373 -2020268373 -1574682329 656017105 964033085 1874497141 371930029 1924459508 -33322034 -1202275649 -381268216 -1451772403
REM
CELL 1.54180   50.00000   50.00000   50.00000   90.00000   90.00000   90.00000
LATT -1
SFAC C  
C      1  0.5540990000000  0.4913310000000  0.5149040000000 1.0
C      1  0.4573150000000  0.5717870000000  0.4795120000000 1.0
C      1  0.5003770000000  0.3975150000000  0.5017040000000 1.0
C      1  0.5419070000000  0.5242390000000  0.4329770000000 1.0
C      1  0.4123070000000  0.4334080000000  0.5064020000000 1.0
C      1  0.4306320000000  0.3925810000000  0.4864080000000 1.0
C      1  0.4934060000000  0.5222950000000  0.4148840000000 1.0
C      1  0.4409980000000  0.5497580000000  0.5239330000000 1.0
C      1  0.5075800000000  0.5524550000000  0.5544300000000 1.0
C      1  0.4297090000000  0.3721310000000  0.4702820000000 1.0
C      1  0.4736400000000  0.4730740000000  0.5379570000000 1.0
C      1  0.4761510000000  0.5904400000000  0.5421620000000 1.0
C      1  0.4633920000000  0.4718040000000  0.4893850000000 1.0
C      1  0.5235830000000  0.5426920000000  0.4471520000000 1.0
C      1  0.5269230000000  0.4482110000000  0.5523750000000 1.0
C      1  0.5827050000000  0.5417830000000  0.5434910000000 1.0
C      1  0.4624630000000  0.5790240000000  0.4270290000000 1.0
C      1  0.4571300000000  0.5475790000000  0.5485640000000 1.0
C      1  0.5570280000000  0.5655120000000  0.5385370000000 1.0
C      1  0.5747720000000  0.5638060000000  0.5067310000000 1.0
C      1  0.5458860000000  0.4379850000000  0.4523370000000 1.0
C      1  0.4792980000000  0.5528630000000  0.4821370000000 1.0
C      1  0.4476300000000  0.4608340000000  0.5442730000000 1.0
C      1  0.4233590000000  0.5276420000000  0.5172530000000 1.0
C      1  0.4810000000000  0.5639140000000  0.5515240000000 1.0
C      1  0.5154990000000  0.4660360000000  0.5017040000000 1.0
C      1  0.5238220000000  0.4249660000000  0.4432570000000 1.0
C      1  0.4486300000000  0.5320940000000  0.5702360000000 1.0
C      1  0.5262820000000  0.3948070000000  0.5088960000000 1.0
C      1  0.5264190000000  0.5283670000000  0.5098850000000 1.0
C      1  0.4081540000000  0.5265000000000  0.4665480000000 1.0
C      1  0.4091920000000  0.5291520000000  0.4929960000000 1.0
C      1  0.4464860000000  0.5739110000000  0.5067460000000 1.0
C      1  0.4210300000000  0.5233750000000  0.4434530000000 1.0
C      1  0.4845060000000  0.4203140000000  0.5066440000000 1.0
C      1  0.5975530000000  0.5270900000000  0.4916610000000 1.0
C      1  0.4802190000000  0.4299490000000  0.5582280000000 1.0
C      1  0.5290150000000  0.5642310000000  0.5375640000000 1.0
C      1  0.5162070000000  0.5086280000000  0.5787240000000 1.0
C      1  0.4578710000000  0.5952360000000  0.5224030000000 1.0
C      1  0.5475240000000  0.4351440000000  0.5344470000000 1.0
C      1  0.5112570000000  0.4929470000000  0.4588800000000 1.0
C      1  0.4765130000000  0.4382940000000  0.4516450000000 1.0
C      1  0.4549790000000  0.4321550000000  0.5437650000000 1.0
C      1  0.4222890000000  0.5024070000000  0.5309990000000 1.0
C      1  0.5151650000000  0.5103910000000  0.5302440000000 1.0
C      1  0.4714790000000  0.4863240000000  0.5123830000000 1.0
C      1  0.5202920000000  0.5551830000000  0.5116990000000 1.0
C      1  0.5513320000000  0.5169710000000  0.5035450000000 1.0
C      1  0.4968840000000  0.5877920000000  0.4551630000000 1.0
C      1  0.5742330000000  0.4718210000000  0.5121530000000 1.0
C      1  0.5791380000000  0.5344950000000  0.4691170000000 1.0
C      1  0.5132060000000  0.4853480000000  0.4305920000000 1.0
C      1  0.5714000000000  0.4529730000000  0.5338290000000 1.0
C      1  0.5856110000000  0.4753630000000  0.4857630000000 1.0
C      1  0.5686020000000  0.4842260000000  0.4629720000000 1.0
C      1  0.5648850000000  0.5135490000000  0.4523310000000 1.0
C      1  0.4954860000000  0.3988670000000  0.5991000000000 1.0
C      1  0.5262360000000  0.4846030000000  0.5211770000000 1.0
C      1  0.4447330000000  0.5225890000000  0.4313010000000 1.0
C      1  0.4974120000000  0.4507760000000  0.5431630000000 1.0
C      1  0.4332870000000  0.4147810000000  0.5029610000000 1.0
C      1  0.5081110000000  0.5216380000000  0.4629350000000 1.0
C      1  0.5590660000000  0.5843430000000  0.4672210000000 1.0
C      1  0.4862850000000  0.5687400000000  0.4158280000000 1.0
C      1  0.4815100000000  0.5319260000000  0.4628980000000 1.0
C      1  0.5005230000000  0.4438170000000  0.5129380000000 1.0
C      1  0.5377440000000  0.5981270000000  0.4761640000000 1.0
C      1  0.5114000000000  0.5894100000000  0.4790880000000 1.0
C      1  0.5704520000000  0.5615350000000  0.4783630000000 1.0
C      1  0.5027800000000  0.5663720000000  0.4938080000000 1.0
C      1  0.5439500000000  0.4105540000000  0.5215880000000 1.0
C      1  0.5102320000000  0.5233140000000  0.5556400000000 1.0
C      1  0.5472580000000  0.4640710000000  0.4630000000000 1.0
C      1  0.4572650000000  0.4199710000000  0.5173420000000 1.0
C      1  0.4664030000000  0.5864360000000  0.4551550000000 1.0
C      1  0.4076400000000  0.4567760000000  0.5188960000000 1.0
C      1  0.4873120000000  0.4139090000000  0.5794550000000 1.0
C      1  0.5039270000000  0.4611540000000  0.4205210000000 1.0
C      1  0.4434220000000  0.5179900000000  0.5915250000000 1.0
C      1  0.4721820000000  0.5260120000000  0.4353850000000 1.0
C      1  0.5420640000000  0.4654480000000  0.5706050000000 1.0
C      1  0.4640230000000  0.4544200000000  0.4690730000000 1.0
C      1  0.4242420000000  0.4740100000000  0.5340280000000 1.0
C      1  0.5695290000000  0.4648550000000  0.5608740000000 1.0
C      1  0.5077300000000  0.5671050000000  0.4361450000000 1.0
C      1  0.5930130000000  0.5419830000000  0.5161820000000 1.0
C      1  0.5298330000000  0.4862820000000  0.5844850000000 1.0
C      1  0.4730540000000  0.5132970000000  0.5105950000000 1.0
C      1  0.4995850000000  0.4375340000000  0.4355160000000 1.0
C      1  0.5228210000000  0.4732090000000  0.4753070000000 1.0
C      1  0.5205260000000  0.5094450000000  0.4169230000000 1.0
END
