TITL C-627109-622-1766 -2593.49925648791 125000 -888.566700578252 0 0 145 (C1) n - 1
REM
REM in /home/nfs/bkarasulu/CARBON/AIRSS/Generating-Clusters/LCBOP/Only-C1/SD-CG/FIRE-CG
REM
REM
REM
REM
REM
REM ./C.cell (11c1c37f851c82e70ff6c80c92926a4b)
REM AIRSS Version 0.9.1 bugfix July 2018 build 013d7b7c2542+ Fri, 06 Jul 2018 19:26:36 +0100
REM compiler GCC version 9.2.1 20190827 (Red Hat 9.2.1-1)
REM options -cpp -mtune=generic -march=x86-64 -g -O0 -fpre-include=/usr/include/finclude/math-vector-fortran.h
REM seed 2079096552 -1712305772 -537762153 -647305334 -1246303207 1816511931 -1033116204 998931093 1187779127 -960944862 -723921323 -1203570072 1722238518 -528276971 798631870 -1836468233 1157066863 -1737963969 -1868035412 1839621999 -1841345625 -1570631561 -1064462913 -1711968488 1041726531 243704563 639837215 213667259 -324565022 -274092650 -168258451 533794229 989000272
REM
CELL 1.54180   50.00000   50.00000   50.00000   90.00000   90.00000   90.00000
LATT -1
SFAC C  
C      1  0.5178660000000  0.6351820000000  0.5398840000000 1.0
C      1  0.5216970000000  0.4937370000000  0.4381870000000 1.0
C      1  0.5623310000000  0.5923430000000  0.5022500000000 1.0
C      1  0.5407370000000  0.3965880000000  0.4443280000000 1.0
C      1  0.5629750000000  0.4370950000000  0.4931880000000 1.0
C      1  0.5032520000000  0.4068460000000  0.4843770000000 1.0
C      1  0.4867250000000  0.5590510000000  0.4887040000000 1.0
C      1  0.5322510000000  0.5179400000000  0.4488380000000 1.0
C      1  0.4529470000000  0.4125630000000  0.4754560000000 1.0
C      1  0.5384400000000  0.5762030000000  0.4988940000000 1.0
C      1  0.4696440000000  0.4910580000000  0.4368570000000 1.0
C      1  0.4310640000000  0.5218960000000  0.4280770000000 1.0
C      1  0.4280520000000  0.4823490000000  0.5587480000000 1.0
C      1  0.5462530000000  0.6147270000000  0.6224380000000 1.0
C      1  0.4803040000000  0.4235540000000  0.4777030000000 1.0
C      1  0.4528890000000  0.4301130000000  0.5856120000000 1.0
C      1  0.4445260000000  0.4925260000000  0.6266100000000 1.0
C      1  0.4268330000000  0.5171340000000  0.4940440000000 1.0
C      1  0.4686940000000  0.5090530000000  0.5471390000000 1.0
C      1  0.4635830000000  0.4611510000000  0.5233230000000 1.0
C      1  0.5921890000000  0.4366790000000  0.5277750000000 1.0
C      1  0.4272720000000  0.4604130000000  0.4887260000000 1.0
C      1  0.5204970000000  0.3977760000000  0.4639210000000 1.0
C      1  0.5863540000000  0.4947480000000  0.5009090000000 1.0
C      1  0.5653290000000  0.6023370000000  0.5750610000000 1.0
C      1  0.5691880000000  0.6410280000000  0.4414150000000 1.0
C      1  0.3997440000000  0.5570370000000  0.4714420000000 1.0
C      1  0.4975780000000  0.4017220000000  0.5775840000000 1.0
C      1  0.5663600000000  0.4494360000000  0.3958480000000 1.0
C      1  0.4788230000000  0.4520680000000  0.4797880000000 1.0
C      1  0.4551990000000  0.4733830000000  0.4196120000000 1.0
C      1  0.4811670000000  0.5357870000000  0.5351000000000 1.0
C      1  0.5593920000000  0.4251020000000  0.3866280000000 1.0
C      1  0.5256790000000  0.3982650000000  0.5327280000000 1.0
C      1  0.3827270000000  0.5118930000000  0.5543720000000 1.0
C      1  0.4782360000000  0.3939060000000  0.5226760000000 1.0
C      1  0.5572170000000  0.4544390000000  0.5856660000000 1.0
C      1  0.5931740000000  0.4752050000000  0.4582990000000 1.0
C      1  0.5711620000000  0.5613670000000  0.4251830000000 1.0
C      1  0.5485010000000  0.5268410000000  0.5092330000000 1.0
C      1  0.5176050000000  0.6136550000000  0.5244460000000 1.0
C      1  0.5128410000000  0.4994300000000  0.5710400000000 1.0
C      1  0.5593740000000  0.5023830000000  0.4998330000000 1.0
C      1  0.3909720000000  0.5310450000000  0.4706100000000 1.0
C      1  0.5201570000000  0.5477650000000  0.5964400000000 1.0
C      1  0.4358150000000  0.4558290000000  0.4298310000000 1.0
C      1  0.5141080000000  0.5913980000000  0.5076330000000 1.0
C      1  0.5160110000000  0.5544280000000  0.5691150000000 1.0
C      1  0.5563190000000  0.6088260000000  0.5991260000000 1.0
C      1  0.5615470000000  0.4640480000000  0.4199540000000 1.0
C      1  0.4991300000000  0.4340310000000  0.4081400000000 1.0
C      1  0.5713330000000  0.6082390000000  0.4038710000000 1.0
C      1  0.4038410000000  0.4793940000000  0.4892960000000 1.0
C      1  0.5187570000000  0.6559080000000  0.5556690000000 1.0
C      1  0.5890720000000  0.4471730000000  0.5007280000000 1.0
C      1  0.5228830000000  0.5005370000000  0.5440970000000 1.0
C      1  0.4399150000000  0.5359570000000  0.5967560000000 1.0
C      1  0.5423620000000  0.4547390000000  0.5007080000000 1.0
C      1  0.4912030000000  0.5539430000000  0.5551570000000 1.0
C      1  0.4620650000000  0.4783200000000  0.3662780000000 1.0
C      1  0.5714030000000  0.5820320000000  0.4085420000000 1.0
C      1  0.4440190000000  0.4661600000000  0.6233570000000 1.0
C      1  0.4781360000000  0.5600760000000  0.4611820000000 1.0
C      1  0.4061910000000  0.4514640000000  0.5288130000000 1.0
C      1  0.4477000000000  0.5150280000000  0.4753160000000 1.0
C      1  0.5255060000000  0.4476000000000  0.5213660000000 1.0
C      1  0.4848330000000  0.5051340000000  0.5730620000000 1.0
C      1  0.4449080000000  0.5930870000000  0.5260900000000 1.0
C      1  0.5368440000000  0.3913370000000  0.4168320000000 1.0
C      1  0.4607480000000  0.5820910000000  0.4562250000000 1.0
C      1  0.5717000000000  0.5952560000000  0.5503440000000 1.0
C      1  0.4435100000000  0.5891410000000  0.4777310000000 1.0
C      1  0.4976290000000  0.4720650000000  0.4737260000000 1.0
C      1  0.4701290000000  0.5046080000000  0.4865030000000 1.0
C      1  0.5377980000000  0.5242980000000  0.5354560000000 1.0
C      1  0.4958090000000  0.4855810000000  0.4481950000000 1.0
C      1  0.5711280000000  0.4234630000000  0.5437030000000 1.0
C      1  0.3979030000000  0.4274110000000  0.4406730000000 1.0
C      1  0.4437200000000  0.4123770000000  0.4484950000000 1.0
C      1  0.4220450000000  0.5198160000000  0.5247990000000 1.0
C      1  0.5960690000000  0.5293080000000  0.4519490000000 1.0
C      1  0.4594160000000  0.5946440000000  0.5020280000000 1.0
C      1  0.4259500000000  0.5266170000000  0.5740260000000 1.0
C      1  0.4589770000000  0.4752440000000  0.3919710000000 1.0
C      1  0.4425550000000  0.4380500000000  0.5604700000000 1.0
C      1  0.5809510000000  0.4293120000000  0.4467940000000 1.0
C      1  0.6061930000000  0.5808470000000  0.5196920000000 1.0
C      1  0.4279680000000  0.5742580000000  0.5348680000000 1.0
C      1  0.4123120000000  0.5261110000000  0.4098500000000 1.0
C      1  0.5529430000000  0.4061500000000  0.5278890000000 1.0
C      1  0.3950150000000  0.5025330000000  0.5306610000000 1.0
C      1  0.4386880000000  0.5098780000000  0.5507740000000 1.0
C      1  0.5301800000000  0.4994040000000  0.5934150000000 1.0
C      1  0.4456530000000  0.4440330000000  0.6087480000000 1.0
C      1  0.4817630000000  0.4146350000000  0.4138740000000 1.0
C      1  0.5375030000000  0.5467990000000  0.5523210000000 1.0
C      1  0.4746730000000  0.4122770000000  0.5862430000000 1.0
C      1  0.5791690000000  0.4569650000000  0.4416470000000 1.0
C      1  0.4783520000000  0.4834230000000  0.5323980000000 1.0
C      1  0.4871520000000  0.5847370000000  0.5006710000000 1.0
C      1  0.4211260000000  0.4555480000000  0.5535730000000 1.0
C      1  0.4544810000000  0.5165490000000  0.4450140000000 1.0
C      1  0.5720840000000  0.5441790000000  0.4472540000000 1.0
C      1  0.5113590000000  0.4892060000000  0.4961200000000 1.0
C      1  0.5705450000000  0.6317730000000  0.4164270000000 1.0
C      1  0.5163390000000  0.3963940000000  0.5593610000000 1.0
C      1  0.5469150000000  0.4769860000000  0.5958940000000 1.0
C      1  0.3971830000000  0.5247260000000  0.5736390000000 1.0
C      1  0.5342760000000  0.4729210000000  0.4227870000000 1.0
C      1  0.5662840000000  0.6145200000000  0.4856020000000 1.0
C      1  0.6184290000000  0.5425860000000  0.4622410000000 1.0
C      1  0.3948050000000  0.4767820000000  0.5175210000000 1.0
C      1  0.5662360000000  0.4072570000000  0.4498830000000 1.0
C      1  0.5798660000000  0.5888960000000  0.5244390000000 1.0
C      1  0.4748930000000  0.5385290000000  0.4438900000000 1.0
C      1  0.4174170000000  0.5771310000000  0.4763750000000 1.0
C      1  0.4561100000000  0.4613320000000  0.4951360000000 1.0
C      1  0.4481330000000  0.5618910000000  0.5988910000000 1.0
C      1  0.5953640000000  0.4715330000000  0.4871180000000 1.0
C      1  0.4905290000000  0.5378760000000  0.5072640000000 1.0
C      1  0.5067190000000  0.4845650000000  0.5258560000000 1.0
C      1  0.5402770000000  0.4822520000000  0.4937400000000 1.0
C      1  0.5478170000000  0.5384390000000  0.4616600000000 1.0
C      1  0.4189060000000  0.4364550000000  0.5054540000000 1.0
C      1  0.4952000000000  0.5137250000000  0.4940170000000 1.0
C      1  0.5298040000000  0.5244320000000  0.6068150000000 1.0
C      1  0.4593070000000  0.4362380000000  0.5376490000000 1.0
C      1  0.5677310000000  0.6331740000000  0.4667990000000 1.0
C      1  0.3935460000000  0.5296290000000  0.3921040000000 1.0
C      1  0.4567730000000  0.4119200000000  0.5230330000000 1.0
C      1  0.6296130000000  0.5566090000000  0.4818150000000 1.0
C      1  0.5973530000000  0.5014470000000  0.4487890000000 1.0
C      1  0.5155330000000  0.4548330000000  0.4109550000000 1.0
C      1  0.5435710000000  0.5480240000000  0.4895980000000 1.0
C      1  0.5642920000000  0.4351770000000  0.5684580000000 1.0
C      1  0.6249010000000  0.5703500000000  0.5040660000000 1.0
C      1  0.4383310000000  0.4147060000000  0.5009580000000 1.0
C      1  0.4247850000000  0.4319350000000  0.4398760000000 1.0
C      1  0.5588170000000  0.4099680000000  0.5002340000000 1.0
C      1  0.5467040000000  0.4027490000000  0.3944860000000 1.0
C      1  0.4620200000000  0.4041380000000  0.4285620000000 1.0
C      1  0.4441600000000  0.5174440000000  0.6173880000000 1.0
C      1  0.5045710000000  0.3977230000000  0.5121600000000 1.0
C      1  0.4027250000000  0.5069720000000  0.4807920000000 1.0
C      1  0.4188670000000  0.5496440000000  0.5302460000000 1.0
END
