TITL C-627106-156-436 11514.4422166548 125000 -1172.78904611394 0 0 194 (C1) n - 1
REM
REM in /home/nfs/bkarasulu/CARBON/AIRSS/Generating-Clusters/LCBOP/Only-C1/SD-CG/FIRE-CG
REM
REM
REM
REM
REM
REM ./C.cell (11c1c37f851c82e70ff6c80c92926a4b)
REM AIRSS Version 0.9.1 bugfix July 2018 build 013d7b7c2542+ Fri, 06 Jul 2018 19:26:36 +0100
REM compiler GCC version 9.2.1 20190827 (Red Hat 9.2.1-1)
REM options -cpp -mtune=generic -march=x86-64 -g -O0 -fpre-include=/usr/include/finclude/math-vector-fortran.h
REM seed -619628320 -37690506 -1863991911 -1909801961 191827153 1671565899 1792918859 1694072472 -384304318 -72159140 -805488297 1229984007 231808675 -280107952 -657904577 1329507506 -497031737 -1861735103 -2005837133 596364872 -598465008 961206000 2132607179 1965847712 -313249513 -249902568 -1412047981 -2109935020 1436919025 -1972195181 1969942914 -1295749925 609567647
REM
CELL 1.54180   50.00000   50.00000   50.00000   90.00000   90.00000   90.00000
LATT -1
SFAC C  
C      1  0.4695050000000  0.4756140000000  0.4301630000000 1.0
C      1  0.5291300000000  0.3848070000000  0.5074790000000 1.0
C      1  0.4424520000000  0.5444250000000  0.5651050000000 1.0
C      1  0.5405040000000  0.4526810000000  0.5286460000000 1.0
C      1  0.4074960000000  0.5847250000000  0.4316000000000 1.0
C      1  0.6256860000000  0.5167760000000  0.4843990000000 1.0
C      1  0.5317620000000  0.4522760000000  0.5003190000000 1.0
C      1  0.5754440000000  0.4343550000000  0.3963150000000 1.0
C      1  0.4843480000000  0.4011230000000  0.5592840000000 1.0
C      1  0.4141230000000  0.4553370000000  0.5397540000000 1.0
C      1  0.5790750000000  0.3980700000000  0.5501790000000 1.0
C      1  0.5868830000000  0.5044370000000  0.5862040000000 1.0
C      1  0.6006720000000  0.5032810000000  0.3889850000000 1.0
C      1  0.5045830000000  0.4424210000000  0.6078310000000 1.0
C      1  0.4352030000000  0.5367790000000  0.5355650000000 1.0
C      1  0.4499890000000  0.6126460000000  0.5173470000000 1.0
C      1  0.5608090000000  0.6154290000000  0.5338500000000 1.0
C      1  0.4648640000000  0.5116010000000  0.4889510000000 1.0
C      1  0.5687720000000  0.5138340000000  0.6063730000000 1.0
C      1  0.4426240000000  0.5289700000000  0.6121400000000 1.0
C      1  0.4385080000000  0.4116900000000  0.5481410000000 1.0
C      1  0.4597520000000  0.4316980000000  0.4053500000000 1.0
C      1  0.4465430000000  0.4999100000000  0.6160080000000 1.0
C      1  0.4367500000000  0.3770300000000  0.5088230000000 1.0
C      1  0.5280590000000  0.5489310000000  0.4783370000000 1.0
C      1  0.4301880000000  0.3543170000000  0.5221820000000 1.0
C      1  0.4932760000000  0.4646580000000  0.5404780000000 1.0
C      1  0.5612300000000  0.5817710000000  0.4159640000000 1.0
C      1  0.5872590000000  0.5830590000000  0.4156620000000 1.0
C      1  0.5111480000000  0.5567290000000  0.4567050000000 1.0
C      1  0.5307890000000  0.4327940000000  0.6028210000000 1.0
C      1  0.4315770000000  0.4796840000000  0.6016010000000 1.0
C      1  0.4982550000000  0.6102400000000  0.4978570000000 1.0
C      1  0.3887670000000  0.5458480000000  0.5528410000000 1.0
C      1  0.5780730000000  0.4553260000000  0.5984170000000 1.0
C      1  0.4890180000000  0.5059740000000  0.4753620000000 1.0
C      1  0.4149150000000  0.5177000000000  0.4935710000000 1.0
C      1  0.5404810000000  0.5239830000000  0.4806160000000 1.0
C      1  0.4069990000000  0.5650350000000  0.5047960000000 1.0
C      1  0.4669340000000  0.5751230000000  0.4689860000000 1.0
C      1  0.4247230000000  0.4595330000000  0.4166590000000 1.0
C      1  0.5604820000000  0.4810600000000  0.3833620000000 1.0
C      1  0.3708610000000  0.5296440000000  0.5113990000000 1.0
C      1  0.5331760000000  0.6199540000000  0.4696430000000 1.0
C      1  0.3989420000000  0.5329720000000  0.5783570000000 1.0
C      1  0.5824470000000  0.4326780000000  0.4869550000000 1.0
C      1  0.5816150000000  0.6165340000000  0.5147210000000 1.0
C      1  0.5132170000000  0.5685420000000  0.5223470000000 1.0
C      1  0.5735840000000  0.5745150000000  0.5647340000000 1.0
C      1  0.5700430000000  0.4185850000000  0.3738350000000 1.0
C      1  0.5888180000000  0.4844250000000  0.4922410000000 1.0
C      1  0.5129050000000  0.4654220000000  0.3832690000000 1.0
C      1  0.4511290000000  0.4139690000000  0.4241350000000 1.0
C      1  0.5875830000000  0.4753110000000  0.5803720000000 1.0
C      1  0.3940910000000  0.4844310000000  0.4513320000000 1.0
C      1  0.4845820000000  0.5205810000000  0.5566220000000 1.0
C      1  0.6101750000000  0.5616920000000  0.4971650000000 1.0
C      1  0.5803400000000  0.6189230000000  0.4877230000000 1.0
C      1  0.4421460000000  0.5289020000000  0.4898490000000 1.0
C      1  0.4659080000000  0.4572680000000  0.5481890000000 1.0
C      1  0.3919670000000  0.5364700000000  0.4412010000000 1.0
C      1  0.5209070000000  0.5572320000000  0.5494590000000 1.0
C      1  0.5801400000000  0.5466550000000  0.5562210000000 1.0
C      1  0.5600040000000  0.5574940000000  0.5131320000000 1.0
C      1  0.5814190000000  0.4721380000000  0.5519230000000 1.0
C      1  0.4395140000000  0.4086430000000  0.4719080000000 1.0
C      1  0.4607510000000  0.4156800000000  0.5680280000000 1.0
C      1  0.4810210000000  0.3933590000000  0.5312770000000 1.0
C      1  0.5812950000000  0.4983790000000  0.5389390000000 1.0
C      1  0.5765410000000  0.4246400000000  0.5498910000000 1.0
C      1  0.4685470000000  0.5874640000000  0.5585940000000 1.0
C      1  0.4330640000000  0.5769640000000  0.4826100000000 1.0
C      1  0.6243630000000  0.4056870000000  0.4406590000000 1.0
C      1  0.5035460000000  0.3857320000000  0.5159260000000 1.0
C      1  0.5230670000000  0.6272860000000  0.4959340000000 1.0
C      1  0.4879300000000  0.4743350000000  0.3737490000000 1.0
C      1  0.5020120000000  0.5692420000000  0.5968760000000 1.0
C      1  0.5113510000000  0.5035990000000  0.5165640000000 1.0
C      1  0.4897850000000  0.4868220000000  0.5936790000000 1.0
C      1  0.4387020000000  0.4495710000000  0.4993980000000 1.0
C      1  0.5723170000000  0.5083670000000  0.3897560000000 1.0
C      1  0.4533330000000  0.4621250000000  0.4066760000000 1.0
C      1  0.4901340000000  0.4803500000000  0.5153090000000 1.0
C      1  0.4392880000000  0.5049130000000  0.5315690000000 1.0
C      1  0.5361110000000  0.5331240000000  0.5508570000000 1.0
C      1  0.5274030000000  0.5088580000000  0.5637420000000 1.0
C      1  0.4745110000000  0.5301090000000  0.4368970000000 1.0
C      1  0.5572590000000  0.3890590000000  0.5081380000000 1.0
C      1  0.4309620000000  0.3827650000000  0.4813880000000 1.0
C      1  0.5343470000000  0.4812660000000  0.5670000000000 1.0
C      1  0.6277280000000  0.5423530000000  0.4917560000000 1.0
C      1  0.5758320000000  0.4218110000000  0.4219950000000 1.0
C      1  0.6058290000000  0.4995630000000  0.4751380000000 1.0
C      1  0.5528570000000  0.4180770000000  0.4378950000000 1.0
C      1  0.3942170000000  0.5083220000000  0.4386250000000 1.0
C      1  0.4539100000000  0.4757660000000  0.4556760000000 1.0
C      1  0.5766950000000  0.5143830000000  0.4377150000000 1.0
C      1  0.4820150000000  0.4313430000000  0.4945760000000 1.0
C      1  0.5596020000000  0.5417110000000  0.5366890000000 1.0
C      1  0.4353400000000  0.6206550000000  0.4956980000000 1.0
C      1  0.4833440000000  0.4602800000000  0.4933320000000 1.0
C      1  0.4517620000000  0.4004880000000  0.5213810000000 1.0
C      1  0.6043550000000  0.4772260000000  0.4020360000000 1.0
C      1  0.5886930000000  0.5191270000000  0.5607270000000 1.0
C      1  0.4970230000000  0.5453470000000  0.6117040000000 1.0
C      1  0.4604790000000  0.4752170000000  0.3807720000000 1.0
C      1  0.4144760000000  0.4976520000000  0.5150410000000 1.0
C      1  0.4411670000000  0.4876940000000  0.3650620000000 1.0
C      1  0.3987830000000  0.4797680000000  0.5323960000000 1.0
C      1  0.4441890000000  0.5745360000000  0.5661860000000 1.0
C      1  0.5158570000000  0.6142440000000  0.5405570000000 1.0
C      1  0.4247810000000  0.5394520000000  0.5903680000000 1.0
C      1  0.5672440000000  0.4495800000000  0.5409160000000 1.0
C      1  0.5215890000000  0.4631840000000  0.5480200000000 1.0
C      1  0.5703920000000  0.3805140000000  0.5317340000000 1.0
C      1  0.5193500000000  0.5711690000000  0.3941600000000 1.0
C      1  0.4455790000000  0.5475080000000  0.5118890000000 1.0
C      1  0.5135890000000  0.4397720000000  0.3952390000000 1.0
C      1  0.5008380000000  0.5075570000000  0.5751750000000 1.0
C      1  0.5056810000000  0.5618290000000  0.3740330000000 1.0
C      1  0.5501410000000  0.4538110000000  0.6033370000000 1.0
C      1  0.4531540000000  0.4211770000000  0.4969090000000 1.0
C      1  0.4945420000000  0.5250000000000  0.5295220000000 1.0
C      1  0.3751310000000  0.5240700000000  0.5384710000000 1.0
C      1  0.5042520000000  0.5964630000000  0.5218080000000 1.0
C      1  0.4178330000000  0.4441970000000  0.4403380000000 1.0
C      1  0.3926070000000  0.5392410000000  0.4933290000000 1.0
C      1  0.4224330000000  0.4997260000000  0.3515210000000 1.0
C      1  0.4905440000000  0.5508160000000  0.5176460000000 1.0
C      1  0.4344290000000  0.4206630000000  0.4463150000000 1.0
C      1  0.5124710000000  0.4987110000000  0.4348810000000 1.0
C      1  0.5292420000000  0.4293320000000  0.4831120000000 1.0
C      1  0.5988200000000  0.4991630000000  0.4475340000000 1.0
C      1  0.4140930000000  0.4278100000000  0.5489500000000 1.0
C      1  0.5626890000000  0.4042910000000  0.3527790000000 1.0
C      1  0.5548680000000  0.3903500000000  0.3321860000000 1.0
C      1  0.5130300000000  0.6032630000000  0.4557020000000 1.0
C      1  0.4597150000000  0.5205960000000  0.5683830000000 1.0
C      1  0.5193590000000  0.5257050000000  0.6153460000000 1.0
C      1  0.5294950000000  0.4092940000000  0.5871310000000 1.0
C      1  0.4685900000000  0.5420020000000  0.6176900000000 1.0
C      1  0.5613800000000  0.6197670000000  0.4684030000000 1.0
C      1  0.4992180000000  0.5875400000000  0.5754210000000 1.0
C      1  0.4573230000000  0.4660890000000  0.4814060000000 1.0
C      1  0.5793070000000  0.4599130000000  0.4801090000000 1.0
C      1  0.5807440000000  0.4618880000000  0.3927710000000 1.0
C      1  0.3821110000000  0.5439570000000  0.4664270000000 1.0
C      1  0.4141790000000  0.6039000000000  0.4495940000000 1.0
C      1  0.4664160000000  0.5649370000000  0.5160000000000 1.0
C      1  0.4115240000000  0.4524790000000  0.4868770000000 1.0
C      1  0.4908750000000  0.4535210000000  0.4352600000000 1.0
C      1  0.4042470000000  0.4593800000000  0.4603070000000 1.0
C      1  0.4630030000000  0.5903460000000  0.5297190000000 1.0
C      1  0.5357940000000  0.6275240000000  0.5235110000000 1.0
C      1  0.4744810000000  0.4942600000000  0.6165970000000 1.0
C      1  0.4637730000000  0.4449170000000  0.5767810000000 1.0
C      1  0.5705350000000  0.4971820000000  0.5119210000000 1.0
C      1  0.5117620000000  0.4922530000000  0.4633240000000 1.0
C      1  0.5366660000000  0.4192090000000  0.4592520000000 1.0
C      1  0.4838100000000  0.5035510000000  0.4281410000000 1.0
C      1  0.5244240000000  0.6003620000000  0.5645110000000 1.0
C      1  0.5202250000000  0.5795690000000  0.4418810000000 1.0
C      1  0.5589280000000  0.5140610000000  0.4155940000000 1.0
C      1  0.4643380000000  0.4981700000000  0.5151610000000 1.0
C      1  0.6004230000000  0.4122370000000  0.4313960000000 1.0
C      1  0.5332660000000  0.4824580000000  0.3922760000000 1.0
C      1  0.5402640000000  0.5011570000000  0.5009160000000 1.0
C      1  0.4422300000000  0.4568600000000  0.5295330000000 1.0
C      1  0.4017840000000  0.5587020000000  0.4266680000000 1.0
C      1  0.4818330000000  0.5525240000000  0.4543660000000 1.0
C      1  0.5330330000000  0.4774210000000  0.4812330000000 1.0
C      1  0.5328620000000  0.5003190000000  0.4156480000000 1.0
C      1  0.4195000000000  0.5839140000000  0.5533530000000 1.0
C      1  0.4418450000000  0.4534890000000  0.5962820000000 1.0
C      1  0.4259970000000  0.6032640000000  0.4752180000000 1.0
C      1  0.5057460000000  0.4364870000000  0.4208230000000 1.0
C      1  0.4882680000000  0.4577700000000  0.5908430000000 1.0
C      1  0.5410360000000  0.5059710000000  0.6096240000000 1.0
C      1  0.5842830000000  0.5652690000000  0.5020250000000 1.0
C      1  0.3831210000000  0.4977930000000  0.5493420000000 1.0
C      1  0.5550480000000  0.5969140000000  0.5581530000000 1.0
C      1  0.3963960000000  0.5038540000000  0.5744510000000 1.0
C      1  0.4021210000000  0.5677570000000  0.5365840000000 1.0
C      1  0.6477170000000  0.4000580000000  0.4507800000000 1.0
C      1  0.5090430000000  0.3991240000000  0.5726380000000 1.0
C      1  0.4884440000000  0.5989480000000  0.4730530000000 1.0
C      1  0.4421510000000  0.4985420000000  0.5605830000000 1.0
C      1  0.4211310000000  0.4907150000000  0.5780880000000 1.0
C      1  0.5564990000000  0.4683400000000  0.4645760000000 1.0
C      1  0.5336120000000  0.5777980000000  0.4172560000000 1.0
C      1  0.5386800000000  0.4792830000000  0.5959760000000 1.0
C      1  0.5724000000000  0.4082940000000  0.4931880000000 1.0
C      1  0.6102680000000  0.4802530000000  0.4295050000000 1.0
C      1  0.5345010000000  0.5635480000000  0.5020580000000 1.0
END
