TITL C-627108-131-63 0.0793610623491846 125000 -101.540745124485 0 0 18 (Cs) n - 1
REM
REM in /home/nfs/bkarasulu/CARBON/AIRSS/Generating-Clusters/LCBOP/Only-C1/SD-CG/FIRE-CG
REM
REM
REM
REM
REM
REM ./C.cell (11c1c37f851c82e70ff6c80c92926a4b)
REM AIRSS Version 0.9.1 bugfix July 2018 build 013d7b7c2542+ Fri, 06 Jul 2018 19:26:36 +0100
REM compiler GCC version 9.2.1 20190827 (Red Hat 9.2.1-1)
REM options -cpp -mtune=generic -march=x86-64 -g -O0 -fpre-include=/usr/include/finclude/math-vector-fortran.h
REM seed 1430070564 -1016410229 1091729163 -948482927 -319845535 -476251074 -254462080 -1286017529 2120736149 -932413661 1707980173 -1252975182 -69416621 1146780261 110946344 300306272 -498354903 1801837614 224554434 2044842016 -420728286 232412759 -1366552590 522925656 -1288897996 -465016958 1189722951 1852673094 1632481677 -1639559044 986802077 1221157629 -267538185
REM
CELL 1.54180   50.00000   50.00000   50.00000   90.00000   90.00000   90.00000
LATT -1
SFAC C  
C      1  0.4399170000000  0.4928130000000  0.4802940000000 1.0
C      1  0.5244810000000  0.5423770000000  0.4892560000000 1.0
C      1  0.5777150000000  0.5134400000000  0.5235160000000 1.0
C      1  0.5836520000000  0.5378220000000  0.5141980000000 1.0
C      1  0.5460070000000  0.5582740000000  0.4899760000000 1.0
C      1  0.4891340000000  0.5088560000000  0.4916030000000 1.0
C      1  0.5707650000000  0.5567670000000  0.5002220000000 1.0
C      1  0.5544990000000  0.4674550000000  0.5644040000000 1.0
C      1  0.5326150000000  0.5008370000000  0.5121550000000 1.0
C      1  0.5570060000000  0.4944400000000  0.5245870000000 1.0
C      1  0.5606090000000  0.4696040000000  0.5377930000000 1.0
C      1  0.4645310000000  0.5008370000000  0.4859500000000 1.0
C      1  0.4153020000000  0.4847890000000  0.4746390000000 1.0
C      1  0.3906880000000  0.4767650000000  0.4689840000000 1.0
C      1  0.5701450000000  0.4481100000000  0.5237530000000 1.0
C      1  0.3660670000000  0.4687390000000  0.4633270000000 1.0
C      1  0.3418520000000  0.4608450000000  0.4577630000000 1.0
C      1  0.5150150000000  0.5172280000000  0.4975800000000 1.0
END
