TITL C-627110-360-80 1.06238171009344 125000 -268.604324718285 0 0 46 (C1) n - 1
REM
REM in /home/nfs/bkarasulu/CARBON/AIRSS/Generating-Clusters/LCBOP/Only-C1/SD-CG/FIRE-CG
REM
REM
REM
REM
REM
REM ./C.cell (11c1c37f851c82e70ff6c80c92926a4b)
REM AIRSS Version 0.9.1 bugfix July 2018 build 013d7b7c2542+ Fri, 06 Jul 2018 19:26:36 +0100
REM compiler GCC version 9.2.1 20190827 (Red Hat 9.2.1-1)
REM options -cpp -mtune=generic -march=x86-64 -g -O0 -fpre-include=/usr/include/finclude/math-vector-fortran.h
REM seed -563248917 822081650 -2145603293 -406203212 1141712078 382595762 629402468 -1441292517 732183390 -1114486555 843846804 1411350679 -1389395037 -673250497 646461453 -1995353673 295289573 -1480981542 406465975 1342756115 -161976999 418480583 -1000500264 -235477595 2010396323 -1658238131 252650114 1664955234 -1791866274 1927241686 -1877390054 -66126247 -1302340854
REM
CELL 1.54180   50.00000   50.00000   50.00000   90.00000   90.00000   90.00000
LATT -1
SFAC C  
C      1  0.5396770000000  0.4339030000000  0.5167500000000 1.0
C      1  0.4905490000000  0.5120000000000  0.4403220000000 1.0
C      1  0.4290390000000  0.4404390000000  0.5441410000000 1.0
C      1  0.4998760000000  0.4932330000000  0.5198620000000 1.0
C      1  0.4285000000000  0.4685900000000  0.5427620000000 1.0
C      1  0.5574150000000  0.5645470000000  0.5499930000000 1.0
C      1  0.4294090000000  0.4764880000000  0.5143660000000 1.0
C      1  0.5238260000000  0.4799460000000  0.5046040000000 1.0
C      1  0.4399020000000  0.5537430000000  0.5019170000000 1.0
C      1  0.4684700000000  0.4569930000000  0.4610310000000 1.0
C      1  0.5343080000000  0.5795410000000  0.5099780000000 1.0
C      1  0.4703250000000  0.5206620000000  0.4843380000000 1.0
C      1  0.4905750000000  0.3776340000000  0.5221180000000 1.0
C      1  0.5509180000000  0.6010370000000  0.5036890000000 1.0
C      1  0.4798130000000  0.4251380000000  0.5246860000000 1.0
C      1  0.5071280000000  0.4895970000000  0.4469440000000 1.0
C      1  0.4964830000000  0.5295890000000  0.4203700000000 1.0
C      1  0.5430040000000  0.4614930000000  0.5162910000000 1.0
C      1  0.4455110000000  0.4976990000000  0.4479230000000 1.0
C      1  0.4855710000000  0.5658750000000  0.4933860000000 1.0
C      1  0.5431830000000  0.5588080000000  0.5273500000000 1.0
C      1  0.5086930000000  0.5775160000000  0.4989990000000 1.0
C      1  0.4981470000000  0.4037930000000  0.5215000000000 1.0
C      1  0.4931030000000  0.4728860000000  0.5410140000000 1.0
C      1  0.5992680000000  0.6613980000000  0.4872640000000 1.0
C      1  0.4160570000000  0.4521250000000  0.5020840000000 1.0
C      1  0.5126690000000  0.5190580000000  0.5296580000000 1.0
C      1  0.4587120000000  0.4305350000000  0.5062320000000 1.0
C      1  0.4555450000000  0.4784640000000  0.5022980000000 1.0
C      1  0.4867010000000  0.4467620000000  0.5418240000000 1.0
C      1  0.5365690000000  0.5321640000000  0.5208580000000 1.0
C      1  0.4313150000000  0.4302620000000  0.5163810000000 1.0
C      1  0.4635050000000  0.4534070000000  0.4888810000000 1.0
C      1  0.5529350000000  0.5156360000000  0.5039280000000 1.0
C      1  0.5314120000000  0.4958800000000  0.4595770000000 1.0
C      1  0.4471410000000  0.4705060000000  0.4474410000000 1.0
C      1  0.5370280000000  0.4988210000000  0.4865690000000 1.0
C      1  0.4942790000000  0.4644950000000  0.4514670000000 1.0
C      1  0.5733510000000  0.5002110000000  0.5167290000000 1.0
C      1  0.4671020000000  0.5141460000000  0.4564990000000 1.0
C      1  0.5676810000000  0.4742390000000  0.5232420000000 1.0
C      1  0.4649930000000  0.5469930000000  0.4933390000000 1.0
C      1  0.5670780000000  0.6212750000000  0.4981340000000 1.0
C      1  0.4751540000000  0.4990890000000  0.5027340000000 1.0
C      1  0.5247750000000  0.4118810000000  0.5178730000000 1.0
C      1  0.5833060000000  0.6415030000000  0.4926540000000 1.0
END
