TITL C-627111-6168-330 -1063.59746159484 125000 -651.048852143649 0 0 107 (C1) n - 1
REM
REM in /home/nfs/bkarasulu/CARBON/AIRSS/Generating-Clusters/LCBOP/Only-C1/SD-CG/FIRE-CG
REM
REM
REM
REM
REM
REM ./C.cell (11c1c37f851c82e70ff6c80c92926a4b)
REM AIRSS Version 0.9.1 bugfix July 2018 build 013d7b7c2542+ Fri, 06 Jul 2018 19:26:36 +0100
REM compiler GCC version 9.2.1 20190827 (Red Hat 9.2.1-1)
REM options -cpp -mtune=generic -march=x86-64 -g -O0 -fpre-include=/usr/include/finclude/math-vector-fortran.h
REM seed 1184798625 1275493040 -447026479 2095642766 -2076273204 165183264 -1550083538 1624875196 -1051544474 -310324137 -1301464474 910196534 311344566 -1606720412 -1204906140 619698651 300351059 -1276920246 745529138 605048319 -1506203185 717988630 1339201491 1152394121 373847103 1207706369 -970853452 597491900 865147818 161263072 -836333296 -719503057 -1549919485
REM
CELL 1.54180   50.00000   50.00000   50.00000   90.00000   90.00000   90.00000
LATT -1
SFAC C  
C      1  0.5706110000000  0.3790160000000  0.4914560000000 1.0
C      1  0.4738820000000  0.4906810000000  0.3943900000000 1.0
C      1  0.5346430000000  0.4755860000000  0.5710690000000 1.0
C      1  0.5741620000000  0.5715530000000  0.5572350000000 1.0
C      1  0.4810900000000  0.4622790000000  0.4879640000000 1.0
C      1  0.4647470000000  0.5807430000000  0.4826590000000 1.0
C      1  0.5573140000000  0.4846010000000  0.6142750000000 1.0
C      1  0.4079140000000  0.4478820000000  0.4928640000000 1.0
C      1  0.4307260000000  0.5251030000000  0.4266640000000 1.0
C      1  0.4376770000000  0.4431190000000  0.5384390000000 1.0
C      1  0.5120510000000  0.5446220000000  0.4251580000000 1.0
C      1  0.4170230000000  0.4831860000000  0.5197170000000 1.0
C      1  0.4690120000000  0.5171290000000  0.4620940000000 1.0
C      1  0.4934980000000  0.5525680000000  0.4447780000000 1.0
C      1  0.4229330000000  0.5580940000000  0.4591310000000 1.0
C      1  0.6011630000000  0.4742560000000  0.4398080000000 1.0
C      1  0.4930280000000  0.5853960000000  0.4815240000000 1.0
C      1  0.5743590000000  0.4048050000000  0.4914040000000 1.0
C      1  0.4498420000000  0.5697260000000  0.4590050000000 1.0
C      1  0.5855730000000  0.5656460000000  0.4679240000000 1.0
C      1  0.4655810000000  0.4161960000000  0.5077020000000 1.0
C      1  0.5516100000000  0.5760420000000  0.5706260000000 1.0
C      1  0.4141870000000  0.4854880000000  0.5482470000000 1.0
C      1  0.5767170000000  0.4797410000000  0.6309800000000 1.0
C      1  0.5215650000000  0.5499640000000  0.5005930000000 1.0
C      1  0.5981870000000  0.4487720000000  0.4490250000000 1.0
C      1  0.4881200000000  0.4390280000000  0.5460770000000 1.0
C      1  0.5999600000000  0.4439110000000  0.4770820000000 1.0
C      1  0.5081470000000  0.5024410000000  0.4999880000000 1.0
C      1  0.5434910000000  0.4683040000000  0.4909230000000 1.0
C      1  0.4406970000000  0.4983330000000  0.4273110000000 1.0
C      1  0.4910540000000  0.4187320000000  0.4928130000000 1.0
C      1  0.5186880000000  0.5761020000000  0.4895850000000 1.0
C      1  0.6048660000000  0.4957970000000  0.4578630000000 1.0
C      1  0.4813660000000  0.5202880000000  0.5382510000000 1.0
C      1  0.5186390000000  0.4956200000000  0.4251060000000 1.0
C      1  0.5303280000000  0.5259510000000  0.5421310000000 1.0
C      1  0.3982310000000  0.5095280000000  0.5496620000000 1.0
C      1  0.4872180000000  0.4642260000000  0.5585020000000 1.0
C      1  0.4793560000000  0.5175260000000  0.4030860000000 1.0
C      1  0.5420420000000  0.5887470000000  0.4806850000000 1.0
C      1  0.5598730000000  0.5069060000000  0.4713030000000 1.0
C      1  0.5055800000000  0.5290020000000  0.4891140000000 1.0
C      1  0.4624580000000  0.4764980000000  0.5686940000000 1.0
C      1  0.5601700000000  0.4498790000000  0.5046120000000 1.0
C      1  0.5665540000000  0.5839420000000  0.4714050000000 1.0
C      1  0.4004580000000  0.4770930000000  0.4966610000000 1.0
C      1  0.6202300000000  0.4893930000000  0.4819220000000 1.0
C      1  0.5952800000000  0.5403990000000  0.4746350000000 1.0
C      1  0.4572480000000  0.5595930000000  0.5298440000000 1.0
C      1  0.5523740000000  0.5139630000000  0.4997660000000 1.0
C      1  0.4909050000000  0.5336800000000  0.4661270000000 1.0
C      1  0.4384090000000  0.4274600000000  0.4517410000000 1.0
C      1  0.4362100000000  0.4672830000000  0.5569690000000 1.0
C      1  0.4461990000000  0.5174480000000  0.4783290000000 1.0
C      1  0.5539370000000  0.4613220000000  0.5566420000000 1.0
C      1  0.3924550000000  0.5244290000000  0.5268670000000 1.0
C      1  0.4878240000000  0.4842310000000  0.5005010000000 1.0
C      1  0.4561340000000  0.5796860000000  0.5100210000000 1.0
C      1  0.6177640000000  0.4622710000000  0.4899390000000 1.0
C      1  0.4206200000000  0.4329100000000  0.5146660000000 1.0
C      1  0.5854110000000  0.5161370000000  0.4626130000000 1.0
C      1  0.4307910000000  0.4716390000000  0.4635670000000 1.0
C      1  0.4304310000000  0.5336940000000  0.4968450000000 1.0
C      1  0.5933430000000  0.5631840000000  0.5407980000000 1.0
C      1  0.3984270000000  0.5092350000000  0.4777400000000 1.0
C      1  0.5174060000000  0.5101550000000  0.6002070000000 1.0
C      1  0.5409070000000  0.5352850000000  0.5164700000000 1.0
C      1  0.4439010000000  0.4889460000000  0.5122540000000 1.0
C      1  0.5271070000000  0.5760500000000  0.5809710000000 1.0
C      1  0.4023510000000  0.5268580000000  0.4997520000000 1.0
C      1  0.4422320000000  0.4891250000000  0.4833250000000 1.0
C      1  0.5057110000000  0.5107160000000  0.5530880000000 1.0
C      1  0.4817150000000  0.4482220000000  0.4270690000000 1.0
C      1  0.5110650000000  0.4252300000000  0.5364150000000 1.0
C      1  0.4573810000000  0.5107850000000  0.5262030000000 1.0
C      1  0.4242370000000  0.4790520000000  0.4374790000000 1.0
C      1  0.4662390000000  0.4990580000000  0.4406630000000 1.0
C      1  0.4878720000000  0.5483220000000  0.5754420000000 1.0
C      1  0.4376660000000  0.4112310000000  0.5033690000000 1.0
C      1  0.6113830000000  0.5362220000000  0.4981960000000 1.0
C      1  0.4938050000000  0.4413580000000  0.4738990000000 1.0
C      1  0.4872500000000  0.5853080000000  0.6065760000000 1.0
C      1  0.5781600000000  0.4324120000000  0.4910360000000 1.0
C      1  0.5027780000000  0.4519460000000  0.4476080000000 1.0
C      1  0.5371980000000  0.4898760000000  0.5958520000000 1.0
C      1  0.4693620000000  0.5005220000000  0.5841180000000 1.0
C      1  0.5339820000000  0.4914330000000  0.5053220000000 1.0
C      1  0.6070070000000  0.5514770000000  0.5211910000000 1.0
C      1  0.5233920000000  0.4746950000000  0.4447710000000 1.0
C      1  0.5005210000000  0.5702480000000  0.5880440000000 1.0
C      1  0.4642390000000  0.4312080000000  0.5334270000000 1.0
C      1  0.4596570000000  0.4314640000000  0.4351290000000 1.0
C      1  0.4436070000000  0.5360960000000  0.5211090000000 1.0
C      1  0.4554660000000  0.5397330000000  0.4174210000000 1.0
C      1  0.4784010000000  0.4657460000000  0.4046420000000 1.0
C      1  0.4950050000000  0.5191300000000  0.5823040000000 1.0
C      1  0.5128910000000  0.4150710000000  0.5110700000000 1.0
C      1  0.5615780000000  0.4519320000000  0.5327970000000 1.0
C      1  0.4664720000000  0.5596200000000  0.4364370000000 1.0
C      1  0.5100960000000  0.4812380000000  0.5575280000000 1.0
C      1  0.5453450000000  0.4803720000000  0.4637920000000 1.0
C      1  0.4770160000000  0.5488890000000  0.5483320000000 1.0
C      1  0.5065460000000  0.5192960000000  0.4138120000000 1.0
C      1  0.4131410000000  0.5311070000000  0.4508600000000 1.0
C      1  0.4237330000000  0.4447930000000  0.4687270000000 1.0
C      1  0.6257960000000  0.5117680000000  0.4981740000000 1.0
END
