TITL C-627110-360-815 5729.10699251868 125000 -779.420081221366 0 0 131 (C1) n - 1
REM
REM in /home/nfs/bkarasulu/CARBON/AIRSS/Generating-Clusters/LCBOP/Only-C1/SD-CG/FIRE-CG
REM
REM
REM
REM
REM
REM ./C.cell (11c1c37f851c82e70ff6c80c92926a4b)
REM AIRSS Version 0.9.1 bugfix July 2018 build 013d7b7c2542+ Fri, 06 Jul 2018 19:26:36 +0100
REM compiler GCC version 9.2.1 20190827 (Red Hat 9.2.1-1)
REM options -cpp -mtune=generic -march=x86-64 -g -O0 -fpre-include=/usr/include/finclude/math-vector-fortran.h
REM seed -671993533 1600002939 -1037183366 427773328 -1494842315 1288555210 860644121 105184655 1832927000 1039893755 1932809230 -707942750 -531516247 -1366090285 867548887 1745185661 983643038 -1011431459 1665786007 1975254194 -925024890 1721456671 -523107394 -601043184 418214012 45644574 -1649621215 684045896 663156904 -2008144163 203142822 -194548421 832149464
REM
CELL 1.54180   50.00000   50.00000   50.00000   90.00000   90.00000   90.00000
LATT -1
SFAC C  
C      1  0.5823540000000  0.5315350000000  0.4886560000000 1.0
C      1  0.4609130000000  0.5710600000000  0.5597290000000 1.0
C      1  0.5021840000000  0.5196590000000  0.4230720000000 1.0
C      1  0.5420640000000  0.5208490000000  0.3951750000000 1.0
C      1  0.4542330000000  0.4976600000000  0.5492280000000 1.0
C      1  0.5744870000000  0.5582860000000  0.5009280000000 1.0
C      1  0.5872870000000  0.5133340000000  0.3882860000000 1.0
C      1  0.4229470000000  0.4719750000000  0.4835460000000 1.0
C      1  0.4908000000000  0.5577390000000  0.4705170000000 1.0
C      1  0.6450890000000  0.4161360000000  0.5185100000000 1.0
C      1  0.5241160000000  0.5876930000000  0.4866780000000 1.0
C      1  0.4356490000000  0.4556030000000  0.6284940000000 1.0
C      1  0.5009950000000  0.4256320000000  0.5257630000000 1.0
C      1  0.3959550000000  0.4920490000000  0.5449960000000 1.0
C      1  0.6592190000000  0.3989150000000  0.5320340000000 1.0
C      1  0.5716660000000  0.5123280000000  0.5075420000000 1.0
C      1  0.4460430000000  0.5783240000000  0.5353160000000 1.0
C      1  0.4600200000000  0.4528720000000  0.6167210000000 1.0
C      1  0.5172470000000  0.4495810000000  0.5680090000000 1.0
C      1  0.4587110000000  0.4085790000000  0.5505150000000 1.0
C      1  0.5524920000000  0.4837040000000  0.5874080000000 1.0
C      1  0.5571260000000  0.5390790000000  0.4132550000000 1.0
C      1  0.5405430000000  0.4747530000000  0.4944520000000 1.0
C      1  0.4547780000000  0.4285930000000  0.5031610000000 1.0
C      1  0.6029560000000  0.4645460000000  0.5320380000000 1.0
C      1  0.5478260000000  0.4971690000000  0.5089050000000 1.0
C      1  0.5969800000000  0.5256010000000  0.4380550000000 1.0
C      1  0.4888260000000  0.5615430000000  0.5524870000000 1.0
C      1  0.5442320000000  0.4733770000000  0.4464600000000 1.0
C      1  0.5262880000000  0.5012800000000  0.5273330000000 1.0
C      1  0.4835440000000  0.4406380000000  0.5051870000000 1.0
C      1  0.5764530000000  0.5725910000000  0.6132080000000 1.0
C      1  0.4361210000000  0.4492310000000  0.4204000000000 1.0
C      1  0.4620830000000  0.5990370000000  0.4800890000000 1.0
C      1  0.4153390000000  0.4557800000000  0.5096450000000 1.0
C      1  0.6449130000000  0.4578520000000  0.4575680000000 1.0
C      1  0.5126640000000  0.5278370000000  0.5248780000000 1.0
C      1  0.4518460000000  0.5740930000000  0.5852360000000 1.0
C      1  0.4933650000000  0.5220270000000  0.5005440000000 1.0
C      1  0.4473640000000  0.4075800000000  0.4844890000000 1.0
C      1  0.5010400000000  0.4893590000000  0.4646300000000 1.0
C      1  0.4408680000000  0.4306670000000  0.5486150000000 1.0
C      1  0.5404220000000  0.4524430000000  0.5117660000000 1.0
C      1  0.4363720000000  0.5155300000000  0.4748080000000 1.0
C      1  0.4321150000000  0.4251270000000  0.4352630000000 1.0
C      1  0.4823080000000  0.5025700000000  0.5506920000000 1.0
C      1  0.5219880000000  0.5653520000000  0.4377500000000 1.0
C      1  0.5533080000000  0.5737240000000  0.6012630000000 1.0
C      1  0.5311410000000  0.4585460000000  0.4260070000000 1.0
C      1  0.5598180000000  0.5515980000000  0.5256540000000 1.0
C      1  0.4247510000000  0.4548130000000  0.3681170000000 1.0
C      1  0.5090040000000  0.5704230000000  0.5727060000000 1.0
C      1  0.4678790000000  0.5376070000000  0.5021830000000 1.0
C      1  0.4865550000000  0.4723480000000  0.5094120000000 1.0
C      1  0.4470840000000  0.5183300000000  0.6199240000000 1.0
C      1  0.5215260000000  0.4768000000000  0.4060760000000 1.0
C      1  0.5852580000000  0.5371680000000  0.4606980000000 1.0
C      1  0.4468190000000  0.4706340000000  0.4359850000000 1.0
C      1  0.3925520000000  0.5363540000000  0.4912830000000 1.0
C      1  0.6394070000000  0.4456530000000  0.4804360000000 1.0
C      1  0.4913730000000  0.4465290000000  0.5797170000000 1.0
C      1  0.4998800000000  0.5495150000000  0.4256850000000 1.0
C      1  0.5116110000000  0.5768740000000  0.4632630000000 1.0
C      1  0.5202780000000  0.5059810000000  0.4052000000000 1.0
C      1  0.5674160000000  0.5035940000000  0.5776280000000 1.0
C      1  0.4300970000000  0.4515720000000  0.3934160000000 1.0
C      1  0.5818530000000  0.5087390000000  0.5541630000000 1.0
C      1  0.5620950000000  0.5094700000000  0.3775860000000 1.0
C      1  0.4605150000000  0.4952460000000  0.4308810000000 1.0
C      1  0.4418220000000  0.5177180000000  0.4297400000000 1.0
C      1  0.5504150000000  0.5975360000000  0.4834540000000 1.0
C      1  0.5171640000000  0.5757460000000  0.5122480000000 1.0
C      1  0.4348200000000  0.5936900000000  0.4780410000000 1.0
C      1  0.4220600000000  0.5102600000000  0.4498560000000 1.0
C      1  0.4063360000000  0.4854000000000  0.4583830000000 1.0
C      1  0.4517840000000  0.3814690000000  0.4918320000000 1.0
C      1  0.4884360000000  0.4936730000000  0.4902960000000 1.0
C      1  0.4409070000000  0.5104610000000  0.5958560000000 1.0
C      1  0.4628470000000  0.5543440000000  0.4797960000000 1.0
C      1  0.5572090000000  0.6238180000000  0.4842270000000 1.0
C      1  0.4510340000000  0.5443060000000  0.4250430000000 1.0
C      1  0.4132120000000  0.4548040000000  0.6131000000000 1.0
C      1  0.6487960000000  0.4705030000000  0.4351060000000 1.0
C      1  0.5496080000000  0.5581810000000  0.4334230000000 1.0
C      1  0.5286870000000  0.4795720000000  0.4688670000000 1.0
C      1  0.4730420000000  0.5626010000000  0.4295340000000 1.0
C      1  0.4714780000000  0.4465780000000  0.4628130000000 1.0
C      1  0.5852460000000  0.5283470000000  0.4126970000000 1.0
C      1  0.4667010000000  0.5885040000000  0.5143680000000 1.0
C      1  0.4358430000000  0.4127120000000  0.4589310000000 1.0
C      1  0.5302760000000  0.5735830000000  0.5881480000000 1.0
C      1  0.4350590000000  0.4383290000000  0.5214100000000 1.0
C      1  0.5311450000000  0.5523270000000  0.5223390000000 1.0
C      1  0.4877150000000  0.5007840000000  0.4401640000000 1.0
C      1  0.5178890000000  0.4507100000000  0.5374810000000 1.0
C      1  0.5338080000000  0.4142100000000  0.4873530000000 1.0
C      1  0.4088330000000  0.5420860000000  0.5478030000000 1.0
C      1  0.4483870000000  0.4625930000000  0.4641880000000 1.0
C      1  0.3984510000000  0.4703000000000  0.5285940000000 1.0
C      1  0.6298750000000  0.4347430000000  0.5043160000000 1.0
C      1  0.4429820000000  0.5034450000000  0.5230140000000 1.0
C      1  0.5538430000000  0.4302500000000  0.5005680000000 1.0
C      1  0.4204620000000  0.5645920000000  0.5368860000000 1.0
C      1  0.4922740000000  0.5300860000000  0.5479420000000 1.0
C      1  0.5691680000000  0.5614080000000  0.4545330000000 1.0
C      1  0.4849460000000  0.4095200000000  0.5447400000000 1.0
C      1  0.5683920000000  0.5764050000000  0.4793490000000 1.0
C      1  0.4345130000000  0.5649670000000  0.4769370000000 1.0
C      1  0.4401380000000  0.4455380000000  0.5727060000000 1.0
C      1  0.5173930000000  0.4053690000000  0.5095840000000 1.0
C      1  0.5813720000000  0.4295070000000  0.5047020000000 1.0
C      1  0.4100660000000  0.5143800000000  0.5566510000000 1.0
C      1  0.5315910000000  0.5280720000000  0.4691550000000 1.0
C      1  0.5986040000000  0.4873930000000  0.5452770000000 1.0
C      1  0.5175550000000  0.4256870000000  0.4659840000000 1.0
C      1  0.4352130000000  0.5062720000000  0.5690340000000 1.0
C      1  0.5038440000000  0.4797830000000  0.5337130000000 1.0
C      1  0.4088210000000  0.5540600000000  0.4794650000000 1.0
C      1  0.5725850000000  0.5262970000000  0.5339350000000 1.0
C      1  0.5236100000000  0.4334090000000  0.4386000000000 1.0
C      1  0.4708930000000  0.5882210000000  0.4470020000000 1.0
C      1  0.5377160000000  0.4620750000000  0.5825490000000 1.0
C      1  0.4268940000000  0.4993120000000  0.4983070000000 1.0
C      1  0.4156590000000  0.4507260000000  0.5863200000000 1.0
C      1  0.4922680000000  0.5787910000000  0.5250920000000 1.0
C      1  0.4931240000000  0.4361970000000  0.4766240000000 1.0
C      1  0.4492510000000  0.5310630000000  0.5206200000000 1.0
C      1  0.3989360000000  0.5122460000000  0.5015420000000 1.0
C      1  0.4647350000000  0.4486470000000  0.5888200000000 1.0
C      1  0.6044230000000  0.4427680000000  0.5141390000000 1.0
C      1  0.5067960000000  0.5349380000000  0.4774800000000 1.0
END
