TITL C-627108-131-2011 -5.37518293996438e-08 125000 -610.160354009299 0 0 101 (C1) n - 1
REM
REM in /home/nfs/bkarasulu/CARBON/AIRSS/Generating-Clusters/LCBOP/Only-C1/SD-CG/FIRE-CG
REM
REM
REM
REM
REM
REM ./C.cell (11c1c37f851c82e70ff6c80c92926a4b)
REM AIRSS Version 0.9.1 bugfix July 2018 build 013d7b7c2542+ Fri, 06 Jul 2018 19:26:36 +0100
REM compiler GCC version 9.2.1 20190827 (Red Hat 9.2.1-1)
REM options -cpp -mtune=generic -march=x86-64 -g -O0 -fpre-include=/usr/include/finclude/math-vector-fortran.h
REM seed -196087695 2085360147 846196959 1915457814 -777076161 -1018936440 -1660812656 820203605 -671542211 -595404108 180422461 272283318 1468764864 98931307 1886807192 -1019252844 1440803851 -1151257765 -1470807240 1773741300 375419101 1052623451 1733420880 -990533297 -580688295 -33075322 -890594369 -1402184139 -1924054665 -1508082736 -559871143 777557064 -783667495
REM
CELL 1.54180   50.00000   50.00000   50.00000   90.00000   90.00000   90.00000
LATT -1
SFAC C  
C      1  0.4886750000000  0.4624020000000  0.4811690000000 1.0
C      1  0.4309070000000  0.4674160000000  0.4707810000000 1.0
C      1  0.5248620000000  0.4450670000000  0.5731890000000 1.0
C      1  0.5229700000000  0.4466270000000  0.4257800000000 1.0
C      1  0.5152180000000  0.4550000000000  0.4922140000000 1.0
C      1  0.4727720000000  0.4403260000000  0.4685340000000 1.0
C      1  0.5475150000000  0.4543260000000  0.4401840000000 1.0
C      1  0.4557190000000  0.5916850000000  0.4653570000000 1.0
C      1  0.5833670000000  0.4750660000000  0.5735080000000 1.0
C      1  0.5978000000000  0.4519730000000  0.5262150000000 1.0
C      1  0.5591460000000  0.5631350000000  0.5458750000000 1.0
C      1  0.5025570000000  0.5381640000000  0.5652870000000 1.0
C      1  0.4730470000000  0.4079600000000  0.5194280000000 1.0
C      1  0.4248490000000  0.4642230000000  0.5233540000000 1.0
C      1  0.5510280000000  0.5477760000000  0.4417670000000 1.0
C      1  0.5208940000000  0.5932100000000  0.5304660000000 1.0
C      1  0.4459030000000  0.5302210000000  0.4317800000000 1.0
C      1  0.5550720000000  0.5367390000000  0.5453740000000 1.0
C      1  0.4558900000000  0.5713620000000  0.5237080000000 1.0
C      1  0.4568070000000  0.5469970000000  0.4803470000000 1.0
C      1  0.4981980000000  0.4124500000000  0.5119060000000 1.0
C      1  0.5367750000000  0.4955330000000  0.5851580000000 1.0
C      1  0.5892420000000  0.4403150000000  0.5009910000000 1.0
C      1  0.4553980000000  0.5301890000000  0.5858220000000 1.0
C      1  0.4318600000000  0.5534460000000  0.4410150000000 1.0
C      1  0.4880910000000  0.5133540000000  0.4106470000000 1.0
C      1  0.4439010000000  0.5531100000000  0.5424370000000 1.0
C      1  0.4571960000000  0.5013130000000  0.5901740000000 1.0
C      1  0.4037590000000  0.5014280000000  0.4987800000000 1.0
C      1  0.4085180000000  0.5623640000000  0.4302820000000 1.0
C      1  0.4696650000000  0.5353040000000  0.4167230000000 1.0
C      1  0.5450600000000  0.4279370000000  0.5176080000000 1.0
C      1  0.4974560000000  0.5106490000000  0.5655660000000 1.0
C      1  0.6102260000000  0.4663100000000  0.4625400000000 1.0
C      1  0.4392990000000  0.4858600000000  0.5728140000000 1.0
C      1  0.5595580000000  0.4165220000000  0.4725480000000 1.0
C      1  0.4823640000000  0.5604780000000  0.4230790000000 1.0
C      1  0.5895780000000  0.4507270000000  0.4727960000000 1.0
C      1  0.4448630000000  0.4424870000000  0.4736350000000 1.0
C      1  0.4824210000000  0.4888880000000  0.6023940000000 1.0
C      1  0.4452480000000  0.5656840000000  0.4629870000000 1.0
C      1  0.4743080000000  0.4730460000000  0.5051230000000 1.0
C      1  0.4945310000000  0.4864340000000  0.4633260000000 1.0
C      1  0.4849060000000  0.4904120000000  0.5484730000000 1.0
C      1  0.5357730000000  0.5170130000000  0.5388680000000 1.0
C      1  0.4194720000000  0.4773330000000  0.4969370000000 1.0
C      1  0.4282550000000  0.4770640000000  0.5493400000000 1.0
C      1  0.4617050000000  0.4413730000000  0.4231760000000 1.0
C      1  0.5388820000000  0.4252550000000  0.5856360000000 1.0
C      1  0.4793900000000  0.4302080000000  0.4427770000000 1.0
C      1  0.5077970000000  0.4999160000000  0.5911380000000 1.0
C      1  0.5154410000000  0.5229250000000  0.4116610000000 1.0
C      1  0.6306450000000  0.4799800000000  0.4538610000000 1.0
C      1  0.4490850000000  0.5078560000000  0.4488510000000 1.0
C      1  0.5267440000000  0.5443930000000  0.4265410000000 1.0
C      1  0.5201590000000  0.4909070000000  0.4525020000000 1.0
C      1  0.4579990000000  0.4699930000000  0.4233930000000 1.0
C      1  0.4594310000000  0.5522280000000  0.5672670000000 1.0
C      1  0.4714590000000  0.4931850000000  0.5241360000000 1.0
C      1  0.5179800000000  0.5244060000000  0.5159330000000 1.0
C      1  0.4356450000000  0.5288070000000  0.5293490000000 1.0
C      1  0.4482190000000  0.4166460000000  0.5236920000000 1.0
C      1  0.4791030000000  0.6017560000000  0.4741040000000 1.0
C      1  0.5323430000000  0.4782110000000  0.4962140000000 1.0
C      1  0.5071700000000  0.5644080000000  0.4360260000000 1.0
C      1  0.4303910000000  0.4364680000000  0.5235320000000 1.0
C      1  0.5188890000000  0.6056260000000  0.5038950000000 1.0
C      1  0.4955350000000  0.5432460000000  0.5098780000000 1.0
C      1  0.4745590000000  0.5058510000000  0.4611340000000 1.0
C      1  0.5460390000000  0.5689670000000  0.4605530000000 1.0
C      1  0.5358030000000  0.4919680000000  0.5550130000000 1.0
C      1  0.5061670000000  0.5950930000000  0.4796560000000 1.0
C      1  0.4717730000000  0.5319910000000  0.4982800000000 1.0
C      1  0.5461540000000  0.4824010000000  0.4455240000000 1.0
C      1  0.5665990000000  0.4205670000000  0.5004090000000 1.0
C      1  0.4395680000000  0.4810480000000  0.4451810000000 1.0
C      1  0.4842760000000  0.5685410000000  0.5199820000000 1.0
C      1  0.5303300000000  0.6307260000000  0.5014730000000 1.0
C      1  0.4973520000000  0.4501650000000  0.5784330000000 1.0
C      1  0.5186400000000  0.5787310000000  0.4596790000000 1.0
C      1  0.5697280000000  0.5273000000000  0.4428440000000 1.0
C      1  0.5069740000000  0.4669600000000  0.4115930000000 1.0
C      1  0.4862750000000  0.4602150000000  0.6028460000000 1.0
C      1  0.5462080000000  0.5858920000000  0.5403510000000 1.0
C      1  0.5235440000000  0.5049260000000  0.4959350000000 1.0
C      1  0.5670180000000  0.5007140000000  0.4434920000000 1.0
C      1  0.4110200000000  0.5202820000000  0.5188280000000 1.0
C      1  0.5548810000000  0.4729630000000  0.5118770000000 1.0
C      1  0.5640950000000  0.4864010000000  0.5900530000000 1.0
C      1  0.5944200000000  0.4636520000000  0.5509950000000 1.0
C      1  0.4828700000000  0.4843230000000  0.4128860000000 1.0
C      1  0.3827270000000  0.5059850000000  0.4819450000000 1.0
C      1  0.5502050000000  0.4525400000000  0.5311430000000 1.0
C      1  0.4982580000000  0.5796040000000  0.5421010000000 1.0
C      1  0.5365690000000  0.4624400000000  0.5532410000000 1.0
C      1  0.5191430000000  0.4296860000000  0.5054920000000 1.0
C      1  0.4579000000000  0.5160080000000  0.5167710000000 1.0
C      1  0.4852870000000  0.4631560000000  0.5566240000000 1.0
C      1  0.5063330000000  0.4257150000000  0.4354930000000 1.0
C      1  0.4878190000000  0.5623010000000  0.5637580000000 1.0
C      1  0.5665370000000  0.4397660000000  0.4565690000000 1.0
END
