TITL C-627111-6168-402 -2.70234624038679e-07 125000 -312.360874618413 0 0 53 (C1) n - 1
REM
REM in /home/nfs/bkarasulu/CARBON/AIRSS/Generating-Clusters/LCBOP/Only-C1/SD-CG/FIRE-CG
REM
REM
REM
REM
REM
REM ./C.cell (11c1c37f851c82e70ff6c80c92926a4b)
REM AIRSS Version 0.9.1 bugfix July 2018 build 013d7b7c2542+ Fri, 06 Jul 2018 19:26:36 +0100
REM compiler GCC version 9.2.1 20190827 (Red Hat 9.2.1-1)
REM options -cpp -mtune=generic -march=x86-64 -g -O0 -fpre-include=/usr/include/finclude/math-vector-fortran.h
REM seed 1687212963 -1938340966 -1464763379 810373454 -1719261899 1346637959 -408266586 1819604155 1040323511 -2018244171 1327820575 -1176510399 -1316203265 1276584623 1131252103 808003723 -1632177704 -414856109 72422405 -1553579414 -962178307 -1775313437 1723597659 -357955244 1702970928 -1418798998 403136123 350677535 936280702 1533399179 -1589628595 317289642 -2089339856
REM
CELL 1.54180   50.00000   50.00000   50.00000   90.00000   90.00000   90.00000
LATT -1
SFAC C  
C      1  0.4535860000000  0.4958940000000  0.5518390000000 1.0
C      1  0.5428660000000  0.4877420000000  0.5300470000000 1.0
C      1  0.5551630000000  0.4760340000000  0.5060340000000 1.0
C      1  0.5753020000000  0.4320180000000  0.4971530000000 1.0
C      1  0.5268540000000  0.5540560000000  0.5504410000000 1.0
C      1  0.4619780000000  0.3875770000000  0.5453310000000 1.0
C      1  0.4441680000000  0.4531870000000  0.4920840000000 1.0
C      1  0.5203600000000  0.5608220000000  0.4810480000000 1.0
C      1  0.5199530000000  0.5884010000000  0.4403860000000 1.0
C      1  0.4714190000000  0.4055470000000  0.5289900000000 1.0
C      1  0.4727680000000  0.5075050000000  0.4787220000000 1.0
C      1  0.4610740000000  0.4964370000000  0.5023200000000 1.0
C      1  0.5524850000000  0.4474270000000  0.4982890000000 1.0
C      1  0.5427050000000  0.5323220000000  0.5527390000000 1.0
C      1  0.5095050000000  0.4474460000000  0.4704540000000 1.0
C      1  0.4763590000000  0.4249120000000  0.4402100000000 1.0
C      1  0.4837310000000  0.4351920000000  0.4648970000000 1.0
C      1  0.5383080000000  0.4993460000000  0.4446970000000 1.0
C      1  0.5177530000000  0.5722470000000  0.5069570000000 1.0
C      1  0.4985010000000  0.4983360000000  0.4721130000000 1.0
C      1  0.4395760000000  0.4916410000000  0.5733960000000 1.0
C      1  0.5044860000000  0.4663290000000  0.5126620000000 1.0
C      1  0.5316660000000  0.5348020000000  0.4767570000000 1.0
C      1  0.5597550000000  0.4887420000000  0.4581480000000 1.0
C      1  0.5144730000000  0.4851420000000  0.5305340000000 1.0
C      1  0.5331870000000  0.6014620000000  0.4221260000000 1.0
C      1  0.5549780000000  0.5071410000000  0.5474280000000 1.0
C      1  0.4811310000000  0.4249100000000  0.5116900000000 1.0
C      1  0.4383810000000  0.5616160000000  0.4875190000000 1.0
C      1  0.4781830000000  0.5718880000000  0.4596500000000 1.0
C      1  0.4607680000000  0.5276680000000  0.4637080000000 1.0
C      1  0.5068470000000  0.4375630000000  0.5141490000000 1.0
C      1  0.5266320000000  0.4347140000000  0.4920360000000 1.0
C      1  0.4551960000000  0.5576590000000  0.5319320000000 1.0
C      1  0.4967710000000  0.5068590000000  0.5318890000000 1.0
C      1  0.4195090000000  0.5251620000000  0.5134210000000 1.0
C      1  0.5062550000000  0.5740340000000  0.4599210000000 1.0
C      1  0.4570110000000  0.5552770000000  0.4673840000000 1.0
C      1  0.5794390000000  0.5011020000000  0.5595190000000 1.0
C      1  0.4692300000000  0.4154410000000  0.4170030000000 1.0
C      1  0.5042450000000  0.5283560000000  0.5174040000000 1.0
C      1  0.5191010000000  0.5141040000000  0.4602210000000 1.0
C      1  0.5049050000000  0.4735400000000  0.4835110000000 1.0
C      1  0.5621310000000  0.4956240000000  0.4858870000000 1.0
C      1  0.6024600000000  0.4949690000000  0.5700810000000 1.0
C      1  0.4355230000000  0.5491230000000  0.5129780000000 1.0
C      1  0.5547080000000  0.5234820000000  0.4900310000000 1.0
C      1  0.4694980000000  0.5002350000000  0.5294430000000 1.0
C      1  0.4376070000000  0.4801620000000  0.4989650000000 1.0
C      1  0.5084810000000  0.5681870000000  0.5336720000000 1.0
C      1  0.4165950000000  0.4988130000000  0.5058760000000 1.0
C      1  0.4800650000000  0.5668120000000  0.5377440000000 1.0
C      1  0.4663670000000  0.4349880000000  0.4885610000000 1.0
END
