TITL C-627112-676-1966 3.05885576202459e-07 125000 -731.681104930451 0 0 121 (C1) n - 1
REM
REM in /home/nfs/bkarasulu/CARBON/AIRSS/Generating-Clusters/LCBOP/Only-C1/SD-CG/FIRE-CG
REM
REM
REM
REM
REM
REM ./C.cell (11c1c37f851c82e70ff6c80c92926a4b)
REM AIRSS Version 0.9.1 bugfix July 2018 build 013d7b7c2542+ Fri, 06 Jul 2018 19:26:36 +0100
REM compiler GCC version 9.2.1 20190827 (Red Hat 9.2.1-1)
REM options -cpp -mtune=generic -march=x86-64 -g -O0 -fpre-include=/usr/include/finclude/math-vector-fortran.h
REM seed -472523699 347125226 -631835570 -726260007 -697414899 -1958762602 1093470954 1789840513 509688939 2094321083 -2019757253 -443030636 651858534 -1249600993 -990607127 1938839367 -908346906 -1954870066 -1662288460 -1347121298 -564739529 1554395693 -1073516358 1458259229 -1205544006 -89754686 1473582639 -676015335 -531710802 1213360157 757657438 1950561843 -1436717948
REM
CELL 1.54180   50.00000   50.00000   50.00000   90.00000   90.00000   90.00000
LATT -1
SFAC C  
C      1  0.4767230000000  0.5871550000000  0.5545440000000 1.0
C      1  0.4495890000000  0.4977660000000  0.4432710000000 1.0
C      1  0.4513020000000  0.5754190000000  0.5596640000000 1.0
C      1  0.4777400000000  0.6106620000000  0.5382820000000 1.0
C      1  0.4676760000000  0.5290220000000  0.5294030000000 1.0
C      1  0.6229350000000  0.4747760000000  0.4993540000000 1.0
C      1  0.5312570000000  0.5213860000000  0.4502500000000 1.0
C      1  0.5318730000000  0.4072950000000  0.5242260000000 1.0
C      1  0.5509610000000  0.4584830000000  0.4051310000000 1.0
C      1  0.4974310000000  0.3976070000000  0.4808280000000 1.0
C      1  0.4701540000000  0.6082910000000  0.4682570000000 1.0
C      1  0.4082420000000  0.4651660000000  0.5266180000000 1.0
C      1  0.4483860000000  0.5236220000000  0.5085840000000 1.0
C      1  0.4428820000000  0.4566480000000  0.5680870000000 1.0
C      1  0.5244340000000  0.4092780000000  0.4806810000000 1.0
C      1  0.5842180000000  0.4442610000000  0.4518130000000 1.0
C      1  0.5472890000000  0.4074080000000  0.4638420000000 1.0
C      1  0.5014200000000  0.6267280000000  0.5374290000000 1.0
C      1  0.4164740000000  0.5102050000000  0.5452800000000 1.0
C      1  0.5718630000000  0.5568020000000  0.5051700000000 1.0
C      1  0.5012980000000  0.4889910000000  0.4756370000000 1.0
C      1  0.5860040000000  0.5231650000000  0.5642040000000 1.0
C      1  0.4545510000000  0.5194470000000  0.5742050000000 1.0
C      1  0.4664720000000  0.4739580000000  0.4420750000000 1.0
C      1  0.4603690000000  0.5899060000000  0.4483680000000 1.0
C      1  0.6415120000000  0.4575230000000  0.5053720000000 1.0
C      1  0.5012170000000  0.5091480000000  0.5632300000000 1.0
C      1  0.5095880000000  0.4533360000000  0.5402390000000 1.0
C      1  0.5151960000000  0.6270850000000  0.5128970000000 1.0
C      1  0.4627590000000  0.4592520000000  0.5483540000000 1.0
C      1  0.5502960000000  0.4663420000000  0.5656300000000 1.0
C      1  0.4053950000000  0.4672460000000  0.5978620000000 1.0
C      1  0.4246150000000  0.5098710000000  0.5168550000000 1.0
C      1  0.4333100000000  0.4139170000000  0.5169500000000 1.0
C      1  0.5765550000000  0.5068220000000  0.5414740000000 1.0
C      1  0.4299170000000  0.5288860000000  0.5629290000000 1.0
C      1  0.4837900000000  0.5178850000000  0.3906220000000 1.0
C      1  0.5954230000000  0.5072580000000  0.5857500000000 1.0
C      1  0.4805050000000  0.4862110000000  0.6001680000000 1.0
C      1  0.5073520000000  0.3948050000000  0.5312610000000 1.0
C      1  0.5583300000000  0.4312100000000  0.4534420000000 1.0
C      1  0.5275630000000  0.5187420000000  0.5243530000000 1.0
C      1  0.5620500000000  0.5699750000000  0.5263130000000 1.0
C      1  0.4863270000000  0.4720590000000  0.6226090000000 1.0
C      1  0.5082950000000  0.4500590000000  0.5088290000000 1.0
C      1  0.5879380000000  0.5100280000000  0.5129160000000 1.0
C      1  0.5125710000000  0.4787950000000  0.5015730000000 1.0
C      1  0.4601960000000  0.5207800000000  0.4829020000000 1.0
C      1  0.4045780000000  0.5613390000000  0.4081060000000 1.0
C      1  0.4944330000000  0.4078820000000  0.4299620000000 1.0
C      1  0.4767650000000  0.5225060000000  0.5554650000000 1.0
C      1  0.4885470000000  0.4646310000000  0.4610060000000 1.0
C      1  0.4888550000000  0.4643390000000  0.5561520000000 1.0
C      1  0.5042700000000  0.5365730000000  0.4848020000000 1.0
C      1  0.5544710000000  0.5619290000000  0.4437280000000 1.0
C      1  0.4169680000000  0.4370230000000  0.5252230000000 1.0
C      1  0.5186070000000  0.4209060000000  0.5705450000000 1.0
C      1  0.4207050000000  0.4830340000000  0.5064290000000 1.0
C      1  0.4565180000000  0.6155620000000  0.4914220000000 1.0
C      1  0.4078060000000  0.4822320000000  0.5511040000000 1.0
C      1  0.5083540000000  0.4316360000000  0.4223020000000 1.0
C      1  0.5862070000000  0.4730630000000  0.4434340000000 1.0
C      1  0.5705000000000  0.4732120000000  0.4181440000000 1.0
C      1  0.4072900000000  0.4740850000000  0.4458060000000 1.0
C      1  0.5912010000000  0.4958460000000  0.4638590000000 1.0
C      1  0.5090940000000  0.5381100000000  0.4564740000000 1.0
C      1  0.5886380000000  0.4822250000000  0.5936200000000 1.0
C      1  0.4854900000000  0.5338190000000  0.4118440000000 1.0
C      1  0.4578500000000  0.5224670000000  0.4546110000000 1.0
C      1  0.5079220000000  0.5876870000000  0.4484350000000 1.0
C      1  0.4857380000000  0.3961010000000  0.5091220000000 1.0
C      1  0.4946770000000  0.4840480000000  0.5755420000000 1.0
C      1  0.5570280000000  0.4795470000000  0.5103950000000 1.0
C      1  0.4862200000000  0.4449760000000  0.4862980000000 1.0
C      1  0.4605420000000  0.4059610000000  0.5245950000000 1.0
C      1  0.4838990000000  0.5431260000000  0.4396410000000 1.0
C      1  0.5729420000000  0.5482210000000  0.5670490000000 1.0
C      1  0.6020600000000  0.4919460000000  0.4928720000000 1.0
C      1  0.4311010000000  0.5573050000000  0.5602880000000 1.0
C      1  0.4587740000000  0.6150700000000  0.5180250000000 1.0
C      1  0.5546420000000  0.5650320000000  0.5531620000000 1.0
C      1  0.4165260000000  0.5819740000000  0.4198240000000 1.0
C      1  0.5271110000000  0.5114820000000  0.5521070000000 1.0
C      1  0.5271340000000  0.4955850000000  0.4604770000000 1.0
C      1  0.4656970000000  0.4614240000000  0.4165130000000 1.0
C      1  0.4993250000000  0.6082700000000  0.4671180000000 1.0
C      1  0.4696750000000  0.4071170000000  0.5528490000000 1.0
C      1  0.4703720000000  0.4699670000000  0.3914910000000 1.0
C      1  0.4359990000000  0.5909240000000  0.4354450000000 1.0
C      1  0.4827550000000  0.5732560000000  0.4411500000000 1.0
C      1  0.4595340000000  0.5052230000000  0.5979790000000 1.0
C      1  0.5284070000000  0.5713940000000  0.5618770000000 1.0
C      1  0.5306680000000  0.4454560000000  0.5589600000000 1.0
C      1  0.5097390000000  0.6412900000000  0.5589590000000 1.0
C      1  0.4034520000000  0.5348440000000  0.4064730000000 1.0
C      1  0.5144440000000  0.6205070000000  0.4870470000000 1.0
C      1  0.4180730000000  0.4686840000000  0.5738790000000 1.0
C      1  0.4873550000000  0.3963980000000  0.4539520000000 1.0
C      1  0.5624470000000  0.4704770000000  0.4860820000000 1.0
C      1  0.5191420000000  0.5399060000000  0.5081370000000 1.0
C      1  0.4590530000000  0.4605340000000  0.5205930000000 1.0
C      1  0.4209140000000  0.3969560000000  0.4988350000000 1.0
C      1  0.4780620000000  0.4935230000000  0.3812910000000 1.0
C      1  0.5105960000000  0.4494810000000  0.4447200000000 1.0
C      1  0.5771760000000  0.5225520000000  0.4667830000000 1.0
C      1  0.4873500000000  0.5134440000000  0.4854160000000 1.0
C      1  0.4112610000000  0.5113700000000  0.4160380000000 1.0
C      1  0.5294540000000  0.4409990000000  0.4041020000000 1.0
C      1  0.5376770000000  0.4511690000000  0.4524500000000 1.0
C      1  0.4224280000000  0.4942150000000  0.4350410000000 1.0
C      1  0.5509870000000  0.4936160000000  0.5538920000000 1.0
C      1  0.5567470000000  0.5343690000000  0.4504510000000 1.0
C      1  0.5280050000000  0.4266010000000  0.5036150000000 1.0
C      1  0.5344760000000  0.5801370000000  0.4429630000000 1.0
C      1  0.5018990000000  0.5761960000000  0.5621480000000 1.0
C      1  0.5788370000000  0.5317450000000  0.4948860000000 1.0
C      1  0.5455360000000  0.4748190000000  0.4641490000000 1.0
C      1  0.4981790000000  0.4044880000000  0.5573750000000 1.0
C      1  0.5331970000000  0.4936340000000  0.5123990000000 1.0
C      1  0.5704230000000  0.4637820000000  0.5856100000000 1.0
C      1  0.4449480000000  0.4700740000000  0.4997280000000 1.0
END
