TITL C-627111-6168-510 3067.79030458326 125000 -1066.37396495388 0 0 173 (C1) n - 1
REM
REM in /home/nfs/bkarasulu/CARBON/AIRSS/Generating-Clusters/LCBOP/Only-C1/SD-CG/FIRE-CG
REM
REM
REM
REM
REM
REM ./C.cell (11c1c37f851c82e70ff6c80c92926a4b)
REM AIRSS Version 0.9.1 bugfix July 2018 build 013d7b7c2542+ Fri, 06 Jul 2018 19:26:36 +0100
REM compiler GCC version 9.2.1 20190827 (Red Hat 9.2.1-1)
REM options -cpp -mtune=generic -march=x86-64 -g -O0 -fpre-include=/usr/include/finclude/math-vector-fortran.h
REM seed 166357598 -2126105553 -300691037 -913505284 1128008035 1187387939 -747242267 437670114 257573766 -762440114 -338714285 216087396 -1036086032 -107335905 223930293 -1610382871 -310376882 2111629545 -1107561307 44760729 362838934 -2046660209 746200657 -791470956 -1530437485 35735145 1820212460 -1828295845 514449364 -1714946522 -272781565 1195095259 -2134486878
REM
CELL 1.54180   50.00000   50.00000   50.00000   90.00000   90.00000   90.00000
LATT -1
SFAC C  
C      1  0.4726360000000  0.5547990000000  0.4043820000000 1.0
C      1  0.5640610000000  0.4072780000000  0.5003940000000 1.0
C      1  0.4315730000000  0.3978720000000  0.5362720000000 1.0
C      1  0.5010700000000  0.6023260000000  0.5710150000000 1.0
C      1  0.5440780000000  0.4253230000000  0.5369650000000 1.0
C      1  0.4260380000000  0.5060600000000  0.4882630000000 1.0
C      1  0.6405880000000  0.5308860000000  0.5263950000000 1.0
C      1  0.4425200000000  0.4790840000000  0.4545230000000 1.0
C      1  0.4553770000000  0.3809960000000  0.5364660000000 1.0
C      1  0.4645880000000  0.6015850000000  0.5254110000000 1.0
C      1  0.6288910000000  0.5754800000000  0.5125900000000 1.0
C      1  0.5982220000000  0.5390420000000  0.5040420000000 1.0
C      1  0.5081130000000  0.4649920000000  0.5975060000000 1.0
C      1  0.4441310000000  0.5305770000000  0.4523960000000 1.0
C      1  0.5596860000000  0.5399870000000  0.5537550000000 1.0
C      1  0.4895520000000  0.5028810000000  0.5613270000000 1.0
C      1  0.4999990000000  0.4780420000000  0.5720330000000 1.0
C      1  0.5162460000000  0.4788270000000  0.4674030000000 1.0
C      1  0.5373750000000  0.5117020000000  0.5524030000000 1.0
C      1  0.5450880000000  0.6150290000000  0.5498870000000 1.0
C      1  0.5618780000000  0.4932780000000  0.5116600000000 1.0
C      1  0.4463330000000  0.4515140000000  0.5291360000000 1.0
C      1  0.4243920000000  0.4248330000000  0.5822880000000 1.0
C      1  0.5432780000000  0.4595250000000  0.5674210000000 1.0
C      1  0.5524770000000  0.5518930000000  0.4010630000000 1.0
C      1  0.5435900000000  0.6122950000000  0.4238470000000 1.0
C      1  0.5710750000000  0.4196360000000  0.5263840000000 1.0
C      1  0.6062110000000  0.4522150000000  0.5378000000000 1.0
C      1  0.5091460000000  0.3897800000000  0.5270860000000 1.0
C      1  0.4637520000000  0.5304350000000  0.3934420000000 1.0
C      1  0.4906670000000  0.6125320000000  0.5258280000000 1.0
C      1  0.5354410000000  0.5527970000000  0.4781880000000 1.0
C      1  0.5370210000000  0.4135680000000  0.4951910000000 1.0
C      1  0.5186370000000  0.5700620000000  0.5283540000000 1.0
C      1  0.4677790000000  0.4834370000000  0.4134490000000 1.0
C      1  0.4782680000000  0.4128260000000  0.4297700000000 1.0
C      1  0.4349310000000  0.5574150000000  0.4418990000000 1.0
C      1  0.5671180000000  0.4527240000000  0.4201550000000 1.0
C      1  0.6118560000000  0.5382200000000  0.4504420000000 1.0
C      1  0.4173250000000  0.4206850000000  0.4646030000000 1.0
C      1  0.4391930000000  0.5281990000000  0.3797330000000 1.0
C      1  0.5998700000000  0.5441280000000  0.4261600000000 1.0
C      1  0.4227190000000  0.5028070000000  0.5790580000000 1.0
C      1  0.4734980000000  0.5668930000000  0.4657680000000 1.0
C      1  0.4646310000000  0.5399430000000  0.4707630000000 1.0
C      1  0.4888630000000  0.5332780000000  0.5092540000000 1.0
C      1  0.3974240000000  0.4511630000000  0.5015320000000 1.0
C      1  0.5778240000000  0.5482250000000  0.4104910000000 1.0
C      1  0.4816760000000  0.4276370000000  0.5638840000000 1.0
C      1  0.5441170000000  0.4818810000000  0.4540270000000 1.0
C      1  0.5444940000000  0.6285530000000  0.5261130000000 1.0
C      1  0.5704120000000  0.5316450000000  0.5847400000000 1.0
C      1  0.5174650000000  0.4440170000000  0.4336850000000 1.0
C      1  0.4443690000000  0.4033820000000  0.3943750000000 1.0
C      1  0.4553480000000  0.4613280000000  0.4741110000000 1.0
C      1  0.4507480000000  0.4096500000000  0.4207170000000 1.0
C      1  0.6564950000000  0.5134440000000  0.5374380000000 1.0
C      1  0.4533140000000  0.5854940000000  0.4760670000000 1.0
C      1  0.5114910000000  0.5949280000000  0.5166700000000 1.0
C      1  0.5421470000000  0.4598820000000  0.4310130000000 1.0
C      1  0.5155090000000  0.6338300000000  0.4815070000000 1.0
C      1  0.6036490000000  0.4266850000000  0.4915060000000 1.0
C      1  0.4102070000000  0.4264900000000  0.4923010000000 1.0
C      1  0.4804180000000  0.4604220000000  0.6095630000000 1.0
C      1  0.4092720000000  0.4854290000000  0.5367400000000 1.0
C      1  0.4221550000000  0.5574750000000  0.5600620000000 1.0
C      1  0.4543620000000  0.4961310000000  0.5275130000000 1.0
C      1  0.3921550000000  0.4764150000000  0.5151490000000 1.0
C      1  0.4971860000000  0.5938850000000  0.4091510000000 1.0
C      1  0.5119410000000  0.5134040000000  0.6157640000000 1.0
C      1  0.4556300000000  0.5716480000000  0.4231530000000 1.0
C      1  0.5613310000000  0.6019730000000  0.4409120000000 1.0
C      1  0.3768630000000  0.4978050000000  0.5042600000000 1.0
C      1  0.4358870000000  0.4762760000000  0.5349520000000 1.0
C      1  0.4769660000000  0.4473110000000  0.4614570000000 1.0
C      1  0.4183330000000  0.5113070000000  0.3792000000000 1.0
C      1  0.5500250000000  0.3929710000000  0.4453440000000 1.0
C      1  0.5338560000000  0.5315620000000  0.4967180000000 1.0
C      1  0.4334410000000  0.5052420000000  0.4612460000000 1.0
C      1  0.5285900000000  0.5386090000000  0.6132650000000 1.0
C      1  0.4993520000000  0.5664360000000  0.4000590000000 1.0
C      1  0.4755640000000  0.5061070000000  0.4014480000000 1.0
C      1  0.4532680000000  0.4663780000000  0.6004770000000 1.0
C      1  0.3807380000000  0.5246640000000  0.5049640000000 1.0
C      1  0.4277980000000  0.5843760000000  0.5519700000000 1.0
C      1  0.5749880000000  0.5367070000000  0.5223470000000 1.0
C      1  0.5940540000000  0.4879270000000  0.5750890000000 1.0
C      1  0.4456270000000  0.5123150000000  0.5070600000000 1.0
C      1  0.5081340000000  0.4159460000000  0.4293130000000 1.0
C      1  0.5684560000000  0.5818510000000  0.4569530000000 1.0
C      1  0.4450760000000  0.5593150000000  0.5101100000000 1.0
C      1  0.5930140000000  0.4504660000000  0.4270040000000 1.0
C      1  0.5557210000000  0.5202990000000  0.5101430000000 1.0
C      1  0.4264260000000  0.5715650000000  0.4683230000000 1.0
C      1  0.5745220000000  0.3982070000000  0.4557050000000 1.0
C      1  0.6170570000000  0.4415670000000  0.4717360000000 1.0
C      1  0.4381590000000  0.3996240000000  0.3689030000000 1.0
C      1  0.5200290000000  0.6099370000000  0.4114640000000 1.0
C      1  0.4706660000000  0.5090520000000  0.5847440000000 1.0
C      1  0.5442720000000  0.4842280000000  0.5554170000000 1.0
C      1  0.6116180000000  0.4484530000000  0.4462570000000 1.0
C      1  0.5708670000000  0.4733750000000  0.4968060000000 1.0
C      1  0.5071100000000  0.3882040000000  0.4718860000000 1.0
C      1  0.5079770000000  0.4911850000000  0.4919740000000 1.0
C      1  0.4257790000000  0.3935550000000  0.3181670000000 1.0
C      1  0.5840200000000  0.4077720000000  0.4804830000000 1.0
C      1  0.4227630000000  0.4080590000000  0.5613800000000 1.0
C      1  0.4178680000000  0.5583620000000  0.4967610000000 1.0
C      1  0.4090970000000  0.5370680000000  0.5437300000000 1.0
C      1  0.5702440000000  0.5293170000000  0.4633310000000 1.0
C      1  0.4803410000000  0.4346610000000  0.5061050000000 1.0
C      1  0.4994190000000  0.4770400000000  0.5154060000000 1.0
C      1  0.4963630000000  0.6238780000000  0.5514270000000 1.0
C      1  0.5092070000000  0.4223490000000  0.5691640000000 1.0
C      1  0.4730840000000  0.5974140000000  0.4259560000000 1.0
C      1  0.4565470000000  0.4505630000000  0.5019830000000 1.0
C      1  0.4951980000000  0.6278680000000  0.4645100000000 1.0
C      1  0.4212290000000  0.4726160000000  0.4104610000000 1.0
C      1  0.6040410000000  0.4707460000000  0.5570760000000 1.0
C      1  0.5965200000000  0.4327810000000  0.5199440000000 1.0
C      1  0.5651790000000  0.4695030000000  0.4712140000000 1.0
C      1  0.4737880000000  0.5884060000000  0.5732200000000 1.0
C      1  0.4474730000000  0.4928090000000  0.5893430000000 1.0
C      1  0.5558870000000  0.5427040000000  0.6067330000000 1.0
C      1  0.4549660000000  0.5860960000000  0.5045910000000 1.0
C      1  0.5108120000000  0.5551670000000  0.5973260000000 1.0
C      1  0.5091290000000  0.5185350000000  0.4969240000000 1.0
C      1  0.6228700000000  0.5488610000000  0.5143950000000 1.0
C      1  0.4090720000000  0.5089580000000  0.5542250000000 1.0
C      1  0.4739720000000  0.4196520000000  0.4573210000000 1.0
C      1  0.4974590000000  0.5521960000000  0.5267550000000 1.0
C      1  0.5014400000000  0.4583950000000  0.4537820000000 1.0
C      1  0.4646980000000  0.5658820000000  0.5896070000000 1.0
C      1  0.4796310000000  0.3900550000000  0.5245520000000 1.0
C      1  0.5200990000000  0.3906900000000  0.4982770000000 1.0
C      1  0.4759970000000  0.4072860000000  0.5021210000000 1.0
C      1  0.5269410000000  0.5268760000000  0.4406590000000 1.0
C      1  0.4983300000000  0.5681290000000  0.4541310000000 1.0
C      1  0.5290860000000  0.4353070000000  0.5128260000000 1.0
C      1  0.5539220000000  0.4900110000000  0.6051710000000 1.0
C      1  0.5217130000000  0.3959990000000  0.4469960000000 1.0
C      1  0.5232310000000  0.4075850000000  0.5483180000000 1.0
C      1  0.4614890000000  0.5355760000000  0.5004470000000 1.0
C      1  0.5147780000000  0.5493660000000  0.5699230000000 1.0
C      1  0.4834400000000  0.5510040000000  0.6044250000000 1.0
C      1  0.5039470000000  0.4487690000000  0.5134860000000 1.0
C      1  0.5184980000000  0.5496360000000  0.4554160000000 1.0
C      1  0.4837860000000  0.5217650000000  0.6071590000000 1.0
C      1  0.5971130000000  0.5310870000000  0.4745770000000 1.0
C      1  0.4003950000000  0.5427610000000  0.5151380000000 1.0
C      1  0.4444070000000  0.4742730000000  0.4264650000000 1.0
C      1  0.4190520000000  0.4078710000000  0.5125110000000 1.0
C      1  0.4542890000000  0.5951650000000  0.5515240000000 1.0
C      1  0.4614430000000  0.4381570000000  0.5494950000000 1.0
C      1  0.4109240000000  0.4885640000000  0.3914110000000 1.0
C      1  0.4777980000000  0.6167360000000  0.4467660000000 1.0
C      1  0.5501390000000  0.5116740000000  0.4496340000000 1.0
C      1  0.5333330000000  0.6348360000000  0.5020430000000 1.0
C      1  0.4395920000000  0.5536760000000  0.5826970000000 1.0
C      1  0.4319140000000  0.3964980000000  0.3433340000000 1.0
C      1  0.4817190000000  0.4926220000000  0.5338250000000 1.0
C      1  0.4541710000000  0.3561410000000  0.5479830000000 1.0
C      1  0.5610760000000  0.5572160000000  0.4674790000000 1.0
C      1  0.5252640000000  0.4878780000000  0.6104810000000 1.0
C      1  0.5246510000000  0.4429580000000  0.5836660000000 1.0
C      1  0.5258020000000  0.5558480000000  0.3967730000000 1.0
C      1  0.5748300000000  0.5029430000000  0.5893010000000 1.0
C      1  0.5305540000000  0.5948260000000  0.5654830000000 1.0
C      1  0.4350510000000  0.4451230000000  0.5962530000000 1.0
C      1  0.5344800000000  0.5657970000000  0.5542510000000 1.0
C      1  0.4299270000000  0.4141370000000  0.4410990000000 1.0
C      1  0.5124530000000  0.5223040000000  0.5600280000000 1.0
C      1  0.4808940000000  0.3996730000000  0.4756030000000 1.0
END
