TITL C-627109-622-730 0.00218069673827914 125000 -691.688721196182 0 0 114 (C1) n - 1
REM
REM in /home/nfs/bkarasulu/CARBON/AIRSS/Generating-Clusters/LCBOP/Only-C1/SD-CG/FIRE-CG
REM
REM
REM
REM
REM
REM ./C.cell (11c1c37f851c82e70ff6c80c92926a4b)
REM AIRSS Version 0.9.1 bugfix July 2018 build 013d7b7c2542+ Fri, 06 Jul 2018 19:26:36 +0100
REM compiler GCC version 9.2.1 20190827 (Red Hat 9.2.1-1)
REM options -cpp -mtune=generic -march=x86-64 -g -O0 -fpre-include=/usr/include/finclude/math-vector-fortran.h
REM seed -139723879 -1332928190 -246000923 1113582605 -875635741 118409706 338302065 -987455859 70680203 2024367704 -1589526633 533309475 -982615941 1224435797 -811216808 1082691070 788637220 -190419159 -1302681410 -98695693 -1462887677 1897524230 -316004772 -246944012 -545272287 -1463999478 1818114239 -1513309690 -1624904596 970924294 473096780 -1144039085 1226998228
REM
CELL 1.54180   50.00000   50.00000   50.00000   90.00000   90.00000   90.00000
LATT -1
SFAC C  
C      1  0.4812040000000  0.5140800000000  0.3957670000000 1.0
C      1  0.3629740000000  0.5669380000000  0.4360080000000 1.0
C      1  0.5773740000000  0.4607460000000  0.5043820000000 1.0
C      1  0.5550500000000  0.4452070000000  0.5119220000000 1.0
C      1  0.5636860000000  0.5530570000000  0.4786850000000 1.0
C      1  0.5376020000000  0.3862740000000  0.4756340000000 1.0
C      1  0.4894520000000  0.6179770000000  0.4624500000000 1.0
C      1  0.4260350000000  0.4810750000000  0.4393660000000 1.0
C      1  0.5326540000000  0.4061010000000  0.4917790000000 1.0
C      1  0.4957640000000  0.5768380000000  0.5087380000000 1.0
C      1  0.5703210000000  0.4389740000000  0.4326390000000 1.0
C      1  0.4850410000000  0.4286020000000  0.4520310000000 1.0
C      1  0.4039770000000  0.4955680000000  0.5073740000000 1.0
C      1  0.5363600000000  0.5018280000000  0.5219780000000 1.0
C      1  0.5826330000000  0.4448880000000  0.4555660000000 1.0
C      1  0.6057840000000  0.4852400000000  0.5374280000000 1.0
C      1  0.4988260000000  0.5485870000000  0.5629730000000 1.0
C      1  0.4852270000000  0.6420340000000  0.4715600000000 1.0
C      1  0.6663950000000  0.5208650000000  0.6318700000000 1.0
C      1  0.5565300000000  0.5219990000000  0.4403960000000 1.0
C      1  0.5608010000000  0.5025160000000  0.5697530000000 1.0
C      1  0.5572120000000  0.5658130000000  0.5614190000000 1.0
C      1  0.4245070000000  0.4755870000000  0.4676200000000 1.0
C      1  0.4973730000000  0.4673640000000  0.5167030000000 1.0
C      1  0.5288490000000  0.4198410000000  0.5828410000000 1.0
C      1  0.3776810000000  0.4327300000000  0.4875610000000 1.0
C      1  0.4620560000000  0.4683870000000  0.4059710000000 1.0
C      1  0.4940740000000  0.4339060000000  0.4256170000000 1.0
C      1  0.5594870000000  0.5794030000000  0.4886990000000 1.0
C      1  0.6019760000000  0.5240290000000  0.5861480000000 1.0
C      1  0.4368820000000  0.5470060000000  0.4936880000000 1.0
C      1  0.4037560000000  0.4748730000000  0.4873530000000 1.0
C      1  0.5049660000000  0.5269020000000  0.4946970000000 1.0
C      1  0.5592120000000  0.4843040000000  0.5908800000000 1.0
C      1  0.3971620000000  0.5213190000000  0.4988950000000 1.0
C      1  0.3967750000000  0.4489900000000  0.4980750000000 1.0
C      1  0.3843610000000  0.5554680000000  0.4455020000000 1.0
C      1  0.4769660000000  0.4773260000000  0.5335120000000 1.0
C      1  0.5233400000000  0.4908180000000  0.4258640000000 1.0
C      1  0.4250240000000  0.5070730000000  0.4265260000000 1.0
C      1  0.3954950000000  0.4848620000000  0.6012090000000 1.0
C      1  0.5742760000000  0.5457270000000  0.5520930000000 1.0
C      1  0.6235340000000  0.5231320000000  0.6015050000000 1.0
C      1  0.4169160000000  0.4888530000000  0.5324560000000 1.0
C      1  0.5284740000000  0.4296620000000  0.5094720000000 1.0
C      1  0.4326960000000  0.5533090000000  0.5408250000000 1.0
C      1  0.4378140000000  0.5647860000000  0.5157740000000 1.0
C      1  0.5337160000000  0.4962310000000  0.4720160000000 1.0
C      1  0.4512230000000  0.5480940000000  0.4340160000000 1.0
C      1  0.4926130000000  0.5355480000000  0.4097610000000 1.0
C      1  0.4879130000000  0.5250400000000  0.5568330000000 1.0
C      1  0.5125980000000  0.4914080000000  0.4527670000000 1.0
C      1  0.4821310000000  0.5177510000000  0.4802370000000 1.0
C      1  0.5069310000000  0.4476620000000  0.4983090000000 1.0
C      1  0.4784550000000  0.5526530000000  0.4286350000000 1.0
C      1  0.5444350000000  0.4993950000000  0.5471660000000 1.0
C      1  0.4988360000000  0.5683440000000  0.4430070000000 1.0
C      1  0.4947300000000  0.5944180000000  0.5784240000000 1.0
C      1  0.6451390000000  0.5219950000000  0.6168180000000 1.0
C      1  0.4682770000000  0.4325110000000  0.5448920000000 1.0
C      1  0.4566370000000  0.4577960000000  0.5390780000000 1.0
C      1  0.5330310000000  0.4674360000000  0.4139570000000 1.0
C      1  0.4049250000000  0.4952900000000  0.5792670000000 1.0
C      1  0.5424490000000  0.4366630000000  0.6003600000000 1.0
C      1  0.4793230000000  0.5020010000000  0.5464860000000 1.0
C      1  0.5532270000000  0.4609700000000  0.6021370000000 1.0
C      1  0.4407880000000  0.4324520000000  0.4310160000000 1.0
C      1  0.4154310000000  0.5053850000000  0.5554510000000 1.0
C      1  0.4803260000000  0.6129880000000  0.5896850000000 1.0
C      1  0.4114120000000  0.5397440000000  0.4833210000000 1.0
C      1  0.5782060000000  0.5347980000000  0.4980220000000 1.0
C      1  0.5385910000000  0.5974400000000  0.5316600000000 1.0
C      1  0.5587550000000  0.5014500000000  0.4592920000000 1.0
C      1  0.5807290000000  0.5447560000000  0.5247150000000 1.0
C      1  0.4398240000000  0.4601120000000  0.4232160000000 1.0
C      1  0.5263650000000  0.5083590000000  0.4967910000000 1.0
C      1  0.4823140000000  0.4159210000000  0.6004670000000 1.0
C      1  0.5348160000000  0.5809300000000  0.5541450000000 1.0
C      1  0.5205450000000  0.5380490000000  0.4156670000000 1.0
C      1  0.5001320000000  0.4192520000000  0.5802280000000 1.0
C      1  0.5503790000000  0.5478530000000  0.4529950000000 1.0
C      1  0.4927940000000  0.4470700000000  0.4734270000000 1.0
C      1  0.4070980000000  0.5429810000000  0.4555630000000 1.0
C      1  0.4604370000000  0.4950600000000  0.3957850000000 1.0
C      1  0.4411230000000  0.5916740000000  0.5125570000000 1.0
C      1  0.5051120000000  0.5529240000000  0.5043030000000 1.0
C      1  0.4939080000000  0.5930770000000  0.4545640000000 1.0
C      1  0.5496270000000  0.5957970000000  0.5073160000000 1.0
C      1  0.4290020000000  0.4624790000000  0.5337150000000 1.0
C      1  0.5880410000000  0.3922850000000  0.5464620000000 1.0
C      1  0.5255450000000  0.5570920000000  0.4386280000000 1.0
C      1  0.4453810000000  0.4334300000000  0.4774550000000 1.0
C      1  0.5399160000000  0.4137340000000  0.5568300000000 1.0
C      1  0.5872270000000  0.5071610000000  0.4957280000000 1.0
C      1  0.5193070000000  0.4202590000000  0.5372090000000 1.0
C      1  0.5093850000000  0.5746220000000  0.5652580000000 1.0
C      1  0.4274530000000  0.5329310000000  0.4384730000000 1.0
C      1  0.4561860000000  0.4226850000000  0.4533390000000 1.0
C      1  0.5892160000000  0.4853420000000  0.5157910000000 1.0
C      1  0.5370910000000  0.5154590000000  0.4197960000000 1.0
C      1  0.5511890000000  0.4480190000000  0.4163710000000 1.0
C      1  0.4477640000000  0.4621770000000  0.4773060000000 1.0
C      1  0.4344450000000  0.5060630000000  0.3996050000000 1.0
C      1  0.4743910000000  0.4700930000000  0.4719960000000 1.0
C      1  0.5646190000000  0.4022870000000  0.5519780000000 1.0
C      1  0.4123650000000  0.4428810000000  0.5212080000000 1.0
C      1  0.4584250000000  0.5314420000000  0.4850180000000 1.0
C      1  0.5795500000000  0.5239660000000  0.5696140000000 1.0
C      1  0.5832120000000  0.4637260000000  0.4758860000000 1.0
C      1  0.4936060000000  0.4223470000000  0.5518800000000 1.0
C      1  0.4243590000000  0.5318490000000  0.5540900000000 1.0
C      1  0.5817080000000  0.4923240000000  0.4715110000000 1.0
C      1  0.4842700000000  0.4509220000000  0.4068630000000 1.0
C      1  0.4864890000000  0.4942850000000  0.4644340000000 1.0
END
