TITL C-627112-676-1602 2.61760944306902e-07 125000 -130.165308091153 0 0 23 (C1) n - 1
REM
REM in /home/nfs/bkarasulu/CARBON/AIRSS/Generating-Clusters/LCBOP/Only-C1/SD-CG/FIRE-CG
REM
REM
REM
REM
REM
REM ./C.cell (11c1c37f851c82e70ff6c80c92926a4b)
REM AIRSS Version 0.9.1 bugfix July 2018 build 013d7b7c2542+ Fri, 06 Jul 2018 19:26:36 +0100
REM compiler GCC version 9.2.1 20190827 (Red Hat 9.2.1-1)
REM options -cpp -mtune=generic -march=x86-64 -g -O0 -fpre-include=/usr/include/finclude/math-vector-fortran.h
REM seed -1898339269 -591355883 203357763 2047081720 852044763 -1646325163 134140733 1599039816 1081026916 -1758679624 -253499507 1061550966 -1461404335 825599708 499803937 1712460346 1708435142 -469263614 -472796158 -204156752 1946919663 -730101585 -1291346007 -1883576926 28549785 -1340840200 -1495493052 -746675838 -94866885 -1411662362 -2052209688 -107166650 -1052080618
REM
CELL 1.54180   50.00000   50.00000   50.00000   90.00000   90.00000   90.00000
LATT -1
SFAC C  
C      1  0.4521690000000  0.5307990000000  0.5365090000000 1.0
C      1  0.4929530000000  0.5119680000000  0.5099520000000 1.0
C      1  0.4829350000000  0.5321540000000  0.4518460000000 1.0
C      1  0.5402950000000  0.5084420000000  0.5159250000000 1.0
C      1  0.4926850000000  0.4816580000000  0.4508770000000 1.0
C      1  0.5200260000000  0.5242030000000  0.4985890000000 1.0
C      1  0.4935450000000  0.5509310000000  0.4680360000000 1.0
C      1  0.5027310000000  0.4648280000000  0.4971830000000 1.0
C      1  0.4825520000000  0.5060410000000  0.4454120000000 1.0
C      1  0.5364040000000  0.4231020000000  0.5503550000000 1.0
C      1  0.4761630000000  0.5297360000000  0.5244080000000 1.0
C      1  0.5106910000000  0.4706030000000  0.4695610000000 1.0
C      1  0.5318730000000  0.4411980000000  0.5321580000000 1.0
C      1  0.4376400000000  0.4858000000000  0.5300950000000 1.0
C      1  0.5268380000000  0.4604540000000  0.5131110000000 1.0
C      1  0.4844830000000  0.4839110000000  0.5080320000000 1.0
C      1  0.5442340000000  0.4818910000000  0.5034530000000 1.0
C      1  0.5203190000000  0.5746130000000  0.5023810000000 1.0
C      1  0.4340390000000  0.5109540000000  0.5393120000000 1.0
C      1  0.5359670000000  0.4851710000000  0.4739820000000 1.0
C      1  0.4590510000000  0.4759660000000  0.5171120000000 1.0
C      1  0.5309400000000  0.5136160000000  0.4715120000000 1.0
C      1  0.5114680000000  0.5519610000000  0.4901980000000 1.0
END
