TITL C-627107-135-31 1.05701975965469e-06 125000 -985.375664370198 0 0 162 (C1) n - 1
REM
REM in /home/nfs/bkarasulu/CARBON/AIRSS/Generating-Clusters/LCBOP/Only-C1/SD-CG/FIRE-CG
REM
REM
REM
REM
REM
REM ./C.cell (11c1c37f851c82e70ff6c80c92926a4b)
REM AIRSS Version 0.9.1 bugfix July 2018 build 013d7b7c2542+ Fri, 06 Jul 2018 19:26:36 +0100
REM compiler GCC version 9.2.1 20190827 (Red Hat 9.2.1-1)
REM options -cpp -mtune=generic -march=x86-64 -g -O0 -fpre-include=/usr/include/finclude/math-vector-fortran.h
REM seed -9121067 -216135715 544884251 -2146752577 -1559270056 -792295787 1267605348 -1495599819 274022894 2057724451 -283102609 1707884079 -451222271 -1239012502 1616166894 1041721969 857068354 -2006342438 -2107303337 409423204 1154953139 -1172161817 55365029 -2119968319 310482194 519283818 -1818342171 -1785317859 1096839080 893123147 1879914030 -163384908 1510587257
REM
CELL 1.54180   50.00000   50.00000   50.00000   90.00000   90.00000   90.00000
LATT -1
SFAC C  
C      1  0.5364320000000  0.4608490000000  0.4415310000000 1.0
C      1  0.4361490000000  0.4994590000000  0.4879340000000 1.0
C      1  0.5345750000000  0.4316860000000  0.4436230000000 1.0
C      1  0.5176770000000  0.6224060000000  0.4737750000000 1.0
C      1  0.4877400000000  0.5693100000000  0.5206900000000 1.0
C      1  0.4504560000000  0.4692450000000  0.5181820000000 1.0
C      1  0.4385850000000  0.4320180000000  0.5663590000000 1.0
C      1  0.4084170000000  0.5095970000000  0.4372880000000 1.0
C      1  0.4545060000000  0.5424400000000  0.4731240000000 1.0
C      1  0.5066470000000  0.5583210000000  0.5025820000000 1.0
C      1  0.5966160000000  0.5707190000000  0.4874840000000 1.0
C      1  0.4533600000000  0.4554050000000  0.4916700000000 1.0
C      1  0.4647290000000  0.5831130000000  0.5102280000000 1.0
C      1  0.5474180000000  0.5723430000000  0.4094910000000 1.0
C      1  0.5141210000000  0.4789240000000  0.4471530000000 1.0
C      1  0.5084980000000  0.5079270000000  0.4539670000000 1.0
C      1  0.3785310000000  0.4825850000000  0.4718280000000 1.0
C      1  0.5605210000000  0.4569520000000  0.5910490000000 1.0
C      1  0.5713750000000  0.4898190000000  0.4582940000000 1.0
C      1  0.6048610000000  0.4698010000000  0.5166580000000 1.0
C      1  0.5376220000000  0.5523360000000  0.3921550000000 1.0
C      1  0.5044350000000  0.4050620000000  0.5860410000000 1.0
C      1  0.5143670000000  0.5308910000000  0.5034790000000 1.0
C      1  0.4731470000000  0.5762840000000  0.4430190000000 1.0
C      1  0.5585750000000  0.5850550000000  0.5455280000000 1.0
C      1  0.4835230000000  0.5330950000000  0.5530620000000 1.0
C      1  0.4770770000000  0.5873700000000  0.4175440000000 1.0
C      1  0.5885790000000  0.4641350000000  0.5874660000000 1.0
C      1  0.4941790000000  0.5087100000000  0.5672310000000 1.0
C      1  0.5586050000000  0.5882530000000  0.4279830000000 1.0
C      1  0.6277830000000  0.5028900000000  0.4817150000000 1.0
C      1  0.4390220000000  0.5723550000000  0.5204050000000 1.0
C      1  0.5553750000000  0.5355040000000  0.3782500000000 1.0
C      1  0.6259930000000  0.5288150000000  0.4741360000000 1.0
C      1  0.5619460000000  0.5992420000000  0.4540200000000 1.0
C      1  0.5852290000000  0.5808090000000  0.5363280000000 1.0
C      1  0.5898630000000  0.4291870000000  0.4491760000000 1.0
C      1  0.4468240000000  0.4564020000000  0.4148400000000 1.0
C      1  0.4845790000000  0.4587760000000  0.3853830000000 1.0
C      1  0.4557540000000  0.5197570000000  0.4884050000000 1.0
C      1  0.4211020000000  0.5386530000000  0.5557000000000 1.0
C      1  0.4659770000000  0.4570840000000  0.5380000000000 1.0
C      1  0.4535710000000  0.5270860000000  0.5886450000000 1.0
C      1  0.4865070000000  0.3941780000000  0.5161260000000 1.0
C      1  0.5134120000000  0.5957810000000  0.5692140000000 1.0
C      1  0.4860880000000  0.5960750000000  0.5750280000000 1.0
C      1  0.4891320000000  0.4948220000000  0.5160750000000 1.0
C      1  0.4811480000000  0.4509450000000  0.4803780000000 1.0
C      1  0.4973150000000  0.4272890000000  0.4766630000000 1.0
C      1  0.5614340000000  0.4267870000000  0.5554200000000 1.0
C      1  0.6047360000000  0.5146880000000  0.5358910000000 1.0
C      1  0.3904710000000  0.4768520000000  0.5261840000000 1.0
C      1  0.4674470000000  0.5461690000000  0.4451180000000 1.0
C      1  0.4308350000000  0.5839170000000  0.4629300000000 1.0
C      1  0.5218590000000  0.5436340000000  0.5932210000000 1.0
C      1  0.5926820000000  0.5621450000000  0.5158320000000 1.0
C      1  0.4349050000000  0.4428840000000  0.4382650000000 1.0
C      1  0.4449790000000  0.4855270000000  0.4138180000000 1.0
C      1  0.4402880000000  0.5440940000000  0.4277150000000 1.0
C      1  0.4838850000000  0.4183030000000  0.4503220000000 1.0
C      1  0.4921900000000  0.5202920000000  0.6234260000000 1.0
C      1  0.5331330000000  0.5509970000000  0.5673330000000 1.0
C      1  0.5088600000000  0.4853380000000  0.4980030000000 1.0
C      1  0.5588350000000  0.5072850000000  0.5482180000000 1.0
C      1  0.5557420000000  0.4787330000000  0.5513380000000 1.0
C      1  0.3534200000000  0.4896280000000  0.4629190000000 1.0
C      1  0.5726620000000  0.5814590000000  0.4743770000000 1.0
C      1  0.4194000000000  0.5599840000000  0.5016640000000 1.0
C      1  0.4286420000000  0.5200120000000  0.5760010000000 1.0
C      1  0.4705540000000  0.5148710000000  0.5112310000000 1.0
C      1  0.5436560000000  0.4766690000000  0.5782880000000 1.0
C      1  0.5172630000000  0.4268840000000  0.5444890000000 1.0
C      1  0.6052850000000  0.5955510000000  0.5480130000000 1.0
C      1  0.4935120000000  0.6163570000000  0.4841850000000 1.0
C      1  0.4375870000000  0.5640290000000  0.5498350000000 1.0
C      1  0.5101720000000  0.5471640000000  0.3874380000000 1.0
C      1  0.6156560000000  0.5539030000000  0.4741290000000 1.0
C      1  0.5762760000000  0.4985450000000  0.4828360000000 1.0
C      1  0.3807460000000  0.4735680000000  0.4992710000000 1.0
C      1  0.4741980000000  0.5767300000000  0.3930700000000 1.0
C      1  0.4990070000000  0.4935260000000  0.5438210000000 1.0
C      1  0.4395110000000  0.5294820000000  0.4027800000000 1.0
C      1  0.5444620000000  0.4236530000000  0.5028380000000 1.0
C      1  0.4372230000000  0.4303910000000  0.4930880000000 1.0
C      1  0.4790680000000  0.4029300000000  0.5727820000000 1.0
C      1  0.5119410000000  0.4513250000000  0.5344770000000 1.0
C      1  0.4051870000000  0.5268770000000  0.5345030000000 1.0
C      1  0.5730460000000  0.4189820000000  0.4695250000000 1.0
C      1  0.5291110000000  0.4156250000000  0.5909360000000 1.0
C      1  0.4921960000000  0.4657190000000  0.5508860000000 1.0
C      1  0.5561870000000  0.5393790000000  0.4873840000000 1.0
C      1  0.4874480000000  0.4416210000000  0.4325870000000 1.0
C      1  0.4427840000000  0.4760350000000  0.4710020000000 1.0
C      1  0.5129700000000  0.4849590000000  0.3564080000000 1.0
C      1  0.4081910000000  0.4994460000000  0.5277500000000 1.0
C      1  0.4717580000000  0.5048520000000  0.3731520000000 1.0
C      1  0.4317100000000  0.4906350000000  0.5150310000000 1.0
C      1  0.4163880000000  0.5378920000000  0.4465790000000 1.0
C      1  0.5420000000000  0.6178150000000  0.4629530000000 1.0
C      1  0.5636360000000  0.4698850000000  0.4406150000000 1.0
C      1  0.5353770000000  0.5788390000000  0.5606420000000 1.0
C      1  0.4196040000000  0.4565810000000  0.5656190000000 1.0
C      1  0.4865800000000  0.5603280000000  0.5475500000000 1.0
C      1  0.4209310000000  0.4635960000000  0.4542920000000 1.0
C      1  0.4625430000000  0.5258410000000  0.5351610000000 1.0
C      1  0.5344050000000  0.5190230000000  0.6004890000000 1.0
C      1  0.4943290000000  0.4612760000000  0.5814910000000 1.0
C      1  0.5215110000000  0.4360480000000  0.4915570000000 1.0
C      1  0.5711290000000  0.4318280000000  0.4958910000000 1.0
C      1  0.4880300000000  0.4646830000000  0.4538380000000 1.0
C      1  0.4254930000000  0.5553390000000  0.4718130000000 1.0
C      1  0.5375750000000  0.4949150000000  0.3543500000000 1.0
C      1  0.4950780000000  0.5438020000000  0.6054380000000 1.0
C      1  0.4290590000000  0.4827070000000  0.5766310000000 1.0
C      1  0.4844160000000  0.5205030000000  0.4392340000000 1.0
C      1  0.5170260000000  0.4596130000000  0.5071780000000 1.0
C      1  0.5553190000000  0.4019110000000  0.5424390000000 1.0
C      1  0.4629360000000  0.5290780000000  0.3852240000000 1.0
C      1  0.4653080000000  0.4824460000000  0.4530470000000 1.0
C      1  0.5545750000000  0.5135250000000  0.3630790000000 1.0
C      1  0.4658440000000  0.4989280000000  0.4303520000000 1.0
C      1  0.4241480000000  0.5051320000000  0.4113870000000 1.0
C      1  0.4544840000000  0.4805380000000  0.5879580000000 1.0
C      1  0.5744300000000  0.5215130000000  0.4981340000000 1.0
C      1  0.4539970000000  0.4162310000000  0.4526840000000 1.0
C      1  0.5140280000000  0.5102550000000  0.4825020000000 1.0
C      1  0.5269680000000  0.3906400000000  0.4756890000000 1.0
C      1  0.4474290000000  0.4077490000000  0.4796000000000 1.0
C      1  0.4757900000000  0.4068900000000  0.5426600000000 1.0
C      1  0.5502220000000  0.5657490000000  0.4823900000000 1.0
C      1  0.5402950000000  0.5293420000000  0.5483080000000 1.0
C      1  0.4583020000000  0.5914790000000  0.4625080000000 1.0
C      1  0.5455320000000  0.4098250000000  0.4600630000000 1.0
C      1  0.3972520000000  0.4580550000000  0.5469610000000 1.0
C      1  0.6067470000000  0.4863740000000  0.5412010000000 1.0
C      1  0.4531510000000  0.4136780000000  0.5844170000000 1.0
C      1  0.5157720000000  0.3891990000000  0.5051180000000 1.0
C      1  0.5245210000000  0.5741600000000  0.4883350000000 1.0
C      1  0.4888800000000  0.4823770000000  0.3705040000000 1.0
C      1  0.4735040000000  0.4477000000000  0.4086160000000 1.0
C      1  0.5824750000000  0.4508540000000  0.5156730000000 1.0
C      1  0.5660530000000  0.4525170000000  0.5403080000000 1.0
C      1  0.5263400000000  0.4973590000000  0.5855930000000 1.0
C      1  0.5914550000000  0.5329280000000  0.5184750000000 1.0
C      1  0.4955010000000  0.4712760000000  0.6071090000000 1.0
C      1  0.3988920000000  0.5448070000000  0.5137570000000 1.0
C      1  0.6039570000000  0.4752040000000  0.5676120000000 1.0
C      1  0.5214970000000  0.5218560000000  0.5291560000000 1.0
C      1  0.6201550000000  0.4804610000000  0.4949540000000 1.0
C      1  0.4005060000000  0.4848180000000  0.4527810000000 1.0
C      1  0.4695400000000  0.5512450000000  0.5918260000000 1.0
C      1  0.4939600000000  0.4916000000000  0.6279030000000 1.0
C      1  0.4707390000000  0.5034940000000  0.5853770000000 1.0
C      1  0.4821660000000  0.5507540000000  0.3857270000000 1.0
C      1  0.4942220000000  0.4829080000000  0.6540420000000 1.0
C      1  0.5523680000000  0.4303990000000  0.5828820000000 1.0
C      1  0.4572800000000  0.4307380000000  0.5433280000000 1.0
C      1  0.4652420000000  0.3917920000000  0.4956990000000 1.0
C      1  0.4705820000000  0.5996560000000  0.4868900000000 1.0
C      1  0.4683490000000  0.5723620000000  0.5682850000000 1.0
C      1  0.5837760000000  0.4509100000000  0.4341440000000 1.0
C      1  0.5393430000000  0.4005760000000  0.5193520000000 1.0
END
