TITL C-627111-6168-1913 0.0362239023242151 125000 -672.771736171882 0 0 110 (C1) n - 1
REM
REM in /home/nfs/bkarasulu/CARBON/AIRSS/Generating-Clusters/LCBOP/Only-C1/SD-CG/FIRE-CG
REM
REM
REM
REM
REM
REM ./C.cell (11c1c37f851c82e70ff6c80c92926a4b)
REM AIRSS Version 0.9.1 bugfix July 2018 build 013d7b7c2542+ Fri, 06 Jul 2018 19:26:36 +0100
REM compiler GCC version 9.2.1 20190827 (Red Hat 9.2.1-1)
REM options -cpp -mtune=generic -march=x86-64 -g -O0 -fpre-include=/usr/include/finclude/math-vector-fortran.h
REM seed -1063771055 1200833735 1647003389 1462711120 1073003359 -8351999 497609111 -1791446884 -435529751 407893170 -1454719942 -89059020 -1506289826 1571960103 1879545314 1898337374 -458671624 -148642309 638730996 696797009 -312139147 2140831884 1955821634 1166410708 1373113700 219532696 -995996787 426029852 1662993475 -936295697 -1172271224 745484534 1893568052
REM
CELL 1.54180   50.00000   50.00000   50.00000   90.00000   90.00000   90.00000
LATT -1
SFAC C  
C      1  0.5274370000000  0.5160280000000  0.5263760000000 1.0
C      1  0.5498670000000  0.5676900000000  0.5395340000000 1.0
C      1  0.5327030000000  0.4265660000000  0.5427130000000 1.0
C      1  0.5093140000000  0.5773670000000  0.4367880000000 1.0
C      1  0.5516730000000  0.4796560000000  0.5839670000000 1.0
C      1  0.5783890000000  0.5424110000000  0.4791360000000 1.0
C      1  0.5097210000000  0.4206780000000  0.4556420000000 1.0
C      1  0.4121640000000  0.4814640000000  0.5508120000000 1.0
C      1  0.4992850000000  0.4784910000000  0.5975510000000 1.0
C      1  0.5578710000000  0.4936490000000  0.4888350000000 1.0
C      1  0.5368740000000  0.5163330000000  0.4803760000000 1.0
C      1  0.4414990000000  0.4261000000000  0.5136210000000 1.0
C      1  0.4558000000000  0.5022510000000  0.4209520000000 1.0
C      1  0.4157140000000  0.5856690000000  0.4631300000000 1.0
C      1  0.5126480000000  0.4232280000000  0.5228540000000 1.0
C      1  0.4573610000000  0.4668920000000  0.5243980000000 1.0
C      1  0.5708230000000  0.4792870000000  0.4445280000000 1.0
C      1  0.4797110000000  0.5461930000000  0.4133810000000 1.0
C      1  0.4145670000000  0.4585710000000  0.4323710000000 1.0
C      1  0.4971900000000  0.5011430000000  0.3989020000000 1.0
C      1  0.4769550000000  0.5187340000000  0.4104960000000 1.0
C      1  0.4562360000000  0.4917220000000  0.5705380000000 1.0
C      1  0.5726390000000  0.4298160000000  0.4907150000000 1.0
C      1  0.5384790000000  0.5368880000000  0.5781330000000 1.0
C      1  0.6047450000000  0.4336220000000  0.5294140000000 1.0
C      1  0.4831070000000  0.4756710000000  0.3960390000000 1.0
C      1  0.4316550000000  0.5407730000000  0.4708890000000 1.0
C      1  0.5459610000000  0.5380490000000  0.4354110000000 1.0
C      1  0.5752620000000  0.5044040000000  0.5117080000000 1.0
C      1  0.4084200000000  0.5219690000000  0.4739040000000 1.0
C      1  0.5648900000000  0.5259050000000  0.5762060000000 1.0
C      1  0.4994680000000  0.4915000000000  0.4562560000000 1.0
C      1  0.5291890000000  0.5573560000000  0.5587270000000 1.0
C      1  0.5730520000000  0.5515890000000  0.5300490000000 1.0
C      1  0.4944000000000  0.4433310000000  0.5136700000000 1.0
C      1  0.4430300000000  0.4169600000000  0.4867490000000 1.0
C      1  0.4354290000000  0.5668590000000  0.4602950000000 1.0
C      1  0.4984770000000  0.4684150000000  0.4972600000000 1.0
C      1  0.4586010000000  0.5047760000000  0.4951090000000 1.0
C      1  0.5618290000000  0.4720940000000  0.4702280000000 1.0
C      1  0.5248800000000  0.6093950000000  0.4780090000000 1.0
C      1  0.5598240000000  0.4242740000000  0.5364640000000 1.0
C      1  0.6023130000000  0.4415660000000  0.5556470000000 1.0
C      1  0.5140520000000  0.5875590000000  0.4632670000000 1.0
C      1  0.4571170000000  0.4754480000000  0.4090660000000 1.0
C      1  0.5132520000000  0.5643520000000  0.4794500000000 1.0
C      1  0.5240930000000  0.5080050000000  0.4017430000000 1.0
C      1  0.4521850000000  0.5735910000000  0.5362670000000 1.0
C      1  0.4891980000000  0.5407990000000  0.5293810000000 1.0
C      1  0.4091180000000  0.5090020000000  0.5000270000000 1.0
C      1  0.5554500000000  0.4444970000000  0.4741130000000 1.0
C      1  0.5551420000000  0.5339390000000  0.4627190000000 1.0
C      1  0.5302780000000  0.4372650000000  0.5692770000000 1.0
C      1  0.4140900000000  0.5023650000000  0.4516810000000 1.0
C      1  0.4682660000000  0.4798190000000  0.5472380000000 1.0
C      1  0.4899560000000  0.5014960000000  0.5013260000000 1.0
C      1  0.4426620000000  0.5058080000000  0.4451030000000 1.0
C      1  0.4781840000000  0.5506790000000  0.5040570000000 1.0
C      1  0.4968260000000  0.5585950000000  0.5541000000000 1.0
C      1  0.5675640000000  0.4947210000000  0.5387480000000 1.0
C      1  0.4308490000000  0.5017350000000  0.5599610000000 1.0
C      1  0.4593450000000  0.5737020000000  0.4464080000000 1.0
C      1  0.4770040000000  0.4974090000000  0.5905940000000 1.0
C      1  0.5393090000000  0.5820130000000  0.5167000000000 1.0
C      1  0.4579810000000  0.5699130000000  0.5085190000000 1.0
C      1  0.4937530000000  0.5440570000000  0.4800060000000 1.0
C      1  0.4626490000000  0.4586890000000  0.4725130000000 1.0
C      1  0.4176080000000  0.4395840000000  0.5232370000000 1.0
C      1  0.5460060000000  0.5149940000000  0.4180690000000 1.0
C      1  0.4944200000000  0.4886360000000  0.5445140000000 1.0
C      1  0.4519010000000  0.4746220000000  0.4955570000000 1.0
C      1  0.5357700000000  0.5329650000000  0.5057870000000 1.0
C      1  0.5054430000000  0.5141420000000  0.4758850000000 1.0
C      1  0.5538710000000  0.4516380000000  0.5782720000000 1.0
C      1  0.4977900000000  0.5129440000000  0.5275790000000 1.0
C      1  0.5650360000000  0.4951560000000  0.4238890000000 1.0
C      1  0.4357550000000  0.4584060000000  0.4154940000000 1.0
C      1  0.4528990000000  0.5200660000000  0.4685330000000 1.0
C      1  0.5983430000000  0.5586560000000  0.4681960000000 1.0
C      1  0.5193230000000  0.4758220000000  0.5460060000000 1.0
C      1  0.5265960000000  0.4902100000000  0.5946910000000 1.0
C      1  0.5203890000000  0.5189060000000  0.5916020000000 1.0
C      1  0.4766420000000  0.5815520000000  0.5499990000000 1.0
C      1  0.4844920000000  0.5465870000000  0.5790820000000 1.0
C      1  0.4335140000000  0.5240520000000  0.5412900000000 1.0
C      1  0.5687690000000  0.4986430000000  0.5680440000000 1.0
C      1  0.4042440000000  0.4755460000000  0.4525390000000 1.0
C      1  0.5334970000000  0.4316540000000  0.4616700000000 1.0
C      1  0.4823610000000  0.5683040000000  0.4306570000000 1.0
C      1  0.5094820000000  0.3973440000000  0.5124080000000 1.0
C      1  0.5799840000000  0.4260640000000  0.5171970000000 1.0
C      1  0.5357090000000  0.6068170000000  0.5033030000000 1.0
C      1  0.6161160000000  0.5744740000000  0.4575700000000 1.0
C      1  0.4068040000000  0.4662840000000  0.5268210000000 1.0
C      1  0.4916810000000  0.5228330000000  0.5911040000000 1.0
C      1  0.4828740000000  0.4182050000000  0.4567410000000 1.0
C      1  0.4364870000000  0.5518910000000  0.5468550000000 1.0
C      1  0.5311630000000  0.5611140000000  0.4278020000000 1.0
C      1  0.5765160000000  0.4408060000000  0.5658480000000 1.0
C      1  0.4346280000000  0.5152640000000  0.5138390000000 1.0
C      1  0.5000840000000  0.3493390000000  0.4932390000000 1.0
C      1  0.4597770000000  0.4303260000000  0.4681060000000 1.0
C      1  0.5394090000000  0.4919910000000  0.5354280000000 1.0
C      1  0.5802010000000  0.5335080000000  0.5077930000000 1.0
C      1  0.3996500000000  0.4814710000000  0.5029920000000 1.0
C      1  0.3939390000000  0.4685380000000  0.4780810000000 1.0
C      1  0.5314590000000  0.5603290000000  0.5000520000000 1.0
C      1  0.4661680000000  0.4393530000000  0.5217880000000 1.0
C      1  0.4903630000000  0.4673230000000  0.4690440000000 1.0
C      1  0.5050600000000  0.3728460000000  0.5033490000000 1.0
END
