TITL C-627110-360-1158 -6020.02489814936 125000 -1166.76058646631 0 0 193 (C1) n - 1
REM
REM in /home/nfs/bkarasulu/CARBON/AIRSS/Generating-Clusters/LCBOP/Only-C1/SD-CG/FIRE-CG
REM
REM
REM
REM
REM
REM ./C.cell (11c1c37f851c82e70ff6c80c92926a4b)
REM AIRSS Version 0.9.1 bugfix July 2018 build 013d7b7c2542+ Fri, 06 Jul 2018 19:26:36 +0100
REM compiler GCC version 9.2.1 20190827 (Red Hat 9.2.1-1)
REM options -cpp -mtune=generic -march=x86-64 -g -O0 -fpre-include=/usr/include/finclude/math-vector-fortran.h
REM seed 486509596 695396577 -818236194 655501924 1303606059 -99148438 -1624542183 1100427800 -1328077232 1934267813 -1779981540 763717523 -208111669 1404133566 -1242353911 -61705849 -429255595 -1154599155 -1705137504 697063701 -600877478 2102288590 -1760660127 -884376990 1230890010 1305017329 -73191165 141953591 203732147 880605298 1969813512 -437597587 -1952662182
REM
CELL 1.54180   50.00000   50.00000   50.00000   90.00000   90.00000   90.00000
LATT -1
SFAC C  
C      1  0.4873270000000  0.6063630000000  0.4657400000000 1.0
C      1  0.5115860000000  0.6144100000000  0.4542000000000 1.0
C      1  0.3806000000000  0.4213530000000  0.4461580000000 1.0
C      1  0.4019920000000  0.4966970000000  0.4968820000000 1.0
C      1  0.5065590000000  0.5254020000000  0.4356520000000 1.0
C      1  0.4604870000000  0.3831510000000  0.4842940000000 1.0
C      1  0.5378430000000  0.5320370000000  0.5229060000000 1.0
C      1  0.5191380000000  0.4449540000000  0.5346370000000 1.0
C      1  0.4425310000000  0.4734470000000  0.5794700000000 1.0
C      1  0.4882260000000  0.5464480000000  0.4354150000000 1.0
C      1  0.5131010000000  0.4968970000000  0.5471490000000 1.0
C      1  0.5744790000000  0.5955960000000  0.5323300000000 1.0
C      1  0.4717930000000  0.5559440000000  0.4580010000000 1.0
C      1  0.4681930000000  0.4127990000000  0.4096680000000 1.0
C      1  0.5509720000000  0.3883460000000  0.5671000000000 1.0
C      1  0.4928230000000  0.4188680000000  0.4790880000000 1.0
C      1  0.4220500000000  0.4236160000000  0.4956860000000 1.0
C      1  0.4910190000000  0.5641020000000  0.4135510000000 1.0
C      1  0.3922050000000  0.5227390000000  0.4322750000000 1.0
C      1  0.4273360000000  0.5364400000000  0.4838220000000 1.0
C      1  0.5458390000000  0.4986660000000  0.4550920000000 1.0
C      1  0.5659350000000  0.3794520000000  0.5463310000000 1.0
C      1  0.4920630000000  0.4356560000000  0.5744810000000 1.0
C      1  0.4508030000000  0.4038080000000  0.4326190000000 1.0
C      1  0.4848710000000  0.4752170000000  0.6038160000000 1.0
C      1  0.5662410000000  0.5401690000000  0.3780050000000 1.0
C      1  0.5815580000000  0.4138900000000  0.4027820000000 1.0
C      1  0.6213710000000  0.4781690000000  0.5185040000000 1.0
C      1  0.5598580000000  0.5234000000000  0.4633110000000 1.0
C      1  0.5030660000000  0.4575380000000  0.5902880000000 1.0
C      1  0.4583260000000  0.5092920000000  0.4677860000000 1.0
C      1  0.3954110000000  0.4076080000000  0.5401300000000 1.0
C      1  0.5199150000000  0.4173130000000  0.4735260000000 1.0
C      1  0.5226230000000  0.5834590000000  0.5074980000000 1.0
C      1  0.4494170000000  0.4589340000000  0.4025120000000 1.0
C      1  0.5458520000000  0.5337240000000  0.5656190000000 1.0
C      1  0.4840790000000  0.5791370000000  0.4732320000000 1.0
C      1  0.4582600000000  0.4660860000000  0.6016180000000 1.0
C      1  0.4340010000000  0.5363260000000  0.4042860000000 1.0
C      1  0.4702830000000  0.5351040000000  0.5555710000000 1.0
C      1  0.5024000000000  0.4787940000000  0.4391450000000 1.0
C      1  0.4997510000000  0.5702900000000  0.5435790000000 1.0
C      1  0.5259150000000  0.5425870000000  0.6086370000000 1.0
C      1  0.4780860000000  0.5507040000000  0.6087650000000 1.0
C      1  0.4614670000000  0.4517410000000  0.4488850000000 1.0
C      1  0.6133040000000  0.5686740000000  0.5671330000000 1.0
C      1  0.5888150000000  0.5759820000000  0.5784560000000 1.0
C      1  0.4704420000000  0.4376710000000  0.5542750000000 1.0
C      1  0.5545350000000  0.4760370000000  0.5316770000000 1.0
C      1  0.5088200000000  0.4126950000000  0.5761720000000 1.0
C      1  0.5748030000000  0.5470750000000  0.3543800000000 1.0
C      1  0.3673930000000  0.3888680000000  0.6116500000000 1.0
C      1  0.5935040000000  0.4314120000000  0.4819220000000 1.0
C      1  0.5568310000000  0.4172640000000  0.4444580000000 1.0
C      1  0.3870030000000  0.5285750000000  0.4598630000000 1.0
C      1  0.3750320000000  0.5508490000000  0.4737400000000 1.0
C      1  0.4728720000000  0.4899250000000  0.5444060000000 1.0
C      1  0.6229290000000  0.6051500000000  0.5281190000000 1.0
C      1  0.5587630000000  0.4557570000000  0.4120470000000 1.0
C      1  0.4652680000000  0.4156440000000  0.5361480000000 1.0
C      1  0.4033210000000  0.5605220000000  0.5174510000000 1.0
C      1  0.4758970000000  0.5306400000000  0.5049600000000 1.0
C      1  0.3828230000000  0.5621770000000  0.4975230000000 1.0
C      1  0.4471870000000  0.3957030000000  0.4626310000000 1.0
C      1  0.5396840000000  0.4733690000000  0.3985780000000 1.0
C      1  0.6014930000000  0.4948730000000  0.5812210000000 1.0
C      1  0.4983930000000  0.4977520000000  0.3850290000000 1.0
C      1  0.5114700000000  0.5221950000000  0.5326610000000 1.0
C      1  0.4158530000000  0.5908190000000  0.4195340000000 1.0
C      1  0.5569540000000  0.5324550000000  0.4035750000000 1.0
C      1  0.5318000000000  0.4634150000000  0.5891740000000 1.0
C      1  0.5452480000000  0.5884570000000  0.4910920000000 1.0
C      1  0.4983270000000  0.5460530000000  0.4989290000000 1.0
C      1  0.4473150000000  0.6137980000000  0.5096550000000 1.0
C      1  0.5181290000000  0.5123860000000  0.6093170000000 1.0
C      1  0.4077180000000  0.5413350000000  0.4171660000000 1.0
C      1  0.4898170000000  0.4536710000000  0.4409140000000 1.0
C      1  0.5948590000000  0.5451900000000  0.4926480000000 1.0
C      1  0.4996280000000  0.5728520000000  0.4953710000000 1.0
C      1  0.5608600000000  0.6062400000000  0.5080980000000 1.0
C      1  0.6064630000000  0.5296550000000  0.4473510000000 1.0
C      1  0.5342750000000  0.4929790000000  0.5929290000000 1.0
C      1  0.5184950000000  0.4817810000000  0.4863380000000 1.0
C      1  0.4935660000000  0.6018840000000  0.5744070000000 1.0
C      1  0.5130390000000  0.4734660000000  0.3884180000000 1.0
C      1  0.5034850000000  0.5616890000000  0.6039730000000 1.0
C      1  0.4472080000000  0.4606090000000  0.4726660000000 1.0
C      1  0.4355570000000  0.4842480000000  0.3978260000000 1.0
C      1  0.5122840000000  0.5855550000000  0.5888070000000 1.0
C      1  0.4105920000000  0.5514620000000  0.5644140000000 1.0
C      1  0.5267690000000  0.4719360000000  0.5378310000000 1.0
C      1  0.5405610000000  0.3809690000000  0.4999710000000 1.0
C      1  0.6026840000000  0.5715880000000  0.4990410000000 1.0
C      1  0.5767150000000  0.3940910000000  0.5244210000000 1.0
C      1  0.6006580000000  0.5075660000000  0.5579380000000 1.0
C      1  0.4434200000000  0.5876480000000  0.4139120000000 1.0
C      1  0.6013030000000  0.5897690000000  0.5211650000000 1.0
C      1  0.5430690000000  0.5519560000000  0.5430330000000 1.0
C      1  0.6190660000000  0.5498370000000  0.5488970000000 1.0
C      1  0.4893930000000  0.5036110000000  0.6092740000000 1.0
C      1  0.5481120000000  0.5552110000000  0.4199900000000 1.0
C      1  0.5626680000000  0.6329890000000  0.5020990000000 1.0
C      1  0.6035720000000  0.5283460000000  0.5393560000000 1.0
C      1  0.4407650000000  0.5218220000000  0.5961500000000 1.0
C      1  0.4845810000000  0.5942930000000  0.5480870000000 1.0
C      1  0.5077380000000  0.4322990000000  0.4332050000000 1.0
C      1  0.3764030000000  0.3953470000000  0.5880600000000 1.0
C      1  0.5970320000000  0.4359810000000  0.5104240000000 1.0
C      1  0.4070340000000  0.4144410000000  0.5173340000000 1.0
C      1  0.4735430000000  0.3580300000000  0.4851180000000 1.0
C      1  0.5999840000000  0.4517260000000  0.4628080000000 1.0
C      1  0.4961610000000  0.4502200000000  0.3863010000000 1.0
C      1  0.5047000000000  0.5049720000000  0.4837960000000 1.0
C      1  0.5343620000000  0.5068350000000  0.5680590000000 1.0
C      1  0.4256000000000  0.5428880000000  0.5111690000000 1.0
C      1  0.6244400000000  0.5296420000000  0.4284830000000 1.0
C      1  0.4819040000000  0.4380730000000  0.4937690000000 1.0
C      1  0.3999450000000  0.5688190000000  0.4190090000000 1.0
C      1  0.4231520000000  0.6143120000000  0.5247530000000 1.0
C      1  0.4825660000000  0.4603180000000  0.5070520000000 1.0
C      1  0.4073190000000  0.4183150000000  0.4487090000000 1.0
C      1  0.4698430000000  0.6066650000000  0.5267630000000 1.0
C      1  0.5774840000000  0.4635440000000  0.5416580000000 1.0
C      1  0.4060040000000  0.5174190000000  0.4779100000000 1.0
C      1  0.4052460000000  0.5716840000000  0.5442840000000 1.0
C      1  0.4925360000000  0.5919600000000  0.4190950000000 1.0
C      1  0.5414270000000  0.5831650000000  0.5823590000000 1.0
C      1  0.4476290000000  0.5109020000000  0.3964820000000 1.0
C      1  0.4709370000000  0.4394630000000  0.3947780000000 1.0
C      1  0.5967860000000  0.4692410000000  0.6268270000000 1.0
C      1  0.5212030000000  0.3939770000000  0.5173160000000 1.0
C      1  0.4285090000000  0.4976270000000  0.5843710000000 1.0
C      1  0.6001510000000  0.4619080000000  0.5230190000000 1.0
C      1  0.5358850000000  0.4305470000000  0.4928320000000 1.0
C      1  0.5446040000000  0.5711430000000  0.4669540000000 1.0
C      1  0.5516100000000  0.4516830000000  0.4829690000000 1.0
C      1  0.3856470000000  0.4016370000000  0.5640270000000 1.0
C      1  0.5431010000000  0.4763220000000  0.4734930000000 1.0
C      1  0.4463330000000  0.6174330000000  0.4801610000000 1.0
C      1  0.4714920000000  0.3962070000000  0.5165810000000 1.0
C      1  0.5580040000000  0.5041520000000  0.4082460000000 1.0
C      1  0.5392640000000  0.5767490000000  0.4381350000000 1.0
C      1  0.5614460000000  0.5200810000000  0.5142200000000 1.0
C      1  0.4749310000000  0.5105770000000  0.3882410000000 1.0
C      1  0.5665990000000  0.5892080000000  0.5625150000000 1.0
C      1  0.4278170000000  0.4233110000000  0.4296760000000 1.0
C      1  0.4681030000000  0.5239540000000  0.6064890000000 1.0
C      1  0.4337940000000  0.4637690000000  0.5218110000000 1.0
C      1  0.4924100000000  0.3561050000000  0.5050490000000 1.0
C      1  0.5265020000000  0.5743160000000  0.5346260000000 1.0
C      1  0.4367940000000  0.4482060000000  0.4971400000000 1.0
C      1  0.4501410000000  0.5372410000000  0.4662820000000 1.0
C      1  0.4646910000000  0.6025560000000  0.4268350000000 1.0
C      1  0.5405880000000  0.5426570000000  0.4725020000000 1.0
C      1  0.4261890000000  0.5467570000000  0.5886900000000 1.0
C      1  0.5494970000000  0.5596780000000  0.6015830000000 1.0
C      1  0.4945510000000  0.5429030000000  0.5455050000000 1.0
C      1  0.5507320000000  0.4374720000000  0.5744360000000 1.0
C      1  0.4078290000000  0.4841730000000  0.4042530000000 1.0
C      1  0.5939500000000  0.4697090000000  0.4435010000000 1.0
C      1  0.5764270000000  0.4772500000000  0.4228190000000 1.0
C      1  0.4418850000000  0.4480270000000  0.4279170000000 1.0
C      1  0.4770510000000  0.5074310000000  0.4883220000000 1.0
C      1  0.3818950000000  0.4894400000000  0.5706060000000 1.0
C      1  0.5780910000000  0.5610700000000  0.6007010000000 1.0
C      1  0.5371810000000  0.4115680000000  0.5756350000000 1.0
C      1  0.4053940000000  0.5029020000000  0.5687700000000 1.0
C      1  0.4314430000000  0.5235860000000  0.5321640000000 1.0
C      1  0.5874280000000  0.5307010000000  0.5159210000000 1.0
C      1  0.4104660000000  0.5248460000000  0.5519610000000 1.0
C      1  0.4223350000000  0.4092320000000  0.4714130000000 1.0
C      1  0.5172950000000  0.5310380000000  0.4838280000000 1.0
C      1  0.5284350000000  0.4185990000000  0.4471940000000 1.0
C      1  0.4123940000000  0.4818820000000  0.5170100000000 1.0
C      1  0.4569140000000  0.5142430000000  0.5426630000000 1.0
C      1  0.5601530000000  0.4931140000000  0.5108990000000 1.0
C      1  0.5722970000000  0.4378730000000  0.5536590000000 1.0
C      1  0.4413100000000  0.4875440000000  0.4663490000000 1.0
C      1  0.5659410000000  0.4288990000000  0.4196210000000 1.0
C      1  0.3907140000000  0.4972320000000  0.4204140000000 1.0
C      1  0.4477890000000  0.5617530000000  0.4012300000000 1.0
C      1  0.5748320000000  0.4099290000000  0.4735530000000 1.0
C      1  0.4547530000000  0.4645280000000  0.5500690000000 1.0
C      1  0.5873570000000  0.5322360000000  0.4675480000000 1.0
C      1  0.5198820000000  0.5011720000000  0.4402240000000 1.0
C      1  0.4106250000000  0.5992990000000  0.5434390000000 1.0
C      1  0.4616940000000  0.6139740000000  0.4549180000000 1.0
C      1  0.4961140000000  0.3810080000000  0.5192130000000 1.0
C      1  0.5188490000000  0.5975360000000  0.4322530000000 1.0
C      1  0.5263710000000  0.4228620000000  0.5188700000000 1.0
C      1  0.5843220000000  0.4201240000000  0.5319660000000 1.0
C      1  0.5671030000000  0.3913910000000  0.4963810000000 1.0
C      1  0.6000770000000  0.4822900000000  0.6045010000000 1.0
END
