TITL C-627109-622-131 19580.404412645 125000 -1180.71482018556 0 0 193 (C1) n - 1
REM
REM in /home/nfs/bkarasulu/CARBON/AIRSS/Generating-Clusters/LCBOP/Only-C1/SD-CG/FIRE-CG
REM
REM
REM
REM
REM
REM ./C.cell (11c1c37f851c82e70ff6c80c92926a4b)
REM AIRSS Version 0.9.1 bugfix July 2018 build 013d7b7c2542+ Fri, 06 Jul 2018 19:26:36 +0100
REM compiler GCC version 9.2.1 20190827 (Red Hat 9.2.1-1)
REM options -cpp -mtune=generic -march=x86-64 -g -O0 -fpre-include=/usr/include/finclude/math-vector-fortran.h
REM seed -253114006 -855179957 329086732 1127444528 1795746891 -2124851948 -632189937 -1170710594 1355691200 1044823854 -754696214 1175125093 1384922066 1736047295 -813642484 -1136968897 -600093909 1954195173 -566947263 -1814613447 1750922297 -2033075073 -403177625 1837092204 1468952312 -187062494 1958475643 -495928486 1345036934 -1981317498 -249511069 -11748403 -765269844
REM
CELL 1.54180   50.00000   50.00000   50.00000   90.00000   90.00000   90.00000
LATT -1
SFAC C  
C      1  0.5700160000000  0.5107560000000  0.4462180000000 1.0
C      1  0.4352040000000  0.5198380000000  0.5821800000000 1.0
C      1  0.4934240000000  0.3652220000000  0.4388020000000 1.0
C      1  0.5491730000000  0.5211570000000  0.4620230000000 1.0
C      1  0.5346200000000  0.5772100000000  0.5103020000000 1.0
C      1  0.3687490000000  0.4451690000000  0.5090950000000 1.0
C      1  0.5272400000000  0.5303200000000  0.4986480000000 1.0
C      1  0.4906390000000  0.5511570000000  0.5195990000000 1.0
C      1  0.5006310000000  0.5642160000000  0.6424430000000 1.0
C      1  0.4205270000000  0.4427310000000  0.5809410000000 1.0
C      1  0.4026530000000  0.5775890000000  0.5720520000000 1.0
C      1  0.5307840000000  0.4617770000000  0.5256110000000 1.0
C      1  0.5019970000000  0.4413620000000  0.4954550000000 1.0
C      1  0.5141550000000  0.4077100000000  0.5593320000000 1.0
C      1  0.5617820000000  0.3999980000000  0.5305830000000 1.0
C      1  0.4384830000000  0.6038800000000  0.5212060000000 1.0
C      1  0.4049650000000  0.4297860000000  0.4804590000000 1.0
C      1  0.6251690000000  0.4944670000000  0.5649320000000 1.0
C      1  0.6662560000000  0.5525150000000  0.5059980000000 1.0
C      1  0.6367760000000  0.5889270000000  0.4591110000000 1.0
C      1  0.4855440000000  0.4442170000000  0.4096470000000 1.0
C      1  0.4954840000000  0.4094360000000  0.4613160000000 1.0
C      1  0.5709590000000  0.5489430000000  0.5027360000000 1.0
C      1  0.5639600000000  0.5089860000000  0.5851920000000 1.0
C      1  0.4460100000000  0.3949170000000  0.5272840000000 1.0
C      1  0.5678230000000  0.4175300000000  0.5505550000000 1.0
C      1  0.4766390000000  0.5016700000000  0.6202000000000 1.0
C      1  0.4441900000000  0.4626060000000  0.4549320000000 1.0
C      1  0.4285860000000  0.4099640000000  0.5690630000000 1.0
C      1  0.5273170000000  0.6023920000000  0.4441650000000 1.0
C      1  0.5683810000000  0.4587760000000  0.5868410000000 1.0
C      1  0.4418610000000  0.3901070000000  0.4703070000000 1.0
C      1  0.5339100000000  0.5441020000000  0.3935370000000 1.0
C      1  0.4575130000000  0.4384540000000  0.4063600000000 1.0
C      1  0.4962270000000  0.6027150000000  0.5467800000000 1.0
C      1  0.6277000000000  0.5638180000000  0.4601490000000 1.0
C      1  0.4909050000000  0.3781510000000  0.5305720000000 1.0
C      1  0.6352290000000  0.4957830000000  0.5385910000000 1.0
C      1  0.4075500000000  0.5129470000000  0.4398370000000 1.0
C      1  0.5188020000000  0.4983720000000  0.4319990000000 1.0
C      1  0.6033600000000  0.4399820000000  0.4207840000000 1.0
C      1  0.4538240000000  0.3816200000000  0.4988130000000 1.0
C      1  0.5074460000000  0.6157660000000  0.4979930000000 1.0
C      1  0.4923760000000  0.6234410000000  0.4737160000000 1.0
C      1  0.5074380000000  0.5913160000000  0.5691660000000 1.0
C      1  0.4084130000000  0.5076200000000  0.5827220000000 1.0
C      1  0.5386720000000  0.5232940000000  0.5483540000000 1.0
C      1  0.4242620000000  0.4786610000000  0.4669060000000 1.0
C      1  0.4033780000000  0.4872830000000  0.4496880000000 1.0
C      1  0.4969470000000  0.6019500000000  0.6793780000000 1.0
C      1  0.5318220000000  0.4730260000000  0.4348980000000 1.0
C      1  0.6298910000000  0.5395930000000  0.4771500000000 1.0
C      1  0.4999590000000  0.5479520000000  0.6191740000000 1.0
C      1  0.4397220000000  0.4353990000000  0.4499100000000 1.0
C      1  0.4327190000000  0.5342850000000  0.5293960000000 1.0
C      1  0.5109520000000  0.4322360000000  0.4001790000000 1.0
C      1  0.4604230000000  0.4648790000000  0.5242010000000 1.0
C      1  0.5428810000000  0.4694540000000  0.3797480000000 1.0
C      1  0.4074170000000  0.5467900000000  0.5342880000000 1.0
C      1  0.4715840000000  0.5454070000000  0.4995380000000 1.0
C      1  0.4412630000000  0.4636470000000  0.4012380000000 1.0
C      1  0.5532860000000  0.5330650000000  0.4871460000000 1.0
C      1  0.5213090000000  0.5019320000000  0.5434230000000 1.0
C      1  0.5503570000000  0.3778920000000  0.4713330000000 1.0
C      1  0.5280200000000  0.5752060000000  0.5825780000000 1.0
C      1  0.3447470000000  0.4552000000000  0.5106380000000 1.0
C      1  0.5119110000000  0.4607100000000  0.4770070000000 1.0
C      1  0.5231290000000  0.5460280000000  0.5510950000000 1.0
C      1  0.4847270000000  0.4081370000000  0.5647540000000 1.0
C      1  0.4939830000000  0.6218090000000  0.6960070000000 1.0
C      1  0.5140850000000  0.4240270000000  0.4456250000000 1.0
C      1  0.4973730000000  0.5400720000000  0.4246910000000 1.0
C      1  0.3925380000000  0.4409550000000  0.4553540000000 1.0
C      1  0.4136620000000  0.4614390000000  0.4110050000000 1.0
C      1  0.4880030000000  0.4598710000000  0.4342080000000 1.0
C      1  0.4789320000000  0.5802920000000  0.4516000000000 1.0
C      1  0.5033410000000  0.4874600000000  0.4804990000000 1.0
C      1  0.4523160000000  0.4299420000000  0.5908980000000 1.0
C      1  0.5533080000000  0.3832380000000  0.4450260000000 1.0
C      1  0.4979680000000  0.5347330000000  0.4537750000000 1.0
C      1  0.5928250000000  0.5039720000000  0.4626470000000 1.0
C      1  0.4971870000000  0.3812380000000  0.4604680000000 1.0
C      1  0.5247840000000  0.4887680000000  0.5201760000000 1.0
C      1  0.5580040000000  0.4650540000000  0.4296040000000 1.0
C      1  0.5174100000000  0.5034630000000  0.4981990000000 1.0
C      1  0.5675910000000  0.5857750000000  0.4585150000000 1.0
C      1  0.4407910000000  0.5193040000000  0.3921660000000 1.0
C      1  0.5140790000000  0.4534930000000  0.4486980000000 1.0
C      1  0.5702100000000  0.5773700000000  0.5458150000000 1.0
C      1  0.3899640000000  0.5423400000000  0.5120140000000 1.0
C      1  0.4595380000000  0.5355820000000  0.5909130000000 1.0
C      1  0.4740640000000  0.5382460000000  0.4702080000000 1.0
C      1  0.4010250000000  0.4842700000000  0.5686420000000 1.0
C      1  0.4691860000000  0.4738290000000  0.4503790000000 1.0
C      1  0.4703980000000  0.3926890000000  0.5447690000000 1.0
C      1  0.5387290000000  0.3869510000000  0.5200100000000 1.0
C      1  0.4311350000000  0.5284330000000  0.4381470000000 1.0
C      1  0.6872010000000  0.5675320000000  0.5098690000000 1.0
C      1  0.5224130000000  0.5176870000000  0.4538280000000 1.0
C      1  0.5624460000000  0.5709770000000  0.4338130000000 1.0
C      1  0.4563990000000  0.4277190000000  0.4913610000000 1.0
C      1  0.4615090000000  0.4808940000000  0.5762650000000 1.0
C      1  0.5001060000000  0.5754790000000  0.4659800000000 1.0
C      1  0.5315280000000  0.6004520000000  0.4940290000000 1.0
C      1  0.5799250000000  0.4850990000000  0.5909010000000 1.0
C      1  0.6115470000000  0.4651690000000  0.4858340000000 1.0
C      1  0.5535240000000  0.5775700000000  0.5689980000000 1.0
C      1  0.5627320000000  0.5104040000000  0.5559410000000 1.0
C      1  0.5448660000000  0.6003390000000  0.4683670000000 1.0
C      1  0.5286090000000  0.4466870000000  0.3833110000000 1.0
C      1  0.5054020000000  0.4418560000000  0.5917030000000 1.0
C      1  0.5606480000000  0.5695590000000  0.5199620000000 1.0
C      1  0.4333600000000  0.4194600000000  0.4747660000000 1.0
C      1  0.5063630000000  0.6211790000000  0.4487220000000 1.0
C      1  0.4638920000000  0.6140490000000  0.4770190000000 1.0
C      1  0.4077990000000  0.4570450000000  0.5608090000000 1.0
C      1  0.3953520000000  0.4359470000000  0.5076340000000 1.0
C      1  0.4771650000000  0.4908470000000  0.4716090000000 1.0
C      1  0.4565540000000  0.4943080000000  0.3945260000000 1.0
C      1  0.6313630000000  0.4593020000000  0.5030240000000 1.0
C      1  0.4825050000000  0.3717160000000  0.5041150000000 1.0
C      1  0.5245630000000  0.5508370000000  0.6010290000000 1.0
C      1  0.3822010000000  0.5955840000000  0.4865770000000 1.0
C      1  0.5803930000000  0.5500810000000  0.4252600000000 1.0
C      1  0.6406600000000  0.4716090000000  0.5249860000000 1.0
C      1  0.4792990000000  0.4273680000000  0.5855600000000 1.0
C      1  0.5073250000000  0.4995310000000  0.3740040000000 1.0
C      1  0.5433020000000  0.3954350000000  0.4229390000000 1.0
C      1  0.5926440000000  0.4862860000000  0.4857070000000 1.0
C      1  0.6359680000000  0.5192080000000  0.5226870000000 1.0
C      1  0.5964660000000  0.5849020000000  0.5484490000000 1.0
C      1  0.4441720000000  0.5455090000000  0.5062780000000 1.0
C      1  0.6131510000000  0.5228510000000  0.4612470000000 1.0
C      1  0.4840190000000  0.4585780000000  0.5378650000000 1.0
C      1  0.5542980000000  0.4621650000000  0.5416920000000 1.0
C      1  0.5463960000000  0.5290680000000  0.5990090000000 1.0
C      1  0.5809280000000  0.4913090000000  0.5116020000000 1.0
C      1  0.4255290000000  0.4106890000000  0.5409670000000 1.0
C      1  0.3996710000000  0.5499130000000  0.4859840000000 1.0
C      1  0.4886140000000  0.6099780000000  0.5199350000000 1.0
C      1  0.3975060000000  0.4625680000000  0.4354060000000 1.0
C      1  0.4591480000000  0.4832820000000  0.6055210000000 1.0
C      1  0.4124560000000  0.5952370000000  0.5274480000000 1.0
C      1  0.4091150000000  0.4340710000000  0.5331750000000 1.0
C      1  0.4403100000000  0.5683430000000  0.4154170000000 1.0
C      1  0.4527220000000  0.4908950000000  0.5172340000000 1.0
C      1  0.5022720000000  0.4948130000000  0.6079600000000 1.0
C      1  0.4618090000000  0.6093840000000  0.5067150000000 1.0
C      1  0.4164740000000  0.6090220000000  0.4285680000000 1.0
C      1  0.5185230000000  0.5575850000000  0.4136480000000 1.0
C      1  0.4851910000000  0.4729060000000  0.5617360000000 1.0
C      1  0.5700360000000  0.4873180000000  0.5381120000000 1.0
C      1  0.5267210000000  0.4303350000000  0.5736660000000 1.0
C      1  0.6074790000000  0.4882500000000  0.5841880000000 1.0
C      1  0.5090550000000  0.4667170000000  0.6058630000000 1.0
C      1  0.3918290000000  0.6041360000000  0.5102410000000 1.0
C      1  0.4473690000000  0.5016750000000  0.5629990000000 1.0
C      1  0.4276330000000  0.5456490000000  0.4826660000000 1.0
C      1  0.6433720000000  0.5367960000000  0.5017810000000 1.0
C      1  0.5549460000000  0.4419130000000  0.5649240000000 1.0
C      1  0.4854700000000  0.4997350000000  0.3929340000000 1.0
C      1  0.5491610000000  0.5195810000000  0.3965250000000 1.0
C      1  0.3864210000000  0.5718840000000  0.4743060000000 1.0
C      1  0.5338220000000  0.5784720000000  0.4271070000000 1.0
C      1  0.4074120000000  0.5733020000000  0.5454780000000 1.0
C      1  0.5004570000000  0.5110600000000  0.5830720000000 1.0
C      1  0.4470110000000  0.3916700000000  0.4400920000000 1.0
C      1  0.4272600000000  0.5236410000000  0.3685410000000 1.0
C      1  0.4473680000000  0.4191970000000  0.4271820000000 1.0
C      1  0.5810780000000  0.4526460000000  0.4255270000000 1.0
C      1  0.4836320000000  0.4234720000000  0.4836900000000 1.0
C      1  0.5167820000000  0.3882370000000  0.5379450000000 1.0
C      1  0.4386070000000  0.5394770000000  0.4132070000000 1.0
C      1  0.4588380000000  0.4981380000000  0.4912510000000 1.0
C      1  0.4827040000000  0.5335870000000  0.5720610000000 1.0
C      1  0.4488110000000  0.4437900000000  0.5120710000000 1.0
C      1  0.4994220000000  0.5823220000000  0.6617360000000 1.0
C      1  0.4560310000000  0.5966230000000  0.4542880000000 1.0
C      1  0.5691810000000  0.5229720000000  0.4191440000000 1.0
C      1  0.5232660000000  0.4151020000000  0.4202310000000 1.0
C      1  0.5324570000000  0.3766950000000  0.4934850000000 1.0
C      1  0.6060380000000  0.5495630000000  0.4369320000000 1.0
C      1  0.5358490000000  0.4969690000000  0.3815760000000 1.0
C      1  0.5044100000000  0.3712230000000  0.4859020000000 1.0
C      1  0.4449900000000  0.5373100000000  0.4610420000000 1.0
C      1  0.4938450000000  0.5460990000000  0.5484280000000 1.0
C      1  0.4430630000000  0.5087450000000  0.5364450000000 1.0
C      1  0.5050320000000  0.4924190000000  0.5627180000000 1.0
C      1  0.4372310000000  0.5916270000000  0.4329280000000 1.0
C      1  0.5062740000000  0.4477230000000  0.5225970000000 1.0
C      1  0.4979730000000  0.5117120000000  0.4154630000000 1.0
C      1  0.4744040000000  0.5310980000000  0.6163070000000 1.0
C      1  0.5164280000000  0.5547800000000  0.5080360000000 1.0
END
