TITL C-627107-135-188 3.04226417022648 125000 -864.430136451194 0 0 142 (C1) n - 1
REM
REM in /home/nfs/bkarasulu/CARBON/AIRSS/Generating-Clusters/LCBOP/Only-C1/SD-CG/FIRE-CG
REM
REM
REM
REM
REM
REM ./C.cell (11c1c37f851c82e70ff6c80c92926a4b)
REM AIRSS Version 0.9.1 bugfix July 2018 build 013d7b7c2542+ Fri, 06 Jul 2018 19:26:36 +0100
REM compiler GCC version 9.2.1 20190827 (Red Hat 9.2.1-1)
REM options -cpp -mtune=generic -march=x86-64 -g -O0 -fpre-include=/usr/include/finclude/math-vector-fortran.h
REM seed -915941756 2127544475 -1524533941 1395171739 1418870453 486078768 154408002 -675952317 -939800571 337130021 -547424573 -150042302 -1706467823 -403194555 -546596398 938964558 1657253486 357428704 1268015211 -1616303925 -645461098 -86987360 1058601552 -1103586458 -1206439757 -1228693895 -1551738948 -1919129227 1783350311 -447470799 1991818835 1559943150 -1147620457
REM
CELL 1.54180   50.00000   50.00000   50.00000   90.00000   90.00000   90.00000
LATT -1
SFAC C  
C      1  0.5246710000000  0.5907470000000  0.4667980000000 1.0
C      1  0.4817650000000  0.4565470000000  0.4286630000000 1.0
C      1  0.5410120000000  0.5889510000000  0.5334400000000 1.0
C      1  0.5553680000000  0.4480810000000  0.4335500000000 1.0
C      1  0.5379390000000  0.3898020000000  0.5546390000000 1.0
C      1  0.5968480000000  0.5436410000000  0.4444290000000 1.0
C      1  0.4154420000000  0.4588640000000  0.4616760000000 1.0
C      1  0.4297500000000  0.5512900000000  0.4773180000000 1.0
C      1  0.5047480000000  0.4429990000000  0.4196810000000 1.0
C      1  0.4110850000000  0.5411400000000  0.4973080000000 1.0
C      1  0.5968360000000  0.4740060000000  0.4667430000000 1.0
C      1  0.4811120000000  0.4094700000000  0.5174970000000 1.0
C      1  0.4583120000000  0.4045390000000  0.4898620000000 1.0
C      1  0.4116760000000  0.5517800000000  0.5454140000000 1.0
C      1  0.4639540000000  0.4133950000000  0.4609120000000 1.0
C      1  0.5364840000000  0.4647370000000  0.4909150000000 1.0
C      1  0.4214500000000  0.4304510000000  0.5164760000000 1.0
C      1  0.4642150000000  0.5078290000000  0.5639200000000 1.0
C      1  0.5738530000000  0.4321180000000  0.4488630000000 1.0
C      1  0.4278930000000  0.4994950000000  0.4225520000000 1.0
C      1  0.4197040000000  0.5249040000000  0.5465970000000 1.0
C      1  0.6050250000000  0.5082420000000  0.5540410000000 1.0
C      1  0.4567190000000  0.5709780000000  0.5338830000000 1.0
C      1  0.4604490000000  0.5735460000000  0.5834920000000 1.0
C      1  0.6422380000000  0.4580220000000  0.5121440000000 1.0
C      1  0.5283630000000  0.5615780000000  0.4113910000000 1.0
C      1  0.5454170000000  0.5671510000000  0.5527900000000 1.0
C      1  0.5705230000000  0.5763290000000  0.4881850000000 1.0
C      1  0.5226340000000  0.5711220000000  0.3849830000000 1.0
C      1  0.4238220000000  0.4766390000000  0.5821900000000 1.0
C      1  0.4012130000000  0.5142070000000  0.4616390000000 1.0
C      1  0.4569950000000  0.5253800000000  0.5185540000000 1.0
C      1  0.4424040000000  0.4289470000000  0.4357510000000 1.0
C      1  0.4256870000000  0.5011340000000  0.5969440000000 1.0
C      1  0.5481600000000  0.4315990000000  0.5354470000000 1.0
C      1  0.5642620000000  0.3939990000000  0.4836630000000 1.0
C      1  0.5106520000000  0.5433090000000  0.4838980000000 1.0
C      1  0.5582400000000  0.5177100000000  0.5687300000000 1.0
C      1  0.5254020000000  0.5304780000000  0.4639380000000 1.0
C      1  0.4034150000000  0.4962480000000  0.4386410000000 1.0
C      1  0.5576570000000  0.4798790000000  0.5053480000000 1.0
C      1  0.5747930000000  0.4893840000000  0.4564320000000 1.0
C      1  0.5182360000000  0.5036060000000  0.4585800000000 1.0
C      1  0.4711450000000  0.4938410000000  0.3981970000000 1.0
C      1  0.5569530000000  0.5611200000000  0.4181640000000 1.0
C      1  0.4343650000000  0.6028790000000  0.3868090000000 1.0
C      1  0.4506770000000  0.4951600000000  0.4767630000000 1.0
C      1  0.5414480000000  0.5231100000000  0.5908080000000 1.0
C      1  0.5000850000000  0.5012560000000  0.5952750000000 1.0
C      1  0.4651360000000  0.5277810000000  0.4413040000000 1.0
C      1  0.4485150000000  0.5215550000000  0.5451560000000 1.0
C      1  0.5739620000000  0.5745620000000  0.3995000000000 1.0
C      1  0.5147320000000  0.5350430000000  0.5305470000000 1.0
C      1  0.4564290000000  0.5609400000000  0.4843570000000 1.0
C      1  0.5409000000000  0.4674770000000  0.5666810000000 1.0
C      1  0.5893070000000  0.4843850000000  0.5526660000000 1.0
C      1  0.3882580000000  0.4688140000000  0.5085160000000 1.0
C      1  0.4784530000000  0.5563050000000  0.4393110000000 1.0
C      1  0.4378760000000  0.4699710000000  0.4752860000000 1.0
C      1  0.5312780000000  0.4397270000000  0.4218590000000 1.0
C      1  0.4399510000000  0.4260400000000  0.4963380000000 1.0
C      1  0.5016070000000  0.4503690000000  0.5347160000000 1.0
C      1  0.5138080000000  0.5228420000000  0.5839940000000 1.0
C      1  0.5182600000000  0.4866150000000  0.4820140000000 1.0
C      1  0.4595140000000  0.5029040000000  0.5022820000000 1.0
C      1  0.6116570000000  0.4864400000000  0.4875440000000 1.0
C      1  0.3969970000000  0.4435530000000  0.5118250000000 1.0
C      1  0.5304350000000  0.4519720000000  0.5444770000000 1.0
C      1  0.5654240000000  0.5119130000000  0.4714480000000 1.0
C      1  0.5049790000000  0.4920390000000  0.5068110000000 1.0
C      1  0.4474620000000  0.5495680000000  0.5923420000000 1.0
C      1  0.4620370000000  0.5943430000000  0.6015000000000 1.0
C      1  0.4771070000000  0.5715270000000  0.4666620000000 1.0
C      1  0.4256120000000  0.4788960000000  0.5530300000000 1.0
C      1  0.5167070000000  0.4808610000000  0.6068130000000 1.0
C      1  0.6049410000000  0.5266660000000  0.5343790000000 1.0
C      1  0.3989970000000  0.5149800000000  0.4913970000000 1.0
C      1  0.5603120000000  0.4760730000000  0.4361080000000 1.0
C      1  0.4546070000000  0.4491920000000  0.4845150000000 1.0
C      1  0.4388140000000  0.4259510000000  0.5844280000000 1.0
C      1  0.5925660000000  0.5283210000000  0.5076010000000 1.0
C      1  0.4375820000000  0.5264650000000  0.4325420000000 1.0
C      1  0.4677640000000  0.5017990000000  0.4551510000000 1.0
C      1  0.4469560000000  0.4803410000000  0.4103680000000 1.0
C      1  0.4751630000000  0.4656200000000  0.5326380000000 1.0
C      1  0.5527150000000  0.5337860000000  0.4585440000000 1.0
C      1  0.4481240000000  0.4185120000000  0.5582220000000 1.0
C      1  0.4767610000000  0.4382150000000  0.4683960000000 1.0
C      1  0.5204050000000  0.4926140000000  0.5293960000000 1.0
C      1  0.5404100000000  0.5824200000000  0.3677960000000 1.0
C      1  0.5201410000000  0.4401320000000  0.4916570000000 1.0
C      1  0.5645670000000  0.5113150000000  0.5028060000000 1.0
C      1  0.6178600000000  0.4704960000000  0.5106590000000 1.0
C      1  0.4617170000000  0.5731180000000  0.4203750000000 1.0
C      1  0.4171270000000  0.4362500000000  0.4463770000000 1.0
C      1  0.5849140000000  0.5571190000000  0.5001640000000 1.0
C      1  0.4718440000000  0.5780450000000  0.5571010000000 1.0
C      1  0.4994230000000  0.4426150000000  0.5820240000000 1.0
C      1  0.4678110000000  0.5524080000000  0.5115710000000 1.0
C      1  0.5992940000000  0.4674650000000  0.5322460000000 1.0
C      1  0.4986640000000  0.5987680000000  0.5049940000000 1.0
C      1  0.5625600000000  0.4884320000000  0.5633890000000 1.0
C      1  0.5687860000000  0.5474460000000  0.4399030000000 1.0
C      1  0.4101220000000  0.4991810000000  0.5387600000000 1.0
C      1  0.4992340000000  0.5846270000000  0.5533780000000 1.0
C      1  0.5961630000000  0.4468520000000  0.4590700000000 1.0
C      1  0.5030290000000  0.4300540000000  0.5135980000000 1.0
C      1  0.5236260000000  0.4593810000000  0.5891710000000 1.0
C      1  0.5123430000000  0.5962010000000  0.5297420000000 1.0
C      1  0.4839940000000  0.4810550000000  0.4430840000000 1.0
C      1  0.4962160000000  0.4162490000000  0.5688630000000 1.0
C      1  0.4282370000000  0.5717430000000  0.5372190000000 1.0
C      1  0.5502770000000  0.5875910000000  0.4746070000000 1.0
C      1  0.4775480000000  0.4618860000000  0.5822390000000 1.0
C      1  0.6130040000000  0.5306860000000  0.4620890000000 1.0
C      1  0.5598960000000  0.3922480000000  0.5099040000000 1.0
C      1  0.5566790000000  0.5393010000000  0.5482920000000 1.0
C      1  0.5677250000000  0.4077190000000  0.4610580000000 1.0
C      1  0.4204270000000  0.5365740000000  0.4535410000000 1.0
C      1  0.4543120000000  0.4519480000000  0.4207700000000 1.0
C      1  0.5439660000000  0.5289670000000  0.5239380000000 1.0
C      1  0.6109920000000  0.5155210000000  0.4864260000000 1.0
C      1  0.5508670000000  0.4036100000000  0.5337650000000 1.0
C      1  0.3972850000000  0.4953000000000  0.5128150000000 1.0
C      1  0.5063600000000  0.5556480000000  0.4278890000000 1.0
C      1  0.4969030000000  0.5018070000000  0.4063430000000 1.0
C      1  0.4983410000000  0.5454870000000  0.5093550000000 1.0
C      1  0.4278580000000  0.4499550000000  0.5921960000000 1.0
C      1  0.4984020000000  0.5891870000000  0.4778090000000 1.0
C      1  0.5170180000000  0.3970590000000  0.5699330000000 1.0
C      1  0.4777580000000  0.4905280000000  0.5814660000000 1.0
C      1  0.4479920000000  0.5882160000000  0.4035080000000 1.0
C      1  0.4466530000000  0.4623350000000  0.5411840000000 1.0
C      1  0.4745140000000  0.4102260000000  0.5490400000000 1.0
C      1  0.5065550000000  0.4965210000000  0.4334370000000 1.0
C      1  0.5178000000000  0.5656010000000  0.5645070000000 1.0
C      1  0.4346290000000  0.5267030000000  0.5993220000000 1.0
C      1  0.4786440000000  0.4855720000000  0.5124230000000 1.0
C      1  0.5664900000000  0.5844050000000  0.3752870000000 1.0
C      1  0.5044050000000  0.4374540000000  0.4685150000000 1.0
C      1  0.5092710000000  0.5381970000000  0.5602270000000 1.0
C      1  0.4361430000000  0.4357510000000  0.5395760000000 1.0
END
