TITL C-627109-622-179 0.0225240529083638 125000 -1041.71119447906 0 0 168 (C1) n - 1
REM
REM in /home/nfs/bkarasulu/CARBON/AIRSS/Generating-Clusters/LCBOP/Only-C1/SD-CG/FIRE-CG
REM
REM
REM
REM
REM
REM ./C.cell (11c1c37f851c82e70ff6c80c92926a4b)
REM AIRSS Version 0.9.1 bugfix July 2018 build 013d7b7c2542+ Fri, 06 Jul 2018 19:26:36 +0100
REM compiler GCC version 9.2.1 20190827 (Red Hat 9.2.1-1)
REM options -cpp -mtune=generic -march=x86-64 -g -O0 -fpre-include=/usr/include/finclude/math-vector-fortran.h
REM seed -1311837630 -1372117394 -586280314 -71492152 1713333560 812459418 915571821 -206446166 1941956915 1774408787 -759720983 1570287870 -2099503784 1495439367 1558766382 257174391 -1377838634 -1569527565 1187786138 -1490081679 1489721598 -875627286 -698169353 -743747779 286646172 -2049670099 -1968101800 403408654 -1372215168 469842797 -2082631284 533894876 536123810
REM
CELL 1.54180   50.00000   50.00000   50.00000   90.00000   90.00000   90.00000
LATT -1
SFAC C  
C      1  0.3709690000000  0.5125000000000  0.4782890000000 1.0
C      1  0.4051270000000  0.5217130000000  0.4200910000000 1.0
C      1  0.6101880000000  0.4947510000000  0.5423380000000 1.0
C      1  0.5322910000000  0.4016550000000  0.5779650000000 1.0
C      1  0.4756750000000  0.3794520000000  0.4872420000000 1.0
C      1  0.5950190000000  0.4294340000000  0.5682440000000 1.0
C      1  0.4872050000000  0.5699940000000  0.5402790000000 1.0
C      1  0.5498440000000  0.5465190000000  0.4407180000000 1.0
C      1  0.4218190000000  0.3979760000000  0.5890510000000 1.0
C      1  0.4049550000000  0.5098460000000  0.4454520000000 1.0
C      1  0.4332820000000  0.3759720000000  0.5455950000000 1.0
C      1  0.5025560000000  0.4838880000000  0.5880790000000 1.0
C      1  0.4054360000000  0.5111880000000  0.5884980000000 1.0
C      1  0.4971170000000  0.6198060000000  0.4940190000000 1.0
C      1  0.5198020000000  0.4174140000000  0.4897330000000 1.0
C      1  0.4192920000000  0.4859600000000  0.4524170000000 1.0
C      1  0.4304090000000  0.4494960000000  0.5196270000000 1.0
C      1  0.4084370000000  0.5472750000000  0.4726270000000 1.0
C      1  0.4806550000000  0.6251230000000  0.5160060000000 1.0
C      1  0.4763160000000  0.3922690000000  0.4610460000000 1.0
C      1  0.5462910000000  0.5926780000000  0.4477430000000 1.0
C      1  0.4516510000000  0.3897320000000  0.5004680000000 1.0
C      1  0.5687160000000  0.5982160000000  0.4648810000000 1.0
C      1  0.4997440000000  0.5481180000000  0.4989840000000 1.0
C      1  0.5494460000000  0.4444860000000  0.4685240000000 1.0
C      1  0.4013340000000  0.5613570000000  0.5312820000000 1.0
C      1  0.5962630000000  0.4441690000000  0.4956400000000 1.0
C      1  0.5423430000000  0.5885960000000  0.5037860000000 1.0
C      1  0.4827600000000  0.4827800000000  0.4004660000000 1.0
C      1  0.4687320000000  0.5063360000000  0.5035390000000 1.0
C      1  0.5934770000000  0.4754310000000  0.5540890000000 1.0
C      1  0.5306540000000  0.4448160000000  0.4917640000000 1.0
C      1  0.4833760000000  0.6202780000000  0.4683890000000 1.0
C      1  0.5751880000000  0.6029140000000  0.5514440000000 1.0
C      1  0.4616050000000  0.4172670000000  0.4639450000000 1.0
C      1  0.5087730000000  0.5276780000000  0.5178870000000 1.0
C      1  0.4196950000000  0.4611060000000  0.4119020000000 1.0
C      1  0.5382920000000  0.4523860000000  0.5208830000000 1.0
C      1  0.5303970000000  0.5408230000000  0.5367140000000 1.0
C      1  0.5580790000000  0.4994690000000  0.4901010000000 1.0
C      1  0.4866850000000  0.4980480000000  0.4616280000000 1.0
C      1  0.4524170000000  0.5202510000000  0.4112420000000 1.0
C      1  0.4364150000000  0.4854670000000  0.4749920000000 1.0
C      1  0.4568150000000  0.5297330000000  0.5596020000000 1.0
C      1  0.4809230000000  0.5243040000000  0.4549040000000 1.0
C      1  0.5998490000000  0.5176630000000  0.4777940000000 1.0
C      1  0.3921440000000  0.5382360000000  0.5461240000000 1.0
C      1  0.5210140000000  0.5382370000000  0.5649790000000 1.0
C      1  0.5627370000000  0.5781530000000  0.5894950000000 1.0
C      1  0.4401700000000  0.5472520000000  0.5077070000000 1.0
C      1  0.4801340000000  0.5581160000000  0.4239850000000 1.0
C      1  0.4412010000000  0.4130650000000  0.4849600000000 1.0
C      1  0.4670540000000  0.4855720000000  0.4805700000000 1.0
C      1  0.5512840000000  0.4737580000000  0.5795530000000 1.0
C      1  0.5192690000000  0.4032000000000  0.5531700000000 1.0
C      1  0.5456670000000  0.3974590000000  0.3847400000000 1.0
C      1  0.5563650000000  0.5051430000000  0.5170380000000 1.0
C      1  0.6197270000000  0.4242780000000  0.4551420000000 1.0
C      1  0.4006650000000  0.5138460000000  0.5598610000000 1.0
C      1  0.5693200000000  0.5294730000000  0.6030530000000 1.0
C      1  0.5004030000000  0.5871300000000  0.5602040000000 1.0
C      1  0.5769060000000  0.4847150000000  0.5758680000000 1.0
C      1  0.4565330000000  0.4381930000000  0.5283840000000 1.0
C      1  0.5208180000000  0.3948840000000  0.5060570000000 1.0
C      1  0.5262190000000  0.3887300000000  0.4004950000000 1.0
C      1  0.5551370000000  0.5263910000000  0.5329440000000 1.0
C      1  0.6139380000000  0.5463050000000  0.5334430000000 1.0
C      1  0.4552780000000  0.5148510000000  0.6027790000000 1.0
C      1  0.4764540000000  0.4414710000000  0.4610760000000 1.0
C      1  0.4239050000000  0.4323700000000  0.4969510000000 1.0
C      1  0.6136700000000  0.4264760000000  0.4814200000000 1.0
C      1  0.5244980000000  0.4709930000000  0.5709940000000 1.0
C      1  0.4273020000000  0.5061990000000  0.6047930000000 1.0
C      1  0.4816900000000  0.4560390000000  0.4116140000000 1.0
C      1  0.5539590000000  0.5922480000000  0.5667160000000 1.0
C      1  0.4645230000000  0.4126720000000  0.5397950000000 1.0
C      1  0.4902020000000  0.3841140000000  0.4385830000000 1.0
C      1  0.5147740000000  0.4855560000000  0.4645180000000 1.0
C      1  0.4096910000000  0.4630940000000  0.4381040000000 1.0
C      1  0.5003150000000  0.3760270000000  0.5009410000000 1.0
C      1  0.5303620000000  0.5723280000000  0.5263140000000 1.0
C      1  0.5616210000000  0.5043800000000  0.3977170000000 1.0
C      1  0.5806490000000  0.4146410000000  0.5852200000000 1.0
C      1  0.5557330000000  0.5730020000000  0.4017340000000 1.0
C      1  0.4527690000000  0.5392690000000  0.5864400000000 1.0
C      1  0.4440180000000  0.4444430000000  0.5895840000000 1.0
C      1  0.5561210000000  0.4050090000000  0.5895470000000 1.0
C      1  0.4306530000000  0.4222540000000  0.5956300000000 1.0
C      1  0.4273710000000  0.5999280000000  0.4746690000000 1.0
C      1  0.5009140000000  0.5711070000000  0.5154930000000 1.0
C      1  0.4681760000000  0.5327790000000  0.4312740000000 1.0
C      1  0.4598170000000  0.6194730000000  0.5321270000000 1.0
C      1  0.5161900000000  0.5240060000000  0.3977580000000 1.0
C      1  0.5015750000000  0.5485480000000  0.4057940000000 1.0
C      1  0.5838710000000  0.4355160000000  0.5213540000000 1.0
C      1  0.5289520000000  0.5874800000000  0.5537790000000 1.0
C      1  0.5409320000000  0.5257710000000  0.4541570000000 1.0
C      1  0.4343050000000  0.5561840000000  0.4806570000000 1.0
C      1  0.5220330000000  0.6041170000000  0.4887560000000 1.0
C      1  0.5273330000000  0.4797130000000  0.4175580000000 1.0
C      1  0.5889180000000  0.6151920000000  0.4580740000000 1.0
C      1  0.5882180000000  0.5661500000000  0.4971930000000 1.0
C      1  0.4731310000000  0.5467360000000  0.5453790000000 1.0
C      1  0.3931210000000  0.5249470000000  0.4662120000000 1.0
C      1  0.4500230000000  0.3905470000000  0.5287040000000 1.0
C      1  0.5961650000000  0.4505800000000  0.4182930000000 1.0
C      1  0.5505520000000  0.5720590000000  0.4292800000000 1.0
C      1  0.5965000000000  0.5441530000000  0.4814140000000 1.0
C      1  0.5737730000000  0.4644200000000  0.4289850000000 1.0
C      1  0.5673710000000  0.5844500000000  0.4900910000000 1.0
C      1  0.4573940000000  0.4948090000000  0.3995720000000 1.0
C      1  0.4455800000000  0.5045010000000  0.5543010000000 1.0
C      1  0.5885680000000  0.4665940000000  0.4779820000000 1.0
C      1  0.4896640000000  0.5073480000000  0.5223730000000 1.0
C      1  0.5755390000000  0.5566900000000  0.5993890000000 1.0
C      1  0.4861050000000  0.4872280000000  0.5417440000000 1.0
C      1  0.4905700000000  0.5431330000000  0.4735370000000 1.0
C      1  0.6009000000000  0.5687880000000  0.5227030000000 1.0
C      1  0.4558030000000  0.6035340000000  0.5551400000000 1.0
C      1  0.4568950000000  0.4623250000000  0.5747250000000 1.0
C      1  0.5224280000000  0.5323870000000  0.5908990000000 1.0
C      1  0.4431450000000  0.5186910000000  0.5075790000000 1.0
C      1  0.5206900000000  0.5968960000000  0.4594460000000 1.0
C      1  0.4204630000000  0.4778430000000  0.5228460000000 1.0
C      1  0.4066860000000  0.5972430000000  0.4930080000000 1.0
C      1  0.3664480000000  0.4641520000000  0.4639910000000 1.0
C      1  0.4265770000000  0.5303750000000  0.4065570000000 1.0
C      1  0.4925160000000  0.5991070000000  0.4508740000000 1.0
C      1  0.5705950000000  0.4581670000000  0.4569720000000 1.0
C      1  0.5220420000000  0.4593040000000  0.5437720000000 1.0
C      1  0.3853010000000  0.4530700000000  0.4481620000000 1.0
C      1  0.4798190000000  0.6029040000000  0.5714660000000 1.0
C      1  0.5544180000000  0.5519950000000  0.3848240000000 1.0
C      1  0.5851210000000  0.4941590000000  0.4822850000000 1.0
C      1  0.4307650000000  0.5632630000000  0.5318060000000 1.0
C      1  0.4402700000000  0.5788990000000  0.5558400000000 1.0
C      1  0.6170950000000  0.5201850000000  0.5379810000000 1.0
C      1  0.5377650000000  0.5034000000000  0.4704380000000 1.0
C      1  0.5362350000000  0.4008840000000  0.5295330000000 1.0
C      1  0.6135930000000  0.4340100000000  0.4307600000000 1.0
C      1  0.4784930000000  0.4503270000000  0.5155300000000 1.0
C      1  0.4356510000000  0.4766480000000  0.3967550000000 1.0
C      1  0.5926570000000  0.4475910000000  0.5465970000000 1.0
C      1  0.5417450000000  0.5255800000000  0.6082740000000 1.0
C      1  0.3938400000000  0.5819020000000  0.5120570000000 1.0
C      1  0.5648730000000  0.4073050000000  0.3701170000000 1.0
C      1  0.5444270000000  0.5262020000000  0.3902210000000 1.0
C      1  0.5081350000000  0.4962720000000  0.4026660000000 1.0
C      1  0.4908890000000  0.4080640000000  0.5507090000000 1.0
C      1  0.4193440000000  0.4965110000000  0.5458230000000 1.0
C      1  0.4223240000000  0.3794870000000  0.5697620000000 1.0
C      1  0.4917790000000  0.4506350000000  0.4376980000000 1.0
C      1  0.4255970000000  0.4957610000000  0.5004320000000 1.0
C      1  0.4729100000000  0.5794690000000  0.4436330000000 1.0
C      1  0.5952700000000  0.5918490000000  0.5375940000000 1.0
C      1  0.4961830000000  0.4628590000000  0.5336430000000 1.0
C      1  0.5073700000000  0.3835840000000  0.4184050000000 1.0
C      1  0.4454750000000  0.5786770000000  0.4656040000000 1.0
C      1  0.5154620000000  0.4677940000000  0.4402190000000 1.0
C      1  0.4802710000000  0.4583820000000  0.4868410000000 1.0
C      1  0.3609890000000  0.4875050000000  0.4762260000000 1.0
C      1  0.5100560000000  0.4650800000000  0.4852440000000 1.0
C      1  0.5556620000000  0.4817230000000  0.4140740000000 1.0
C      1  0.4810280000000  0.4985910000000  0.5998610000000 1.0
C      1  0.4408680000000  0.5650170000000  0.5818680000000 1.0
C      1  0.5828990000000  0.5076460000000  0.5914470000000 1.0
C      1  0.5628190000000  0.4140310000000  0.5249830000000 1.0
C      1  0.4635440000000  0.4838660000000  0.5580620000000 1.0
END
