TITL C-627107-135-15 0.00916570343123138 125000 -304.644105517272 0 0 51 (C1) n - 1
REM
REM in /home/nfs/bkarasulu/CARBON/AIRSS/Generating-Clusters/LCBOP/Only-C1/SD-CG/FIRE-CG
REM
REM
REM
REM
REM
REM ./C.cell (11c1c37f851c82e70ff6c80c92926a4b)
REM AIRSS Version 0.9.1 bugfix July 2018 build 013d7b7c2542+ Fri, 06 Jul 2018 19:26:36 +0100
REM compiler GCC version 9.2.1 20190827 (Red Hat 9.2.1-1)
REM options -cpp -mtune=generic -march=x86-64 -g -O0 -fpre-include=/usr/include/finclude/math-vector-fortran.h
REM seed -1577504182 1681322887 2092642603 -259227976 -1836773853 -159222460 1375429068 2092119563 -1653346457 834552925 1453463969 -1283660187 910571629 -1300062318 1053488875 256004583 -1847552703 2061760059 -1338112610 2096205278 363016350 1277474734 2063019782 1477913064 -815956617 2118198574 -1507044344 765868940 -97522372 1398941156 1228622101 -2008014617 1839850263
REM
CELL 1.54180   50.00000   50.00000   50.00000   90.00000   90.00000   90.00000
LATT -1
SFAC C  
C      1  0.5374790000000  0.5388320000000  0.5448590000000 1.0
C      1  0.5205370000000  0.4548720000000  0.5510580000000 1.0
C      1  0.5509540000000  0.3523330000000  0.4688260000000 1.0
C      1  0.5969810000000  0.5837070000000  0.4962760000000 1.0
C      1  0.4616780000000  0.5768250000000  0.5258950000000 1.0
C      1  0.5481820000000  0.5354790000000  0.5187230000000 1.0
C      1  0.6199530000000  0.5959640000000  0.4949840000000 1.0
C      1  0.5736840000000  0.5711660000000  0.4976310000000 1.0
C      1  0.4529290000000  0.4865740000000  0.4600120000000 1.0
C      1  0.4669560000000  0.5412710000000  0.4413140000000 1.0
C      1  0.4959700000000  0.4645780000000  0.5614300000000 1.0
C      1  0.4603600000000  0.5110500000000  0.5416580000000 1.0
C      1  0.5000580000000  0.4858090000000  0.5802280000000 1.0
C      1  0.5269230000000  0.5282740000000  0.5672410000000 1.0
C      1  0.4408990000000  0.5332690000000  0.4402880000000 1.0
C      1  0.5436250000000  0.4043470000000  0.4710720000000 1.0
C      1  0.5009140000000  0.5596920000000  0.4760450000000 1.0
C      1  0.4758660000000  0.4799690000000  0.4459370000000 1.0
C      1  0.5001730000000  0.4871030000000  0.4580890000000 1.0
C      1  0.4887120000000  0.5461310000000  0.4990650000000 1.0
C      1  0.4207190000000  0.5177310000000  0.4542630000000 1.0
C      1  0.5137330000000  0.5091420000000  0.5808430000000 1.0
C      1  0.5494980000000  0.5570920000000  0.4994260000000 1.0
C      1  0.4141530000000  0.4659360000000  0.4683230000000 1.0
C      1  0.4740800000000  0.4574400000000  0.5165900000000 1.0
C      1  0.4540780000000  0.4979470000000  0.4864300000000 1.0
C      1  0.4666570000000  0.5518930000000  0.5159940000000 1.0
C      1  0.4715930000000  0.4637120000000  0.5452580000000 1.0
C      1  0.5093500000000  0.4685660000000  0.4784280000000 1.0
C      1  0.5561950000000  0.4767840000000  0.4742350000000 1.0
C      1  0.4496050000000  0.5292570000000  0.5222350000000 1.0
C      1  0.4507560000000  0.4487090000000  0.5022550000000 1.0
C      1  0.5016480000000  0.5145810000000  0.4653970000000 1.0
C      1  0.5575310000000  0.5088550000000  0.5129180000000 1.0
C      1  0.4171870000000  0.5264310000000  0.4817020000000 1.0
C      1  0.4376320000000  0.5174930000000  0.4994310000000 1.0
C      1  0.4281820000000  0.4517000000000  0.4872910000000 1.0
C      1  0.4926280000000  0.5406900000000  0.4539630000000 1.0
C      1  0.5398640000000  0.4305330000000  0.4723610000000 1.0
C      1  0.5553190000000  0.4883670000000  0.5324600000000 1.0
C      1  0.4887920000000  0.5088200000000  0.5379700000000 1.0
C      1  0.5353220000000  0.4578340000000  0.4748280000000 1.0
C      1  0.5473200000000  0.3781250000000  0.4699390000000 1.0
C      1  0.4959320000000  0.4721300000000  0.5037930000000 1.0
C      1  0.4989940000000  0.5192440000000  0.4941530000000 1.0
C      1  0.4523420000000  0.4849230000000  0.5503940000000 1.0
C      1  0.4246120000000  0.4883060000000  0.4533420000000 1.0
C      1  0.4989170000000  0.4993280000000  0.5135910000000 1.0
C      1  0.5281750000000  0.5652240000000  0.4820980000000 1.0
C      1  0.5430540000000  0.4667180000000  0.5423380000000 1.0
C      1  0.5633000000000  0.4992440000000  0.4871190000000 1.0
END
