TITL C-627106-156-738 5266.98298377149 125000 -947.093656312976 0 0 154 (C1) n - 1
REM
REM in /home/nfs/bkarasulu/CARBON/AIRSS/Generating-Clusters/LCBOP/Only-C1/SD-CG/FIRE-CG
REM
REM
REM
REM
REM
REM ./C.cell (11c1c37f851c82e70ff6c80c92926a4b)
REM AIRSS Version 0.9.1 bugfix July 2018 build 013d7b7c2542+ Fri, 06 Jul 2018 19:26:36 +0100
REM compiler GCC version 9.2.1 20190827 (Red Hat 9.2.1-1)
REM options -cpp -mtune=generic -march=x86-64 -g -O0 -fpre-include=/usr/include/finclude/math-vector-fortran.h
REM seed -1644774226 -1874443420 -164520743 -2138277777 1000410081 -514513893 -1464015886 1830713062 868949927 -1086824914 -13609265 -300658952 1789211440 -1383344969 27794926 31213625 1879487926 1405286351 1831686290 -1986312270 1421768426 1168898135 -2131432600 -1672475664 787588620 1114466727 -1095001214 808399181 -465997717 839268917 606870032 1963636765 843741580
REM
CELL 1.54180   50.00000   50.00000   50.00000   90.00000   90.00000   90.00000
LATT -1
SFAC C  
C      1  0.5087940000000  0.5894520000000  0.5628760000000 1.0
C      1  0.5715750000000  0.5622430000000  0.5264390000000 1.0
C      1  0.5476170000000  0.5171420000000  0.5431410000000 1.0
C      1  0.5439440000000  0.5726990000000  0.5244990000000 1.0
C      1  0.4384370000000  0.4459510000000  0.5643300000000 1.0
C      1  0.4383150000000  0.5617210000000  0.5073240000000 1.0
C      1  0.5445570000000  0.4676130000000  0.4201250000000 1.0
C      1  0.5646750000000  0.5362200000000  0.5874330000000 1.0
C      1  0.6013490000000  0.5950670000000  0.5471680000000 1.0
C      1  0.4695080000000  0.3979550000000  0.4400140000000 1.0
C      1  0.5229420000000  0.4692660000000  0.4015130000000 1.0
C      1  0.5033610000000  0.5676230000000  0.5815120000000 1.0
C      1  0.5363310000000  0.4487600000000  0.5185760000000 1.0
C      1  0.4940720000000  0.5227130000000  0.4614660000000 1.0
C      1  0.5995520000000  0.4804510000000  0.4830740000000 1.0
C      1  0.4890350000000  0.5943330000000  0.5192590000000 1.0
C      1  0.5009870000000  0.4615520000000  0.4798150000000 1.0
C      1  0.5484550000000  0.4900860000000  0.4929080000000 1.0
C      1  0.5223690000000  0.5019160000000  0.5004120000000 1.0
C      1  0.5518410000000  0.4417780000000  0.4958590000000 1.0
C      1  0.5988440000000  0.5105420000000  0.4454060000000 1.0
C      1  0.4035290000000  0.5369970000000  0.5292240000000 1.0
C      1  0.4984300000000  0.4834390000000  0.4972420000000 1.0
C      1  0.5974000000000  0.5589890000000  0.4746150000000 1.0
C      1  0.4392150000000  0.5862550000000  0.4937650000000 1.0
C      1  0.6110770000000  0.4619040000000  0.5278540000000 1.0
C      1  0.5949530000000  0.5343150000000  0.4890180000000 1.0
C      1  0.5145740000000  0.4857340000000  0.5657340000000 1.0
C      1  0.4571470000000  0.5917560000000  0.5557040000000 1.0
C      1  0.5811020000000  0.5760120000000  0.5508530000000 1.0
C      1  0.5639980000000  0.4045280000000  0.5701390000000 1.0
C      1  0.6073720000000  0.4870920000000  0.4319330000000 1.0
C      1  0.5678060000000  0.4859970000000  0.5174630000000 1.0
C      1  0.4348170000000  0.5761150000000  0.5515730000000 1.0
C      1  0.5512950000000  0.5610610000000  0.5896650000000 1.0
C      1  0.4997840000000  0.5233610000000  0.5349020000000 1.0
C      1  0.5152820000000  0.4009930000000  0.5081080000000 1.0
C      1  0.5242030000000  0.5635230000000  0.5063960000000 1.0
C      1  0.6034920000000  0.6164510000000  0.5012700000000 1.0
C      1  0.4206890000000  0.4059120000000  0.4525430000000 1.0
C      1  0.6083380000000  0.6114600000000  0.5271090000000 1.0
C      1  0.4879170000000  0.4095910000000  0.5024760000000 1.0
C      1  0.5740870000000  0.4369920000000  0.4780030000000 1.0
C      1  0.4158950000000  0.4965650000000  0.4070880000000 1.0
C      1  0.4683880000000  0.5075590000000  0.4200790000000 1.0
C      1  0.3869860000000  0.4715490000000  0.4564360000000 1.0
C      1  0.3944510000000  0.5329250000000  0.4735760000000 1.0
C      1  0.5906260000000  0.4579000000000  0.4658330000000 1.0
C      1  0.5832200000000  0.5829600000000  0.4674880000000 1.0
C      1  0.3964830000000  0.5239390000000  0.5023110000000 1.0
C      1  0.6001550000000  0.5088240000000  0.4742950000000 1.0
C      1  0.4447230000000  0.4341140000000  0.5383050000000 1.0
C      1  0.5712240000000  0.4586080000000  0.4191910000000 1.0
C      1  0.3925020000000  0.4524260000000  0.5218630000000 1.0
C      1  0.3928820000000  0.4950650000000  0.4997730000000 1.0
C      1  0.4338610000000  0.4873350000000  0.6106320000000 1.0
C      1  0.4890160000000  0.5424420000000  0.4411280000000 1.0
C      1  0.4844630000000  0.5981920000000  0.5476410000000 1.0
C      1  0.4928730000000  0.4428460000000  0.4328900000000 1.0
C      1  0.5097460000000  0.4576640000000  0.4535010000000 1.0
C      1  0.5945050000000  0.4757790000000  0.5104520000000 1.0
C      1  0.4934970000000  0.4998230000000  0.5745830000000 1.0
C      1  0.4604540000000  0.5160680000000  0.5126270000000 1.0
C      1  0.4738970000000  0.4974740000000  0.4958040000000 1.0
C      1  0.4466780000000  0.4421500000000  0.5100130000000 1.0
C      1  0.4929900000000  0.6103390000000  0.4966270000000 1.0
C      1  0.5578150000000  0.5795190000000  0.5686390000000 1.0
C      1  0.4178110000000  0.4880520000000  0.5872650000000 1.0
C      1  0.5572960000000  0.5787520000000  0.4566440000000 1.0
C      1  0.4516950000000  0.5491980000000  0.4054080000000 1.0
C      1  0.4666550000000  0.4258100000000  0.4969620000000 1.0
C      1  0.5812730000000  0.5373490000000  0.5145860000000 1.0
C      1  0.4900720000000  0.5490170000000  0.5391530000000 1.0
C      1  0.5203190000000  0.5315050000000  0.6134170000000 1.0
C      1  0.5366380000000  0.4684430000000  0.5604110000000 1.0
C      1  0.3883510000000  0.4210390000000  0.4847510000000 1.0
C      1  0.5905420000000  0.4068930000000  0.5693360000000 1.0
C      1  0.5564180000000  0.3917500000000  0.4787530000000 1.0
C      1  0.4839410000000  0.4745000000000  0.6228100000000 1.0
C      1  0.4102790000000  0.4553040000000  0.4574880000000 1.0
C      1  0.4383370000000  0.5916660000000  0.4674830000000 1.0
C      1  0.4853280000000  0.4391890000000  0.5764340000000 1.0
C      1  0.4057370000000  0.4270520000000  0.4632220000000 1.0
C      1  0.4860600000000  0.5492040000000  0.5681840000000 1.0
C      1  0.4592170000000  0.4856570000000  0.4477670000000 1.0
C      1  0.5704400000000  0.5142740000000  0.5266450000000 1.0
C      1  0.4373590000000  0.4881860000000  0.5458940000000 1.0
C      1  0.5342750000000  0.5416340000000  0.4165730000000 1.0
C      1  0.6174930000000  0.4423720000000  0.5446680000000 1.0
C      1  0.4492060000000  0.5300790000000  0.4709130000000 1.0
C      1  0.5762920000000  0.4092380000000  0.4727730000000 1.0
C      1  0.4243790000000  0.4484760000000  0.4070420000000 1.0
C      1  0.4977840000000  0.5669510000000  0.5176810000000 1.0
C      1  0.4332740000000  0.5446330000000  0.4533160000000 1.0
C      1  0.4499850000000  0.5380580000000  0.4982030000000 1.0
C      1  0.4114200000000  0.5226570000000  0.4187420000000 1.0
C      1  0.4361240000000  0.5723020000000  0.4489970000000 1.0
C      1  0.3834460000000  0.4302280000000  0.5095120000000 1.0
C      1  0.4709300000000  0.5352850000000  0.4207110000000 1.0
C      1  0.5926440000000  0.6067860000000  0.4787990000000 1.0
C      1  0.5213090000000  0.5044270000000  0.6175290000000 1.0
C      1  0.5547860000000  0.5182200000000  0.5700940000000 1.0
C      1  0.4919130000000  0.4323160000000  0.5493590000000 1.0
C      1  0.5369620000000  0.5893630000000  0.4384700000000 1.0
C      1  0.3971160000000  0.5242470000000  0.5543850000000 1.0
C      1  0.4928060000000  0.4135490000000  0.4426840000000 1.0
C      1  0.5300840000000  0.5705870000000  0.4169550000000 1.0
C      1  0.4589810000000  0.4404890000000  0.5836880000000 1.0
C      1  0.4436570000000  0.3943780000000  0.4454760000000 1.0
C      1  0.4798270000000  0.4930610000000  0.3987650000000 1.0
C      1  0.5239130000000  0.5128760000000  0.5278780000000 1.0
C      1  0.5287210000000  0.3958530000000  0.4825660000000 1.0
C      1  0.4684450000000  0.4175430000000  0.5415010000000 1.0
C      1  0.5351390000000  0.4438720000000  0.5764590000000 1.0
C      1  0.5494100000000  0.4828900000000  0.4661400000000 1.0
C      1  0.3778300000000  0.4871170000000  0.4766270000000 1.0
C      1  0.4277800000000  0.4718670000000  0.5659330000000 1.0
C      1  0.5089620000000  0.4946030000000  0.3972280000000 1.0
C      1  0.5181280000000  0.6066820000000  0.4505250000000 1.0
C      1  0.4341330000000  0.4687450000000  0.4681490000000 1.0
C      1  0.5137380000000  0.4029510000000  0.4590070000000 1.0
C      1  0.4578600000000  0.4812030000000  0.6213630000000 1.0
C      1  0.4658820000000  0.4565080000000  0.4292530000000 1.0
C      1  0.4812150000000  0.5234650000000  0.5789880000000 1.0
C      1  0.4080630000000  0.4732390000000  0.5102270000000 1.0
C      1  0.5772050000000  0.5244930000000  0.4345620000000 1.0
C      1  0.5117690000000  0.4768980000000  0.6162020000000 1.0
C      1  0.5059480000000  0.4463160000000  0.4054670000000 1.0
C      1  0.5477480000000  0.5520240000000  0.4618380000000 1.0
C      1  0.4329390000000  0.4641400000000  0.4972370000000 1.0
C      1  0.4081710000000  0.5314360000000  0.4472440000000 1.0
C      1  0.5518120000000  0.5352390000000  0.4386730000000 1.0
C      1  0.5926700000000  0.4632340000000  0.4372730000000 1.0
C      1  0.5149980000000  0.5239400000000  0.4805800000000 1.0
C      1  0.5502620000000  0.4678830000000  0.5352440000000 1.0
C      1  0.5222970000000  0.5200140000000  0.4018610000000 1.0
C      1  0.6105910000000  0.4216220000000  0.5598220000000 1.0
C      1  0.5346350000000  0.4697220000000  0.4466640000000 1.0
C      1  0.4231190000000  0.5592650000000  0.5311590000000 1.0
C      1  0.5280360000000  0.4041270000000  0.5359260000000 1.0
C      1  0.5257700000000  0.4541850000000  0.6031180000000 1.0
C      1  0.5398160000000  0.4172620000000  0.5616130000000 1.0
C      1  0.4020800000000  0.5098670000000  0.5770020000000 1.0
C      1  0.5238760000000  0.5564570000000  0.5986130000000 1.0
C      1  0.5034700000000  0.6132210000000  0.4720620000000 1.0
C      1  0.5100570000000  0.4430800000000  0.5298150000000 1.0
C      1  0.4510460000000  0.5084250000000  0.5368980000000 1.0
C      1  0.5352110000000  0.5859900000000  0.5504260000000 1.0
C      1  0.4426950000000  0.4392120000000  0.4253980000000 1.0
C      1  0.4252030000000  0.5430570000000  0.4034080000000 1.0
C      1  0.4315690000000  0.4745280000000  0.3967410000000 1.0
C      1  0.4608460000000  0.4731010000000  0.3949860000000 1.0
C      1  0.4682890000000  0.5062130000000  0.4676830000000 1.0
C      1  0.5297950000000  0.5478370000000  0.4831820000000 1.0
END
