TITL C-627108-131-1259 1.38924226971634e-06 125000 -967.226824978095 0 0 160 (C1) n - 1
REM
REM in /home/nfs/bkarasulu/CARBON/AIRSS/Generating-Clusters/LCBOP/Only-C1/SD-CG/FIRE-CG
REM
REM
REM
REM
REM
REM ./C.cell (11c1c37f851c82e70ff6c80c92926a4b)
REM AIRSS Version 0.9.1 bugfix July 2018 build 013d7b7c2542+ Fri, 06 Jul 2018 19:26:36 +0100
REM compiler GCC version 9.2.1 20190827 (Red Hat 9.2.1-1)
REM options -cpp -mtune=generic -march=x86-64 -g -O0 -fpre-include=/usr/include/finclude/math-vector-fortran.h
REM seed 1645120397 1319459462 630197640 -1658629888 -258449803 -483727302 -1860718764 -1442072536 1560723455 492902560 1918008067 419979888 1326385473 -525075709 638346616 1914715227 -831171451 -1385438399 1738144287 1711850565 1910234730 -1148180078 -544187401 1186761484 -1713718780 -430691357 -1338179385 -1244616921 1981457194 -59035638 -130164178 -1115798056 975308012
REM
CELL 1.54180   50.00000   50.00000   50.00000   90.00000   90.00000   90.00000
LATT -1
SFAC C  
C      1  0.5629120000000  0.4693030000000  0.4758440000000 1.0
C      1  0.4217070000000  0.4392750000000  0.4124830000000 1.0
C      1  0.3847850000000  0.4909630000000  0.5406000000000 1.0
C      1  0.5060850000000  0.5817060000000  0.5416230000000 1.0
C      1  0.4207250000000  0.4725280000000  0.4480330000000 1.0
C      1  0.5750200000000  0.4590460000000  0.5505720000000 1.0
C      1  0.5288240000000  0.5017280000000  0.4646690000000 1.0
C      1  0.6074870000000  0.6198830000000  0.5204250000000 1.0
C      1  0.4781360000000  0.5313360000000  0.4192960000000 1.0
C      1  0.5092480000000  0.4597320000000  0.4313880000000 1.0
C      1  0.5626470000000  0.5984510000000  0.5205140000000 1.0
C      1  0.4395460000000  0.5187460000000  0.4661250000000 1.0
C      1  0.5380290000000  0.4507600000000  0.5815820000000 1.0
C      1  0.4556330000000  0.6264590000000  0.4988670000000 1.0
C      1  0.5136820000000  0.4921300000000  0.6128140000000 1.0
C      1  0.5544130000000  0.5780190000000  0.5715750000000 1.0
C      1  0.5438150000000  0.4272610000000  0.4416320000000 1.0
C      1  0.6021970000000  0.5470800000000  0.4199530000000 1.0
C      1  0.5789430000000  0.5428090000000  0.5193000000000 1.0
C      1  0.4826740000000  0.4214910000000  0.4092680000000 1.0
C      1  0.5650350000000  0.4185320000000  0.5193570000000 1.0
C      1  0.6459510000000  0.6312860000000  0.4931850000000 1.0
C      1  0.4527450000000  0.6204420000000  0.5248760000000 1.0
C      1  0.4921420000000  0.5227240000000  0.4890760000000 1.0
C      1  0.4836070000000  0.5493450000000  0.4794200000000 1.0
C      1  0.5234250000000  0.4302980000000  0.5660350000000 1.0
C      1  0.4248690000000  0.5337510000000  0.4022960000000 1.0
C      1  0.5390470000000  0.4747870000000  0.4626570000000 1.0
C      1  0.5640590000000  0.4845460000000  0.5428080000000 1.0
C      1  0.5252530000000  0.3678590000000  0.4425690000000 1.0
C      1  0.4770810000000  0.3928820000000  0.4713130000000 1.0
C      1  0.5457670000000  0.3993110000000  0.5075200000000 1.0
C      1  0.4325610000000  0.3905650000000  0.5110960000000 1.0
C      1  0.4542720000000  0.5547990000000  0.5166480000000 1.0
C      1  0.6007580000000  0.4842340000000  0.4600280000000 1.0
C      1  0.4679160000000  0.4844530000000  0.4894930000000 1.0
C      1  0.4406650000000  0.4937030000000  0.5231490000000 1.0
C      1  0.6315180000000  0.6311410000000  0.5160310000000 1.0
C      1  0.4799220000000  0.6016260000000  0.4595270000000 1.0
C      1  0.5377540000000  0.5821780000000  0.4314770000000 1.0
C      1  0.4409910000000  0.4929560000000  0.4513050000000 1.0
C      1  0.4655520000000  0.4359010000000  0.4942390000000 1.0
C      1  0.5821310000000  0.4421520000000  0.5268690000000 1.0
C      1  0.4893080000000  0.5608470000000  0.4261890000000 1.0
C      1  0.4700110000000  0.4210650000000  0.5181520000000 1.0
C      1  0.5725280000000  0.4830940000000  0.5941870000000 1.0
C      1  0.4675350000000  0.4862630000000  0.4427570000000 1.0
C      1  0.3960550000000  0.4657770000000  0.5447020000000 1.0
C      1  0.5513380000000  0.3852600000000  0.4820450000000 1.0
C      1  0.5550370000000  0.5049980000000  0.5590820000000 1.0
C      1  0.4221760000000  0.4284230000000  0.4844120000000 1.0
C      1  0.5322510000000  0.5404190000000  0.4069170000000 1.0
C      1  0.5730360000000  0.5805420000000  0.4651820000000 1.0
C      1  0.5302900000000  0.5149920000000  0.5514190000000 1.0
C      1  0.5249730000000  0.5186970000000  0.6164060000000 1.0
C      1  0.5191620000000  0.5631020000000  0.4199790000000 1.0
C      1  0.5262710000000  0.3756210000000  0.4695000000000 1.0
C      1  0.4203990000000  0.5691370000000  0.4686630000000 1.0
C      1  0.4863690000000  0.5202280000000  0.5165870000000 1.0
C      1  0.4927920000000  0.4801290000000  0.4941990000000 1.0
C      1  0.4670750000000  0.4073780000000  0.4259110000000 1.0
C      1  0.5353610000000  0.5574840000000  0.5821710000000 1.0
C      1  0.4097320000000  0.5509820000000  0.4895990000000 1.0
C      1  0.5680190000000  0.4226080000000  0.4557530000000 1.0
C      1  0.3828200000000  0.4430340000000  0.5321850000000 1.0
C      1  0.6008670000000  0.4552960000000  0.5067380000000 1.0
C      1  0.5448040000000  0.5244490000000  0.4705020000000 1.0
C      1  0.5661100000000  0.4580700000000  0.5784670000000 1.0
C      1  0.5161130000000  0.3952760000000  0.5089720000000 1.0
C      1  0.4431250000000  0.4081710000000  0.5543620000000 1.0
C      1  0.5368310000000  0.4093580000000  0.4211550000000 1.0
C      1  0.5649450000000  0.4858830000000  0.4975020000000 1.0
C      1  0.5425430000000  0.5906470000000  0.5015620000000 1.0
C      1  0.5652470000000  0.5736970000000  0.4379830000000 1.0
C      1  0.3723640000000  0.5031020000000  0.5202370000000 1.0
C      1  0.5126180000000  0.4407330000000  0.4815250000000 1.0
C      1  0.4837600000000  0.5451420000000  0.5622330000000 1.0
C      1  0.6381530000000  0.6195000000000  0.4701510000000 1.0
C      1  0.5715160000000  0.3967340000000  0.4660830000000 1.0
C      1  0.5829820000000  0.4918310000000  0.4395320000000 1.0
C      1  0.5429360000000  0.5303640000000  0.5968310000000 1.0
C      1  0.4573380000000  0.4058280000000  0.4528420000000 1.0
C      1  0.4822580000000  0.4618410000000  0.4482910000000 1.0
C      1  0.4458680000000  0.5665430000000  0.4541910000000 1.0
C      1  0.5563690000000  0.5294060000000  0.4177980000000 1.0
C      1  0.5526110000000  0.5717350000000  0.4826810000000 1.0
C      1  0.3566380000000  0.4410190000000  0.5253370000000 1.0
C      1  0.4587020000000  0.5590990000000  0.5691990000000 1.0
C      1  0.4700200000000  0.5799650000000  0.4423530000000 1.0
C      1  0.4025800000000  0.4225000000000  0.5292350000000 1.0
C      1  0.4430570000000  0.4764860000000  0.4995850000000 1.0
C      1  0.4129870000000  0.4106120000000  0.5049240000000 1.0
C      1  0.4380900000000  0.5751140000000  0.5278340000000 1.0
C      1  0.5246970000000  0.4694030000000  0.5991130000000 1.0
C      1  0.4969740000000  0.5832060000000  0.5145470000000 1.0
C      1  0.4840060000000  0.4436310000000  0.4733990000000 1.0
C      1  0.6077100000000  0.4712720000000  0.4843280000000 1.0
C      1  0.6155430000000  0.6057280000000  0.4653880000000 1.0
C      1  0.4629170000000  0.6186730000000  0.4742720000000 1.0
C      1  0.4530830000000  0.4002960000000  0.5281950000000 1.0
C      1  0.5230580000000  0.4714950000000  0.5219190000000 1.0
C      1  0.5202050000000  0.4444020000000  0.5120000000000 1.0
C      1  0.3683590000000  0.5014340000000  0.4939030000000 1.0
C      1  0.3990000000000  0.5566200000000  0.5164760000000 1.0
C      1  0.4231790000000  0.4281880000000  0.5505570000000 1.0
C      1  0.4158390000000  0.5609290000000  0.5400160000000 1.0
C      1  0.5614760000000  0.5094300000000  0.5863250000000 1.0
C      1  0.5535460000000  0.5459290000000  0.5248810000000 1.0
C      1  0.4302630000000  0.5497920000000  0.5637220000000 1.0
C      1  0.4739390000000  0.4605100000000  0.5804810000000 1.0
C      1  0.4488010000000  0.5328010000000  0.4125560000000 1.0
C      1  0.5093740000000  0.5586170000000  0.4683550000000 1.0
C      1  0.4757420000000  0.4622820000000  0.5503020000000 1.0
C      1  0.5921410000000  0.5971450000000  0.4785670000000 1.0
C      1  0.4847300000000  0.5096030000000  0.4411470000000 1.0
C      1  0.5028190000000  0.3862820000000  0.4838750000000 1.0
C      1  0.5131050000000  0.5577220000000  0.5590660000000 1.0
C      1  0.4842430000000  0.4019990000000  0.5856390000000 1.0
C      1  0.4769290000000  0.4967070000000  0.6455920000000 1.0
C      1  0.4234310000000  0.4578850000000  0.5523360000000 1.0
C      1  0.4580430000000  0.5419450000000  0.4637680000000 1.0
C      1  0.5303580000000  0.5405890000000  0.5392050000000 1.0
C      1  0.4243300000000  0.5256940000000  0.4898190000000 1.0
C      1  0.5266470000000  0.4486670000000  0.4541030000000 1.0
C      1  0.5360520000000  0.5509390000000  0.4740950000000 1.0
C      1  0.4493420000000  0.5978230000000  0.5409130000000 1.0
C      1  0.5001910000000  0.4420180000000  0.4092490000000 1.0
C      1  0.5608390000000  0.5920230000000  0.5487380000000 1.0
C      1  0.4392690000000  0.5223010000000  0.5146280000000 1.0
C      1  0.5051130000000  0.5033100000000  0.5533500000000 1.0
C      1  0.5755190000000  0.5497700000000  0.4253880000000 1.0
C      1  0.3762450000000  0.4913270000000  0.4705540000000 1.0
C      1  0.4868680000000  0.4875460000000  0.6219400000000 1.0
C      1  0.4258320000000  0.4450680000000  0.4390960000000 1.0
C      1  0.3944150000000  0.4797910000000  0.4549130000000 1.0
C      1  0.4328470000000  0.4232740000000  0.4576500000000 1.0
C      1  0.4836950000000  0.4352590000000  0.5382240000000 1.0
C      1  0.4774500000000  0.5644410000000  0.5042500000000 1.0
C      1  0.5875370000000  0.6051640000000  0.5069300000000 1.0
C      1  0.5168810000000  0.5268420000000  0.3878090000000 1.0
C      1  0.5337590000000  0.4832190000000  0.4195730000000 1.0
C      1  0.5198950000000  0.5329700000000  0.6393290000000 1.0
C      1  0.5489590000000  0.4830860000000  0.5195570000000 1.0
C      1  0.4589500000000  0.4020360000000  0.5766470000000 1.0
C      1  0.5126290000000  0.4313620000000  0.5383250000000 1.0
C      1  0.4850410000000  0.5216710000000  0.5453190000000 1.0
C      1  0.5017720000000  0.5098340000000  0.4645510000000 1.0
C      1  0.5762000000000  0.4454480000000  0.4690500000000 1.0
C      1  0.5583570000000  0.5003980000000  0.4241040000000 1.0
C      1  0.5296640000000  0.3834290000000  0.4210380000000 1.0
C      1  0.4719150000000  0.4713210000000  0.6046690000000 1.0
C      1  0.4597780000000  0.5882290000000  0.5658370000000 1.0
C      1  0.4394880000000  0.4491700000000  0.4946070000000 1.0
C      1  0.5072610000000  0.6009920000000  0.4684930000000 1.0
C      1  0.4465160000000  0.4742150000000  0.5445260000000 1.0
C      1  0.5021610000000  0.4782110000000  0.5420110000000 1.0
C      1  0.5264340000000  0.6025100000000  0.4476090000000 1.0
C      1  0.4910510000000  0.5218600000000  0.3933370000000 1.0
C      1  0.5092440000000  0.4111200000000  0.5818730000000 1.0
C      1  0.5148470000000  0.5964880000000  0.4963300000000 1.0
END
