TITL C-627107-135-895 -43.0940635770672 125000 -83.2557765285739 0 0 16 (C1) n - 1
REM
REM in /home/nfs/bkarasulu/CARBON/AIRSS/Generating-Clusters/LCBOP/Only-C1/SD-CG/FIRE-CG
REM
REM
REM
REM
REM
REM ./C.cell (11c1c37f851c82e70ff6c80c92926a4b)
REM AIRSS Version 0.9.1 bugfix July 2018 build 013d7b7c2542+ Fri, 06 Jul 2018 19:26:36 +0100
REM compiler GCC version 9.2.1 20190827 (Red Hat 9.2.1-1)
REM options -cpp -mtune=generic -march=x86-64 -g -O0 -fpre-include=/usr/include/finclude/math-vector-fortran.h
REM seed 1646873933 -663908340 -1055797124 201654601 -1582837151 627397044 2078391282 965442562 -1308912214 -1522792246 1297441553 908175844 183355375 -144490089 -655291606 1427666246 1433979561 1843029063 1015712686 1695852442 -132527970 1506964914 -1843174978 1095909800 -2025893463 -386495218 -567506593 243916434 113579257 1829453760 -1922219080 -1511973908 1266383293
REM
CELL 1.54180   50.00000   50.00000   50.00000   90.00000   90.00000   90.00000
LATT -1
SFAC C  
C      1  0.4991660000000  0.5184900000000  0.4816830000000 1.0
C      1  0.4671650000000  0.5247620000000  0.5184360000000 1.0
C      1  0.4832810000000  0.4263020000000  0.5160920000000 1.0
C      1  0.5985850000000  0.5496930000000  0.5058420000000 1.0
C      1  0.4832210000000  0.4539110000000  0.5114790000000 1.0
C      1  0.4912220000000  0.4092660000000  0.4961800000000 1.0
C      1  0.4781900000000  0.5234000000000  0.4321880000000 1.0
C      1  0.5498810000000  0.5343490000000  0.4933220000000 1.0
C      1  0.4831680000000  0.5075440000000  0.5024420000000 1.0
C      1  0.5253140000000  0.5266190000000  0.4871400000000 1.0
C      1  0.4886500000000  0.5210710000000  0.4559430000000 1.0
C      1  0.4753980000000  0.4166310000000  0.5404650000000 1.0
C      1  0.4414800000000  0.5303200000000  0.5107220000000 1.0
C      1  0.5744360000000  0.5420830000000  0.4996330000000 1.0
C      1  0.4776730000000  0.5355380000000  0.5413170000000 1.0
C      1  0.4831690000000  0.4800230000000  0.5071170000000 1.0
END
