TITL C-627106-156-1902 -1211.15158580828 125000 -853.791079658884 0 0 141 (C1) n - 1
REM
REM in /home/nfs/bkarasulu/CARBON/AIRSS/Generating-Clusters/LCBOP/Only-C1/SD-CG/FIRE-CG
REM
REM
REM
REM
REM
REM ./C.cell (11c1c37f851c82e70ff6c80c92926a4b)
REM AIRSS Version 0.9.1 bugfix July 2018 build 013d7b7c2542+ Fri, 06 Jul 2018 19:26:36 +0100
REM compiler GCC version 9.2.1 20190827 (Red Hat 9.2.1-1)
REM options -cpp -mtune=generic -march=x86-64 -g -O0 -fpre-include=/usr/include/finclude/math-vector-fortran.h
REM seed 1765213733 -417220735 -1619817447 -344163343 -513599731 -1307849265 801817380 1651164326 -2019317508 1556391247 -1945707250 278718117 -252124395 2066172139 -1159116198 -544101707 1744418496 -826193032 -2070516840 1205226091 701814131 -904934697 -738784234 823780628 1595611063 -1444528450 1399492018 -1773980457 -1773377285 -232654042 -2143540591 133380837 1402692564
REM
CELL 1.54180   50.00000   50.00000   50.00000   90.00000   90.00000   90.00000
LATT -1
SFAC C  
C      1  0.5896640000000  0.4435490000000  0.5258600000000 1.0
C      1  0.4283850000000  0.4110500000000  0.4593600000000 1.0
C      1  0.4438090000000  0.5320330000000  0.5579280000000 1.0
C      1  0.4505320000000  0.4661530000000  0.4694980000000 1.0
C      1  0.4954970000000  0.4768220000000  0.5623590000000 1.0
C      1  0.4693910000000  0.3941630000000  0.5503260000000 1.0
C      1  0.4028410000000  0.4918620000000  0.4455960000000 1.0
C      1  0.5490000000000  0.6053730000000  0.4890260000000 1.0
C      1  0.4706610000000  0.4532060000000  0.5177530000000 1.0
C      1  0.4846050000000  0.5711720000000  0.5652660000000 1.0
C      1  0.5456350000000  0.4708370000000  0.3993510000000 1.0
C      1  0.5531350000000  0.5438800000000  0.6223820000000 1.0
C      1  0.4962180000000  0.4782730000000  0.5910280000000 1.0
C      1  0.5000730000000  0.4547900000000  0.5159520000000 1.0
C      1  0.5714300000000  0.5229780000000  0.5528080000000 1.0
C      1  0.4328680000000  0.4526020000000  0.5511510000000 1.0
C      1  0.6129860000000  0.4590250000000  0.5196160000000 1.0
C      1  0.6367510000000  0.4540860000000  0.5334860000000 1.0
C      1  0.6126970000000  0.5318700000000  0.5103860000000 1.0
C      1  0.4958210000000  0.4909400000000  0.3670580000000 1.0
C      1  0.4403660000000  0.5276910000000  0.5032110000000 1.0
C      1  0.4649490000000  0.4207830000000  0.5588240000000 1.0
C      1  0.5260200000000  0.5754050000000  0.5940810000000 1.0
C      1  0.3447030000000  0.4491420000000  0.5931000000000 1.0
C      1  0.4263950000000  0.4057790000000  0.4869810000000 1.0
C      1  0.5157760000000  0.5254860000000  0.5489980000000 1.0
C      1  0.4265280000000  0.4235470000000  0.4340040000000 1.0
C      1  0.4343970000000  0.5864770000000  0.4993360000000 1.0
C      1  0.5268070000000  0.4265660000000  0.4852480000000 1.0
C      1  0.4218890000000  0.5106000000000  0.4553450000000 1.0
C      1  0.5745900000000  0.4289860000000  0.5069910000000 1.0
C      1  0.5943680000000  0.5512330000000  0.5200560000000 1.0
C      1  0.3644010000000  0.4486720000000  0.5760300000000 1.0
C      1  0.4387750000000  0.5210550000000  0.4348260000000 1.0
C      1  0.4862180000000  0.5838240000000  0.4553620000000 1.0
C      1  0.5024530000000  0.4246150000000  0.4402060000000 1.0
C      1  0.5812670000000  0.4426840000000  0.5526020000000 1.0
C      1  0.5965240000000  0.4983350000000  0.4327570000000 1.0
C      1  0.6587540000000  0.4494220000000  0.5474850000000 1.0
C      1  0.5356550000000  0.5654590000000  0.6196910000000 1.0
C      1  0.4714910000000  0.5648290000000  0.4397190000000 1.0
C      1  0.5251260000000  0.4914500000000  0.4042200000000 1.0
C      1  0.4576510000000  0.4964470000000  0.5333790000000 1.0
C      1  0.4584140000000  0.4343070000000  0.5841360000000 1.0
C      1  0.5057470000000  0.5546560000000  0.3615060000000 1.0
C      1  0.4668470000000  0.5126650000000  0.4329120000000 1.0
C      1  0.5091180000000  0.5736740000000  0.4687990000000 1.0
C      1  0.5307320000000  0.5559600000000  0.5097730000000 1.0
C      1  0.4891000000000  0.4681150000000  0.4142980000000 1.0
C      1  0.4730940000000  0.5382030000000  0.6211270000000 1.0
C      1  0.4337090000000  0.5449520000000  0.4201590000000 1.0
C      1  0.4791110000000  0.4978870000000  0.5516420000000 1.0
C      1  0.6037260000000  0.5068410000000  0.5004620000000 1.0
C      1  0.5216850000000  0.5109080000000  0.5271260000000 1.0
C      1  0.5105340000000  0.5074050000000  0.5016510000000 1.0
C      1  0.6124530000000  0.4788100000000  0.4996570000000 1.0
C      1  0.5662610000000  0.4304410000000  0.6018700000000 1.0
C      1  0.5078980000000  0.4464260000000  0.4229380000000 1.0
C      1  0.4029740000000  0.4678070000000  0.4305280000000 1.0
C      1  0.5128040000000  0.4154430000000  0.4634160000000 1.0
C      1  0.4039670000000  0.4446920000000  0.5138320000000 1.0
C      1  0.6078810000000  0.4715610000000  0.4720060000000 1.0
C      1  0.5791230000000  0.5059980000000  0.5710110000000 1.0
C      1  0.4248590000000  0.5807560000000  0.4517030000000 1.0
C      1  0.4065530000000  0.4484940000000  0.5418430000000 1.0
C      1  0.4693950000000  0.4826080000000  0.4294110000000 1.0
C      1  0.5553680000000  0.5160030000000  0.4880920000000 1.0
C      1  0.4363080000000  0.4800390000000  0.4912000000000 1.0
C      1  0.5069480000000  0.5621710000000  0.4947060000000 1.0
C      1  0.5109470000000  0.5649470000000  0.6349830000000 1.0
C      1  0.5588950000000  0.4232440000000  0.6258200000000 1.0
C      1  0.5526390000000  0.5171450000000  0.6215900000000 1.0
C      1  0.5403750000000  0.4721840000000  0.4455950000000 1.0
C      1  0.4718280000000  0.6000710000000  0.4737500000000 1.0
C      1  0.4649030000000  0.4254390000000  0.6090290000000 1.0
C      1  0.4247320000000  0.4083100000000  0.4113240000000 1.0
C      1  0.3815900000000  0.4602860000000  0.4153260000000 1.0
C      1  0.6803380000000  0.4448010000000  0.5613540000000 1.0
C      1  0.4719320000000  0.4890650000000  0.6027750000000 1.0
C      1  0.5230740000000  0.5325870000000  0.3591030000000 1.0
C      1  0.4454350000000  0.3915310000000  0.5021580000000 1.0
C      1  0.4499440000000  0.4658050000000  0.4418610000000 1.0
C      1  0.5092670000000  0.4613120000000  0.5427110000000 1.0
C      1  0.5097370000000  0.5085310000000  0.3520930000000 1.0
C      1  0.5401120000000  0.4943380000000  0.6156950000000 1.0
C      1  0.4563640000000  0.4774520000000  0.5130800000000 1.0
C      1  0.5616170000000  0.5177900000000  0.3932930000000 1.0
C      1  0.5734640000000  0.4377070000000  0.5774200000000 1.0
C      1  0.5632020000000  0.5905390000000  0.5107000000000 1.0
C      1  0.4829130000000  0.3760920000000  0.5656540000000 1.0
C      1  0.5295530000000  0.5026650000000  0.4800240000000 1.0
C      1  0.5243630000000  0.6152790000000  0.5042460000000 1.0
C      1  0.4551500000000  0.5546430000000  0.3742650000000 1.0
C      1  0.5485970000000  0.5307770000000  0.3713890000000 1.0
C      1  0.5373210000000  0.4534670000000  0.4219040000000 1.0
C      1  0.4705480000000  0.5457940000000  0.5605760000000 1.0
C      1  0.4472480000000  0.4856810000000  0.5878410000000 1.0
C      1  0.4625210000000  0.5857770000000  0.4969380000000 1.0
C      1  0.5398330000000  0.5787370000000  0.5247960000000 1.0
C      1  0.4893020000000  0.5240220000000  0.5573950000000 1.0
C      1  0.5379140000000  0.5499140000000  0.4320000000000 1.0
C      1  0.5358080000000  0.5008840000000  0.4314610000000 1.0
C      1  0.5510600000000  0.5938640000000  0.4625870000000 1.0
C      1  0.4367950000000  0.5113920000000  0.5780780000000 1.0
C      1  0.4269850000000  0.4521340000000  0.4319580000000 1.0
C      1  0.4592170000000  0.3872710000000  0.5247400000000 1.0
C      1  0.4561020000000  0.4389640000000  0.5379880000000 1.0
C      1  0.5181520000000  0.5981860000000  0.5281070000000 1.0
C      1  0.5523940000000  0.4199780000000  0.4949530000000 1.0
C      1  0.4184780000000  0.5854670000000  0.4774280000000 1.0
C      1  0.5669770000000  0.4884690000000  0.3904960000000 1.0
C      1  0.4431470000000  0.5672000000000  0.4352760000000 1.0
C      1  0.5484760000000  0.5739070000000  0.4438950000000 1.0
C      1  0.4406290000000  0.5201500000000  0.5312390000000 1.0
C      1  0.4881450000000  0.5614060000000  0.6172860000000 1.0
C      1  0.4799000000000  0.5601580000000  0.3658680000000 1.0
C      1  0.4784730000000  0.5620120000000  0.5019230000000 1.0
C      1  0.4969840000000  0.5721970000000  0.5910710000000 1.0
C      1  0.5204000000000  0.4798850000000  0.6050370000000 1.0
C      1  0.4667810000000  0.5367840000000  0.4975850000000 1.0
C      1  0.4853740000000  0.5161030000000  0.4940740000000 1.0
C      1  0.5308010000000  0.4727870000000  0.4738910000000 1.0
C      1  0.5181800000000  0.4532650000000  0.4922360000000 1.0
C      1  0.4965580000000  0.5892860000000  0.5453450000000 1.0
C      1  0.5520990000000  0.5259550000000  0.4202930000000 1.0
C      1  0.5206860000000  0.5139360000000  0.4537890000000 1.0
C      1  0.3845450000000  0.4482750000000  0.5588290000000 1.0
C      1  0.4725970000000  0.5115240000000  0.6196980000000 1.0
C      1  0.5815030000000  0.5080910000000  0.4802060000000 1.0
C      1  0.5885510000000  0.5782100000000  0.5134010000000 1.0
C      1  0.5511130000000  0.5358510000000  0.5084140000000 1.0
C      1  0.5919240000000  0.4913640000000  0.4585090000000 1.0
C      1  0.5119210000000  0.5379410000000  0.4412730000000 1.0
C      1  0.4839560000000  0.5381830000000  0.4356550000000 1.0
C      1  0.4065850000000  0.4195990000000  0.5016380000000 1.0
C      1  0.5001650000000  0.4843590000000  0.3937290000000 1.0
C      1  0.4422850000000  0.4588800000000  0.5781290000000 1.0
C      1  0.4302750000000  0.5089770000000  0.4832620000000 1.0
C      1  0.5708880000000  0.5373400000000  0.5290550000000 1.0
C      1  0.4368900000000  0.5470490000000  0.3923300000000 1.0
C      1  0.4108320000000  0.4668070000000  0.4981330000000 1.0
END
