TITL C-627106-156-1337 0.0100760792652466 125000 -818.939049127971 0 0 135 (C1) n - 1
REM
REM in /home/nfs/bkarasulu/CARBON/AIRSS/Generating-Clusters/LCBOP/Only-C1/SD-CG/FIRE-CG
REM
REM
REM
REM
REM
REM ./C.cell (11c1c37f851c82e70ff6c80c92926a4b)
REM AIRSS Version 0.9.1 bugfix July 2018 build 013d7b7c2542+ Fri, 06 Jul 2018 19:26:36 +0100
REM compiler GCC version 9.2.1 20190827 (Red Hat 9.2.1-1)
REM options -cpp -mtune=generic -march=x86-64 -g -O0 -fpre-include=/usr/include/finclude/math-vector-fortran.h
REM seed 917830043 -1484430411 -256312731 -1244117451 2124059900 -460385166 -1557242983 -483720860 -35427644 1200786221 1901992305 -1381752307 -757726778 1638860276 -1749907078 2015954569 1120015175 1529559369 -773500857 -1389733689 -279967376 2039709758 379062628 324405112 460651668 1845113281 -426962653 1485515360 -1687009165 10971687 481989311 964509822 -360059239
REM
CELL 1.54180   50.00000   50.00000   50.00000   90.00000   90.00000   90.00000
LATT -1
SFAC C  
C      1  0.4603850000000  0.4848860000000  0.5928980000000 1.0
C      1  0.4411850000000  0.5888540000000  0.4740200000000 1.0
C      1  0.5507950000000  0.5835800000000  0.4662530000000 1.0
C      1  0.3830880000000  0.4934490000000  0.6412060000000 1.0
C      1  0.6175340000000  0.4787950000000  0.5529630000000 1.0
C      1  0.3778350000000  0.4888330000000  0.5136810000000 1.0
C      1  0.5160500000000  0.6164420000000  0.4777690000000 1.0
C      1  0.4680710000000  0.4976560000000  0.4631830000000 1.0
C      1  0.4989120000000  0.4293570000000  0.5490730000000 1.0
C      1  0.5728440000000  0.4217930000000  0.5436960000000 1.0
C      1  0.4868880000000  0.4988160000000  0.3893450000000 1.0
C      1  0.5670760000000  0.6175750000000  0.4959440000000 1.0
C      1  0.5580920000000  0.5226830000000  0.4602100000000 1.0
C      1  0.5287200000000  0.5805160000000  0.4455570000000 1.0
C      1  0.5215950000000  0.5737280000000  0.5256870000000 1.0
C      1  0.5599670000000  0.4642090000000  0.5604160000000 1.0
C      1  0.5611430000000  0.3911020000000  0.4122280000000 1.0
C      1  0.4311030000000  0.4730770000000  0.4219110000000 1.0
C      1  0.5133960000000  0.5462050000000  0.4817530000000 1.0
C      1  0.4957380000000  0.4960410000000  0.4562900000000 1.0
C      1  0.5229210000000  0.4460330000000  0.5046320000000 1.0
C      1  0.4589360000000  0.5020380000000  0.3914670000000 1.0
C      1  0.6146700000000  0.5044110000000  0.5454010000000 1.0
C      1  0.5198520000000  0.5090080000000  0.6066430000000 1.0
C      1  0.4162510000000  0.4538710000000  0.4384530000000 1.0
C      1  0.5739310000000  0.5280830000000  0.5575840000000 1.0
C      1  0.4961720000000  0.5420790000000  0.4616350000000 1.0
C      1  0.5062270000000  0.4956550000000  0.5572160000000 1.0
C      1  0.4733200000000  0.5546500000000  0.4109340000000 1.0
C      1  0.4249770000000  0.4300850000000  0.4550770000000 1.0
C      1  0.5804470000000  0.5480450000000  0.4941640000000 1.0
C      1  0.4532460000000  0.4250790000000  0.4617290000000 1.0
C      1  0.5337510000000  0.4736310000000  0.4717510000000 1.0
C      1  0.5009680000000  0.4618610000000  0.5131700000000 1.0
C      1  0.4315690000000  0.5194370000000  0.4883520000000 1.0
C      1  0.5440070000000  0.6101980000000  0.4809020000000 1.0
C      1  0.4638340000000  0.5727280000000  0.3926790000000 1.0
C      1  0.5315830000000  0.4210300000000  0.5154920000000 1.0
C      1  0.4285600000000  0.4948970000000  0.5017930000000 1.0
C      1  0.5177920000000  0.5100700000000  0.6607740000000 1.0
C      1  0.5061310000000  0.5190620000000  0.4003740000000 1.0
C      1  0.4117910000000  0.4293630000000  0.4805560000000 1.0
C      1  0.4863540000000  0.6010160000000  0.5170950000000 1.0
C      1  0.5897350000000  0.4741520000000  0.4410830000000 1.0
C      1  0.4026580000000  0.5638560000000  0.4876460000000 1.0
C      1  0.5976380000000  0.5264970000000  0.5409640000000 1.0
C      1  0.5633460000000  0.5266970000000  0.4864920000000 1.0
C      1  0.5748850000000  0.5734830000000  0.4822680000000 1.0
C      1  0.5280460000000  0.4831280000000  0.5947350000000 1.0
C      1  0.5095140000000  0.6018400000000  0.4533380000000 1.0
C      1  0.4662690000000  0.5466170000000  0.4603820000000 1.0
C      1  0.4902070000000  0.4439320000000  0.4396230000000 1.0
C      1  0.6064290000000  0.4551750000000  0.5597200000000 1.0
C      1  0.5592130000000  0.4850360000000  0.5122500000000 1.0
C      1  0.3913320000000  0.4651520000000  0.4474200000000 1.0
C      1  0.4469300000000  0.5338280000000  0.5930910000000 1.0
C      1  0.5051540000000  0.5574640000000  0.5826990000000 1.0
C      1  0.4559710000000  0.5440970000000  0.4313780000000 1.0
C      1  0.5253850000000  0.5042150000000  0.4163240000000 1.0
C      1  0.4641370000000  0.5185450000000  0.5323110000000 1.0
C      1  0.4815680000000  0.4688880000000  0.6041190000000 1.0
C      1  0.4507190000000  0.5477100000000  0.5703180000000 1.0
C      1  0.4943570000000  0.4707860000000  0.3937870000000 1.0
C      1  0.5015260000000  0.5893840000000  0.5404160000000 1.0
C      1  0.4817410000000  0.5771240000000  0.4995270000000 1.0
C      1  0.3818530000000  0.4917400000000  0.6147850000000 1.0
C      1  0.3735350000000  0.4880690000000  0.4872110000000 1.0
C      1  0.4601070000000  0.4832660000000  0.5642740000000 1.0
C      1  0.5990800000000  0.5158450000000  0.4173580000000 1.0
C      1  0.5128100000000  0.5333930000000  0.5928430000000 1.0
C      1  0.4986360000000  0.5787310000000  0.5667670000000 1.0
C      1  0.4976660000000  0.4878720000000  0.5025690000000 1.0
C      1  0.5803320000000  0.4441510000000  0.5596710000000 1.0
C      1  0.5452060000000  0.5669770000000  0.5390580000000 1.0
C      1  0.4857780000000  0.4760070000000  0.5551300000000 1.0
C      1  0.5540450000000  0.4102090000000  0.4284750000000 1.0
C      1  0.5519470000000  0.5405660000000  0.5446700000000 1.0
C      1  0.5882220000000  0.3662840000000  0.4753200000000 1.0
C      1  0.5674950000000  0.5084180000000  0.5772650000000 1.0
C      1  0.4657200000000  0.4506490000000  0.4539790000000 1.0
C      1  0.4889180000000  0.5104610000000  0.5190650000000 1.0
C      1  0.5925130000000  0.3431390000000  0.4641170000000 1.0
C      1  0.5971400000000  0.5420430000000  0.5167630000000 1.0
C      1  0.6074020000000  0.4953120000000  0.4334660000000 1.0
C      1  0.5204520000000  0.5624550000000  0.4246460000000 1.0
C      1  0.5854440000000  0.5970770000000  0.4957940000000 1.0
C      1  0.4863970000000  0.4062250000000  0.5022890000000 1.0
C      1  0.4081840000000  0.5267350000000  0.4357230000000 1.0
C      1  0.4364330000000  0.4708000000000  0.4897780000000 1.0
C      1  0.4596850000000  0.5434950000000  0.5451060000000 1.0
C      1  0.4149630000000  0.5861410000000  0.4790920000000 1.0
C      1  0.5117850000000  0.4901880000000  0.4783550000000 1.0
C      1  0.3846770000000  0.4952260000000  0.6671670000000 1.0
C      1  0.4632510000000  0.5718290000000  0.4780280000000 1.0
C      1  0.5531600000000  0.4836120000000  0.5801890000000 1.0
C      1  0.5418610000000  0.4509040000000  0.4602530000000 1.0
C      1  0.4979670000000  0.4192760000000  0.4539280000000 1.0
C      1  0.4119690000000  0.5391090000000  0.4913710000000 1.0
C      1  0.5193190000000  0.5099470000000  0.6347600000000 1.0
C      1  0.5076710000000  0.5633610000000  0.5027410000000 1.0
C      1  0.5879720000000  0.4381840000000  0.4818560000000 1.0
C      1  0.4775350000000  0.4112100000000  0.4743200000000 1.0
C      1  0.5078910000000  0.4608530000000  0.5941480000000 1.0
C      1  0.3884480000000  0.5129390000000  0.4475400000000 1.0
C      1  0.4560110000000  0.4726550000000  0.4686990000000 1.0
C      1  0.5934840000000  0.4561760000000  0.4625550000000 1.0
C      1  0.4900570000000  0.4546550000000  0.5379400000000 1.0
C      1  0.4502820000000  0.5090710000000  0.6032590000000 1.0
C      1  0.3819570000000  0.4885740000000  0.4602910000000 1.0
C      1  0.3954580000000  0.4909060000000  0.5358490000000 1.0
C      1  0.5117950000000  0.5140930000000  0.5366620000000 1.0
C      1  0.5082050000000  0.4367840000000  0.5764070000000 1.0
C      1  0.4215850000000  0.4479000000000  0.4978080000000 1.0
C      1  0.5009700000000  0.5461430000000  0.4100510000000 1.0
C      1  0.5598700000000  0.4173410000000  0.5186070000000 1.0
C      1  0.5649620000000  0.4763410000000  0.4265630000000 1.0
C      1  0.4547970000000  0.5213990000000  0.4722330000000 1.0
C      1  0.5735400000000  0.5186150000000  0.4078290000000 1.0
C      1  0.4229740000000  0.4940490000000  0.5295800000000 1.0
C      1  0.4987420000000  0.6207980000000  0.5000250000000 1.0
C      1  0.5517910000000  0.5113230000000  0.5070620000000 1.0
C      1  0.4404990000000  0.4992170000000  0.4127640000000 1.0
C      1  0.5834410000000  0.3901020000000  0.4858850000000 1.0
C      1  0.3864270000000  0.4901130000000  0.5621290000000 1.0
C      1  0.3825120000000  0.4905210000000  0.5883230000000 1.0
C      1  0.5770510000000  0.4156590000000  0.4954200000000 1.0
C      1  0.4345860000000  0.5244520000000  0.4260700000000 1.0
C      1  0.5085750000000  0.4876970000000  0.4328230000000 1.0
C      1  0.5533670000000  0.4711310000000  0.5341150000000 1.0
C      1  0.5472610000000  0.4295540000000  0.4452950000000 1.0
C      1  0.5369490000000  0.5226900000000  0.5285140000000 1.0
C      1  0.5531760000000  0.4997200000000  0.4145560000000 1.0
C      1  0.5054940000000  0.4110370000000  0.5256530000000 1.0
C      1  0.4996880000000  0.4628650000000  0.4209640000000 1.0
C      1  0.4465590000000  0.4981880000000  0.5443540000000 1.0
END
