TITL C-627106-156-758 7061.66537798656 125000 -989.688281856917 0 0 164 (C1) n - 1
REM
REM in /home/nfs/bkarasulu/CARBON/AIRSS/Generating-Clusters/LCBOP/Only-C1/SD-CG/FIRE-CG
REM
REM
REM
REM
REM
REM ./C.cell (11c1c37f851c82e70ff6c80c92926a4b)
REM AIRSS Version 0.9.1 bugfix July 2018 build 013d7b7c2542+ Fri, 06 Jul 2018 19:26:36 +0100
REM compiler GCC version 9.2.1 20190827 (Red Hat 9.2.1-1)
REM options -cpp -mtune=generic -march=x86-64 -g -O0 -fpre-include=/usr/include/finclude/math-vector-fortran.h
REM seed 1791152883 251008442 1761587309 1290012804 470504039 -27079761 -455608049 896903522 -262232219 553391840 1732587806 1412267282 1619227871 -1092703750 -1218716128 142438214 1762131790 -511213264 1882396709 -804864828 -497907546 719832196 191717582 847194635 940898100 -538652790 1908035682 -2085251167 924357323 -1298223050 1569864745 1855836061 978948194
REM
CELL 1.54180   50.00000   50.00000   50.00000   90.00000   90.00000   90.00000
LATT -1
SFAC C  
C      1  0.5610380000000  0.5824120000000  0.5515420000000 1.0
C      1  0.5181280000000  0.5719850000000  0.5819010000000 1.0
C      1  0.5573390000000  0.4187950000000  0.5508110000000 1.0
C      1  0.4011010000000  0.4761010000000  0.5700740000000 1.0
C      1  0.4503640000000  0.5385530000000  0.4761060000000 1.0
C      1  0.5207830000000  0.5650500000000  0.5273610000000 1.0
C      1  0.4404300000000  0.5954460000000  0.5497720000000 1.0
C      1  0.4795040000000  0.5872160000000  0.5184500000000 1.0
C      1  0.5146740000000  0.4338170000000  0.4083910000000 1.0
C      1  0.4719730000000  0.5051250000000  0.5199330000000 1.0
C      1  0.6151180000000  0.5404460000000  0.5593370000000 1.0
C      1  0.4504020000000  0.4620560000000  0.3632370000000 1.0
C      1  0.4998620000000  0.5003980000000  0.5213160000000 1.0
C      1  0.4678310000000  0.5328280000000  0.6193960000000 1.0
C      1  0.3895140000000  0.5222100000000  0.4984990000000 1.0
C      1  0.5464990000000  0.4973990000000  0.4384050000000 1.0
C      1  0.5436710000000  0.4722900000000  0.3995700000000 1.0
C      1  0.5209180000000  0.4634980000000  0.4785100000000 1.0
C      1  0.4907140000000  0.5984810000000  0.4399190000000 1.0
C      1  0.5471740000000  0.5122320000000  0.4947880000000 1.0
C      1  0.4645030000000  0.5346510000000  0.4105700000000 1.0
C      1  0.5325600000000  0.4550110000000  0.5263100000000 1.0
C      1  0.4009100000000  0.4738680000000  0.4400240000000 1.0
C      1  0.4370660000000  0.5285610000000  0.4085570000000 1.0
C      1  0.5433930000000  0.4596290000000  0.4973740000000 1.0
C      1  0.4468080000000  0.4593670000000  0.5734110000000 1.0
C      1  0.3995050000000  0.4498060000000  0.4523760000000 1.0
C      1  0.5073920000000  0.4274570000000  0.4813470000000 1.0
C      1  0.4525250000000  0.5952690000000  0.5236090000000 1.0
C      1  0.5648740000000  0.4046150000000  0.4430350000000 1.0
C      1  0.5829730000000  0.4255970000000  0.4879930000000 1.0
C      1  0.4334730000000  0.5148580000000  0.4805640000000 1.0
C      1  0.5684040000000  0.6208700000000  0.4982170000000 1.0
C      1  0.5510510000000  0.4966980000000  0.3897390000000 1.0
C      1  0.5632160000000  0.4846250000000  0.4973080000000 1.0
C      1  0.4051850000000  0.4314380000000  0.4718050000000 1.0
C      1  0.5453970000000  0.3974180000000  0.4623210000000 1.0
C      1  0.5938280000000  0.4969000000000  0.5809480000000 1.0
C      1  0.3949070000000  0.4720530000000  0.5221020000000 1.0
C      1  0.4933990000000  0.4813880000000  0.4222820000000 1.0
C      1  0.4978980000000  0.4029490000000  0.5244890000000 1.0
C      1  0.4797070000000  0.5530270000000  0.6034090000000 1.0
C      1  0.5461730000000  0.5731790000000  0.5743860000000 1.0
C      1  0.5459220000000  0.5240190000000  0.5807130000000 1.0
C      1  0.4335170000000  0.4606790000000  0.4927280000000 1.0
C      1  0.5256200000000  0.4764640000000  0.6137360000000 1.0
C      1  0.4421200000000  0.5727760000000  0.5679160000000 1.0
C      1  0.6001460000000  0.4536930000000  0.5193420000000 1.0
C      1  0.5588540000000  0.5313760000000  0.4722320000000 1.0
C      1  0.4700400000000  0.5016120000000  0.5830700000000 1.0
C      1  0.5322590000000  0.4033190000000  0.5580900000000 1.0
C      1  0.5719380000000  0.5397480000000  0.3769910000000 1.0
C      1  0.6186250000000  0.4629480000000  0.4989370000000 1.0
C      1  0.5504120000000  0.3850640000000  0.4875080000000 1.0
C      1  0.5177600000000  0.4982650000000  0.4276130000000 1.0
C      1  0.5589190000000  0.5503460000000  0.5854690000000 1.0
C      1  0.3866510000000  0.5199070000000  0.5578670000000 1.0
C      1  0.5467110000000  0.4459990000000  0.5515590000000 1.0
C      1  0.3927520000000  0.5450490000000  0.5152380000000 1.0
C      1  0.5582150000000  0.6055320000000  0.4779690000000 1.0
C      1  0.5085260000000  0.5686860000000  0.4791600000000 1.0
C      1  0.5337570000000  0.4444670000000  0.5781570000000 1.0
C      1  0.4116680000000  0.4785510000000  0.5002730000000 1.0
C      1  0.5522980000000  0.5256970000000  0.3908310000000 1.0
C      1  0.5757860000000  0.4270600000000  0.4327320000000 1.0
C      1  0.4222550000000  0.4331400000000  0.4949240000000 1.0
C      1  0.4135030000000  0.5477090000000  0.4452700000000 1.0
C      1  0.4048510000000  0.5384950000000  0.5417160000000 1.0
C      1  0.5530540000000  0.5317110000000  0.5177480000000 1.0
C      1  0.5087790000000  0.5500380000000  0.6003590000000 1.0
C      1  0.4712040000000  0.4399600000000  0.4322070000000 1.0
C      1  0.5765270000000  0.4540010000000  0.4333620000000 1.0
C      1  0.4451040000000  0.4938320000000  0.5310840000000 1.0
C      1  0.4249550000000  0.4214950000000  0.5222610000000 1.0
C      1  0.5904340000000  0.4259120000000  0.5155530000000 1.0
C      1  0.5924060000000  0.5530780000000  0.3667310000000 1.0
C      1  0.4868370000000  0.5055320000000  0.4685540000000 1.0
C      1  0.4848900000000  0.5190200000000  0.3991350000000 1.0
C      1  0.5599160000000  0.4386300000000  0.4835990000000 1.0
C      1  0.5157150000000  0.4208210000000  0.5750500000000 1.0
C      1  0.5321520000000  0.5390640000000  0.4070110000000 1.0
C      1  0.4586900000000  0.4496210000000  0.5298850000000 1.0
C      1  0.5094940000000  0.5039330000000  0.5489180000000 1.0
C      1  0.5035040000000  0.4586560000000  0.5291560000000 1.0
C      1  0.5379800000000  0.4552260000000  0.6033120000000 1.0
C      1  0.4700570000000  0.3663890000000  0.4920070000000 1.0
C      1  0.5811780000000  0.4826630000000  0.4719610000000 1.0
C      1  0.3967970000000  0.5692220000000  0.5017550000000 1.0
C      1  0.4472130000000  0.4693790000000  0.5461930000000 1.0
C      1  0.4359160000000  0.5956500000000  0.5005380000000 1.0
C      1  0.4733790000000  0.4794710000000  0.4656030000000 1.0
C      1  0.4941270000000  0.5784870000000  0.5664000000000 1.0
C      1  0.4625390000000  0.4386900000000  0.5834650000000 1.0
C      1  0.4918470000000  0.4097310000000  0.4973790000000 1.0
C      1  0.4724660000000  0.3926700000000  0.4847690000000 1.0
C      1  0.4792430000000  0.4578360000000  0.5116090000000 1.0
C      1  0.6131340000000  0.5662220000000  0.3579450000000 1.0
C      1  0.5195320000000  0.5617130000000  0.4525570000000 1.0
C      1  0.6034040000000  0.4725530000000  0.5887320000000 1.0
C      1  0.6109710000000  0.5169620000000  0.5712400000000 1.0
C      1  0.5682340000000  0.4780710000000  0.4462080000000 1.0
C      1  0.4096500000000  0.5043740000000  0.4900030000000 1.0
C      1  0.4874780000000  0.4305100000000  0.5679860000000 1.0
C      1  0.4732870000000  0.5294400000000  0.4579360000000 1.0
C      1  0.5308330000000  0.4545710000000  0.4189800000000 1.0
C      1  0.5768420000000  0.5809640000000  0.4418100000000 1.0
C      1  0.6046460000000  0.5611340000000  0.5460490000000 1.0
C      1  0.4690130000000  0.5693960000000  0.5806520000000 1.0
C      1  0.5348540000000  0.6139260000000  0.4638040000000 1.0
C      1  0.4058880000000  0.4312770000000  0.5421370000000 1.0
C      1  0.5268370000000  0.4600590000000  0.4483040000000 1.0
C      1  0.5664010000000  0.5029660000000  0.5822960000000 1.0
C      1  0.4685120000000  0.5341690000000  0.5223950000000 1.0
C      1  0.5222650000000  0.5240800000000  0.6002830000000 1.0
C      1  0.5115690000000  0.6121450000000  0.4503200000000 1.0
C      1  0.5809690000000  0.4762000000000  0.5215960000000 1.0
C      1  0.5343540000000  0.5602360000000  0.4265820000000 1.0
C      1  0.4662980000000  0.5486270000000  0.4986540000000 1.0
C      1  0.4961510000000  0.4889130000000  0.5725890000000 1.0
C      1  0.4524810000000  0.4218220000000  0.5323040000000 1.0
C      1  0.5108160000000  0.5218500000000  0.4114100000000 1.0
C      1  0.5720510000000  0.5531890000000  0.5117110000000 1.0
C      1  0.5802040000000  0.5689300000000  0.5342920000000 1.0
C      1  0.4775030000000  0.4665360000000  0.4405520000000 1.0
C      1  0.5491480000000  0.3923420000000  0.5149090000000 1.0
C      1  0.5716630000000  0.5813720000000  0.4695490000000 1.0
C      1  0.4566840000000  0.4032810000000  0.4643840000000 1.0
C      1  0.4800830000000  0.4905980000000  0.3980190000000 1.0
C      1  0.4662940000000  0.4762970000000  0.3789350000000 1.0
C      1  0.4625970000000  0.4658290000000  0.4882800000000 1.0
C      1  0.4730400000000  0.5472940000000  0.4347640000000 1.0
C      1  0.5141610000000  0.4983040000000  0.4892970000000 1.0
C      1  0.4525000000000  0.5345960000000  0.5456330000000 1.0
C      1  0.5268860000000  0.5725290000000  0.5006190000000 1.0
C      1  0.4195450000000  0.5523280000000  0.5674970000000 1.0
C      1  0.4775280000000  0.5753860000000  0.4352320000000 1.0
C      1  0.5333090000000  0.5408820000000  0.5351490000000 1.0
C      1  0.4828240000000  0.5712530000000  0.4936500000000 1.0
C      1  0.4037440000000  0.5043230000000  0.5760180000000 1.0
C      1  0.5708110000000  0.4086370000000  0.5281090000000 1.0
C      1  0.4289540000000  0.5585200000000  0.4669230000000 1.0
C      1  0.4677050000000  0.5065250000000  0.6116180000000 1.0
C      1  0.5563820000000  0.5227650000000  0.4464210000000 1.0
C      1  0.5293570000000  0.5227200000000  0.5552330000000 1.0
C      1  0.3979300000000  0.4586030000000  0.5469550000000 1.0
C      1  0.4339910000000  0.4476900000000  0.3489580000000 1.0
C      1  0.5136050000000  0.4962970000000  0.5984020000000 1.0
C      1  0.4536650000000  0.5213070000000  0.5714210000000 1.0
C      1  0.4270180000000  0.6179230000000  0.5581270000000 1.0
C      1  0.4954330000000  0.4599530000000  0.5582110000000 1.0
C      1  0.4982850000000  0.5793030000000  0.5384770000000 1.0
C      1  0.5241320000000  0.3938120000000  0.5316970000000 1.0
C      1  0.4053240000000  0.4994550000000  0.4324510000000 1.0
C      1  0.4777860000000  0.4119690000000  0.5438830000000 1.0
C      1  0.5710010000000  0.5560910000000  0.4831740000000 1.0
C      1  0.4161790000000  0.5253840000000  0.4275020000000 1.0
C      1  0.4548060000000  0.4223680000000  0.4460260000000 1.0
C      1  0.4194980000000  0.5772560000000  0.4868650000000 1.0
C      1  0.5575350000000  0.5761710000000  0.4237510000000 1.0
C      1  0.6087320000000  0.4768420000000  0.4774690000000 1.0
C      1  0.5220350000000  0.4133330000000  0.4622320000000 1.0
C      1  0.4293470000000  0.5188080000000  0.5348010000000 1.0
C      1  0.4886540000000  0.4287850000000  0.4128920000000 1.0
C      1  0.4259550000000  0.5251380000000  0.5820040000000 1.0
END
