TITL C-627111-6168-1791 15479.2407776598 125000 -540.584811055616 0 0 91 (C1) n - 1
REM
REM in /home/nfs/bkarasulu/CARBON/AIRSS/Generating-Clusters/LCBOP/Only-C1/SD-CG/FIRE-CG
REM
REM
REM
REM
REM
REM ./C.cell (11c1c37f851c82e70ff6c80c92926a4b)
REM AIRSS Version 0.9.1 bugfix July 2018 build 013d7b7c2542+ Fri, 06 Jul 2018 19:26:36 +0100
REM compiler GCC version 9.2.1 20190827 (Red Hat 9.2.1-1)
REM options -cpp -mtune=generic -march=x86-64 -g -O0 -fpre-include=/usr/include/finclude/math-vector-fortran.h
REM seed -1048797738 590235739 -1540150056 -1261915818 -1927749731 1708846943 1792511223 844487801 -1027104920 140278297 30963800 -1588118044 1707242142 -198408058 421501813 -2048994089 1574135717 1844613599 -951720289 494976982 -1653850719 -1789131809 -921933120 -1754347437 1896188037 -1083213408 166811813 -880486450 1211527896 1913491224 -801777654 -1860273130 1640425982
REM
CELL 1.54180   50.00000   50.00000   50.00000   90.00000   90.00000   90.00000
LATT -1
SFAC C  
C      1  0.4771680000000  0.4106540000000  0.5023660000000 1.0
C      1  0.4912880000000  0.5508100000000  0.4851640000000 1.0
C      1  0.4116020000000  0.5274310000000  0.5223460000000 1.0
C      1  0.4214440000000  0.5283810000000  0.4705700000000 1.0
C      1  0.5043620000000  0.4324710000000  0.5614750000000 1.0
C      1  0.4441720000000  0.5588550000000  0.5019380000000 1.0
C      1  0.5462090000000  0.4645640000000  0.5732350000000 1.0
C      1  0.5292960000000  0.4534150000000  0.4284190000000 1.0
C      1  0.4397960000000  0.5045750000000  0.4698460000000 1.0
C      1  0.5006450000000  0.5756340000000  0.5461870000000 1.0
C      1  0.5592950000000  0.4394360000000  0.4774790000000 1.0
C      1  0.4285470000000  0.4558360000000  0.5050790000000 1.0
C      1  0.5403510000000  0.5891250000000  0.5187510000000 1.0
C      1  0.4507440000000  0.5601410000000  0.4417910000000 1.0
C      1  0.5650740000000  0.4510970000000  0.5274410000000 1.0
C      1  0.5121950000000  0.5045550000000  0.5749610000000 1.0
C      1  0.4858450000000  0.4666680000000  0.5912660000000 1.0
C      1  0.4520100000000  0.5242140000000  0.5751620000000 1.0
C      1  0.5464360000000  0.5513250000000  0.5461970000000 1.0
C      1  0.5589610000000  0.4974300000000  0.4292700000000 1.0
C      1  0.5558670000000  0.5257010000000  0.4367170000000 1.0
C      1  0.4768330000000  0.4860500000000  0.5304240000000 1.0
C      1  0.5264080000000  0.5443370000000  0.4019270000000 1.0
C      1  0.4283360000000  0.5471710000000  0.4497690000000 1.0
C      1  0.5066890000000  0.4941400000000  0.4458750000000 1.0
C      1  0.5623170000000  0.4616250000000  0.4606630000000 1.0
C      1  0.4615180000000  0.4319570000000  0.4623750000000 1.0
C      1  0.5064250000000  0.5224430000000  0.5523840000000 1.0
C      1  0.4603430000000  0.5293490000000  0.5321310000000 1.0
C      1  0.4595040000000  0.4276730000000  0.5724040000000 1.0
C      1  0.4617330000000  0.5443480000000  0.5564190000000 1.0
C      1  0.4569760000000  0.4134530000000  0.4820500000000 1.0
C      1  0.5514730000000  0.4378080000000  0.5044930000000 1.0
C      1  0.4572020000000  0.4818700000000  0.5512970000000 1.0
C      1  0.5608660000000  0.5456810000000  0.4662850000000 1.0
C      1  0.4644720000000  0.5436760000000  0.4877060000000 1.0
C      1  0.5462630000000  0.5039700000000  0.4791200000000 1.0
C      1  0.5829540000000  0.4732810000000  0.5272790000000 1.0
C      1  0.5676730000000  0.4851350000000  0.4744650000000 1.0
C      1  0.4202210000000  0.5411070000000  0.4984400000000 1.0
C      1  0.6172750000000  0.4901750000000  0.4722180000000 1.0
C      1  0.4529280000000  0.4609390000000  0.4955890000000 1.0
C      1  0.5289230000000  0.5731860000000  0.5392500000000 1.0
C      1  0.5582040000000  0.5265950000000  0.5379220000000 1.0
C      1  0.5295430000000  0.4879340000000  0.5278550000000 1.0
C      1  0.5538800000000  0.5855630000000  0.4956990000000 1.0
C      1  0.5129110000000  0.5367580000000  0.4483440000000 1.0
C      1  0.4560940000000  0.4112570000000  0.5512070000000 1.0
C      1  0.4884400000000  0.4995700000000  0.4268200000000 1.0
C      1  0.5482200000000  0.4467990000000  0.5507420000000 1.0
C      1  0.4148530000000  0.5066370000000  0.5422090000000 1.0
C      1  0.5027940000000  0.4224930000000  0.4932630000000 1.0
C      1  0.4832760000000  0.4421120000000  0.5774330000000 1.0
C      1  0.5734730000000  0.5224920000000  0.5140560000000 1.0
C      1  0.5081080000000  0.5321020000000  0.4973210000000 1.0
C      1  0.5381240000000  0.4918460000000  0.5718910000000 1.0
C      1  0.4768830000000  0.5715650000000  0.4418280000000 1.0
C      1  0.4905030000000  0.4947540000000  0.5906340000000 1.0
C      1  0.5239180000000  0.5791370000000  0.4600460000000 1.0
C      1  0.4679970000000  0.4046300000000  0.5281130000000 1.0
C      1  0.5192040000000  0.5512160000000  0.3778470000000 1.0
C      1  0.4614490000000  0.4982700000000  0.4270130000000 1.0
C      1  0.5311340000000  0.5360510000000  0.4279950000000 1.0
C      1  0.4599610000000  0.5143030000000  0.4884030000000 1.0
C      1  0.5518180000000  0.4692230000000  0.4352100000000 1.0
C      1  0.5157390000000  0.5060600000000  0.4738190000000 1.0
C      1  0.4803870000000  0.4519780000000  0.4272670000000 1.0
C      1  0.5493450000000  0.5720820000000  0.4711670000000 1.0
C      1  0.5888960000000  0.4972130000000  0.5126500000000 1.0
C      1  0.5934840000000  0.4906580000000  0.4851350000000 1.0
C      1  0.4076120000000  0.4623980000000  0.5202540000000 1.0
C      1  0.4644730000000  0.5075860000000  0.5154830000000 1.0
C      1  0.4816660000000  0.5933250000000  0.4256320000000 1.0
C      1  0.5052690000000  0.4431670000000  0.4395400000000 1.0
C      1  0.5036670000000  0.4820000000000  0.5195920000000 1.0
C      1  0.4764440000000  0.4694020000000  0.4853630000000 1.0
C      1  0.4997740000000  0.5611940000000  0.4587170000000 1.0
C      1  0.4694260000000  0.5135380000000  0.5949910000000 1.0
C      1  0.4721100000000  0.5698960000000  0.5460400000000 1.0
C      1  0.4574120000000  0.4552170000000  0.4457560000000 1.0
C      1  0.4475810000000  0.4845390000000  0.4486040000000 1.0
C      1  0.5240790000000  0.4329040000000  0.5419480000000 1.0
C      1  0.5602600000000  0.5280430000000  0.4886480000000 1.0
C      1  0.5242880000000  0.4285480000000  0.5123290000000 1.0
C      1  0.5085960000000  0.5293780000000  0.5257130000000 1.0
C      1  0.5006370000000  0.4825610000000  0.4911500000000 1.0
C      1  0.4546680000000  0.5760380000000  0.5227770000000 1.0
C      1  0.4007730000000  0.4827430000000  0.5363520000000 1.0
C      1  0.5461730000000  0.5023390000000  0.5461560000000 1.0
C      1  0.4997630000000  0.4313890000000  0.4649760000000 1.0
C      1  0.4380520000000  0.5028050000000  0.5598680000000 1.0
END
