TITL C-627109-622-1534 0.00653109159464469 125000 -133.618175596913 0 0 24 (C1) n - 1
REM
REM in /home/nfs/bkarasulu/CARBON/AIRSS/Generating-Clusters/LCBOP/Only-C1/SD-CG/FIRE-CG
REM
REM
REM
REM
REM
REM ./C.cell (11c1c37f851c82e70ff6c80c92926a4b)
REM AIRSS Version 0.9.1 bugfix July 2018 build 013d7b7c2542+ Fri, 06 Jul 2018 19:26:36 +0100
REM compiler GCC version 9.2.1 20190827 (Red Hat 9.2.1-1)
REM options -cpp -mtune=generic -march=x86-64 -g -O0 -fpre-include=/usr/include/finclude/math-vector-fortran.h
REM seed -925579281 1769607257 -248182683 1954564006 -62219111 -1874035164 1658234190 -1444790279 -1631926408 -2020072835 1606170198 2131619808 -2075918157 2013293137 1247375538 1756699553 130976588 -1648117425 -1171639995 70518522 650906051 619123632 1095907559 -773877596 -384025018 42957554 -648580323 1010236163 2136308492 291128434 -1816974188 1803795322 -530706425
REM
CELL 1.54180   50.00000   50.00000   50.00000   90.00000   90.00000   90.00000
LATT -1
SFAC C  
C      1  0.6213450000000  0.4850750000000  0.4981820000000 1.0
C      1  0.4465730000000  0.4748160000000  0.5450170000000 1.0
C      1  0.5839990000000  0.5013990000000  0.5245670000000 1.0
C      1  0.4606910000000  0.4687590000000  0.5223770000000 1.0
C      1  0.4443890000000  0.5152340000000  0.4894320000000 1.0
C      1  0.5373940000000  0.5126500000000  0.4529910000000 1.0
C      1  0.5305920000000  0.4918570000000  0.5261660000000 1.0
C      1  0.5832340000000  0.5044250000000  0.4761290000000 1.0
C      1  0.4786050000000  0.4877620000000  0.5111630000000 1.0
C      1  0.5967160000000  0.4969020000000  0.4994710000000 1.0
C      1  0.3992450000000  0.5217760000000  0.4802520000000 1.0
C      1  0.4878870000000  0.5095600000000  0.4686350000000 1.0
C      1  0.5979710000000  0.5122280000000  0.5454590000000 1.0
C      1  0.4550760000000  0.4211840000000  0.4974410000000 1.0
C      1  0.4701120000000  0.5042060000000  0.4895340000000 1.0
C      1  0.5627880000000  0.5097870000000  0.4601150000000 1.0
C      1  0.5046310000000  0.4899630000000  0.5211450000000 1.0
C      1  0.5568830000000  0.4950310000000  0.5274450000000 1.0
C      1  0.5110430000000  0.5125360000000  0.4560640000000 1.0
C      1  0.4498390000000  0.5545860000000  0.5212020000000 1.0
C      1  0.4576970000000  0.4439260000000  0.5098940000000 1.0
C      1  0.4211510000000  0.5056260000000  0.4748000000000 1.0
C      1  0.4069770000000  0.5417580000000  0.4979100000000 1.0
C      1  0.4351610000000  0.5389520000000  0.5046080000000 1.0
END
