TITL C-627107-135-1340 0.00046962221410833 125000 -77.9696024355854 0 0 15 (C1) n - 1
REM
REM in /home/nfs/bkarasulu/CARBON/AIRSS/Generating-Clusters/LCBOP/Only-C1/SD-CG/FIRE-CG
REM
REM
REM
REM
REM
REM ./C.cell (11c1c37f851c82e70ff6c80c92926a4b)
REM AIRSS Version 0.9.1 bugfix July 2018 build 013d7b7c2542+ Fri, 06 Jul 2018 19:26:36 +0100
REM compiler GCC version 9.2.1 20190827 (Red Hat 9.2.1-1)
REM options -cpp -mtune=generic -march=x86-64 -g -O0 -fpre-include=/usr/include/finclude/math-vector-fortran.h
REM seed 83346691 -1868825757 355656469 -222804283 -1517864952 1654948539 -68735262 2098475369 82290713 1179578496 584601110 -1381375312 796278486 -776422643 -1331697420 -891343054 1133901945 -1635500053 -1626500228 623838894 238955407 -2136476197 -1394298275 1063406713 -827913642 -1940588115 -561023154 -540545378 350873773 711980191 139519073 -1006341939 1483604068
REM
CELL 1.54180   50.00000   50.00000   50.00000   90.00000   90.00000   90.00000
LATT -1
SFAC C  
C      1  0.5506300000000  0.4880910000000  0.5410870000000 1.0
C      1  0.4697990000000  0.4849370000000  0.4370060000000 1.0
C      1  0.4789550000000  0.4709630000000  0.5429330000000 1.0
C      1  0.4766590000000  0.5097290000000  0.5049230000000 1.0
C      1  0.4618360000000  0.5331610000000  0.5082290000000 1.0
C      1  0.4804380000000  0.4952060000000  0.4584640000000 1.0
C      1  0.5273100000000  0.5385790000000  0.4745170000000 1.0
C      1  0.4764470000000  0.4899680000000  0.5246480000000 1.0
C      1  0.5196060000000  0.5132330000000  0.4813820000000 1.0
C      1  0.4483730000000  0.5553240000000  0.5108190000000 1.0
C      1  0.5506390000000  0.4780750000000  0.4695000000000 1.0
C      1  0.4921330000000  0.5060000000000  0.4814010000000 1.0
C      1  0.4824770000000  0.4523070000000  0.5607980000000 1.0
C      1  0.5389520000000  0.4937120000000  0.4886690000000 1.0
C      1  0.5457450000000  0.4907180000000  0.5156240000000 1.0
END
