TITL C-627111-6168-1639 0.108886999470242 125000 -204.879981578475 0 0 35 (C1) n - 1
REM
REM in /home/nfs/bkarasulu/CARBON/AIRSS/Generating-Clusters/LCBOP/Only-C1/SD-CG/FIRE-CG
REM
REM
REM
REM
REM
REM ./C.cell (11c1c37f851c82e70ff6c80c92926a4b)
REM AIRSS Version 0.9.1 bugfix July 2018 build 013d7b7c2542+ Fri, 06 Jul 2018 19:26:36 +0100
REM compiler GCC version 9.2.1 20190827 (Red Hat 9.2.1-1)
REM options -cpp -mtune=generic -march=x86-64 -g -O0 -fpre-include=/usr/include/finclude/math-vector-fortran.h
REM seed -1390399280 270604533 2137629128 999328229 1889404062 672699608 1066254892 -289043231 -1433031155 -1682505736 1403788015 1110251767 819485952 -989313659 1285759279 1160542754 -54096879 -1683532239 1843295855 1480652911 2021161383 191254861 -1634847760 1689570500 -2116515265 -503300935 225806132 -2112287151 1913917364 -1962614149 107718702 2076219210 -88380958
REM
CELL 1.54180   50.00000   50.00000   50.00000   90.00000   90.00000   90.00000
LATT -1
SFAC C  
C      1  0.4372320000000  0.5378470000000  0.4593180000000 1.0
C      1  0.5150390000000  0.5414050000000  0.5354050000000 1.0
C      1  0.4665160000000  0.4771780000000  0.4894920000000 1.0
C      1  0.4721720000000  0.5057010000000  0.4857870000000 1.0
C      1  0.4916700000000  0.4217790000000  0.4573650000000 1.0
C      1  0.5092880000000  0.4963110000000  0.5131990000000 1.0
C      1  0.4696850000000  0.5101960000000  0.5416500000000 1.0
C      1  0.5242110000000  0.5045110000000  0.5696550000000 1.0
C      1  0.5731700000000  0.5267650000000  0.5256000000000 1.0
C      1  0.5326290000000  0.4545450000000  0.5037070000000 1.0
C      1  0.4542820000000  0.5219790000000  0.4719250000000 1.0
C      1  0.4471420000000  0.5219100000000  0.5474740000000 1.0
C      1  0.3863560000000  0.5854040000000  0.4218630000000 1.0
C      1  0.4685910000000  0.4621730000000  0.5140140000000 1.0
C      1  0.5696320000000  0.4825480000000  0.4723100000000 1.0
C      1  0.5633290000000  0.5221440000000  0.4995900000000 1.0
C      1  0.5600430000000  0.5302350000000  0.5488480000000 1.0
C      1  0.5552400000000  0.4957850000000  0.4923500000000 1.0
C      1  0.4961340000000  0.5163860000000  0.4971390000000 1.0
C      1  0.4201830000000  0.5537830000000  0.4467650000000 1.0
C      1  0.4941800000000  0.4971770000000  0.5375830000000 1.0
C      1  0.4031290000000  0.5697240000000  0.4342110000000 1.0
C      1  0.5275620000000  0.4315060000000  0.4913580000000 1.0
C      1  0.4791760000000  0.4516290000000  0.5367900000000 1.0
C      1  0.5515990000000  0.5440110000000  0.4859130000000 1.0
C      1  0.4718630000000  0.4395030000000  0.4542990000000 1.0
C      1  0.5265680000000  0.5536250000000  0.4896580000000 1.0
C      1  0.5325840000000  0.4826660000000  0.5044370000000 1.0
C      1  0.4626280000000  0.4615220000000  0.4663250000000 1.0
C      1  0.5131960000000  0.4186470000000  0.4729150000000 1.0
C      1  0.5077960000000  0.5413630000000  0.5069730000000 1.0
C      1  0.5324160000000  0.5277840000000  0.5544590000000 1.0
C      1  0.5064450000000  0.4843220000000  0.5602620000000 1.0
C      1  0.5825650000000  0.4700300000000  0.4534630000000 1.0
C      1  0.4957500000000  0.4579070000000  0.5578980000000 1.0
END
