TITL C-627112-676-790 -2.62052448442842e-06 125000 -874.746761839223 0 0 142 (C1) n - 1
REM
REM in /home/nfs/bkarasulu/CARBON/AIRSS/Generating-Clusters/LCBOP/Only-C1/SD-CG/FIRE-CG
REM
REM
REM
REM
REM
REM ./C.cell (11c1c37f851c82e70ff6c80c92926a4b)
REM AIRSS Version 0.9.1 bugfix July 2018 build 013d7b7c2542+ Fri, 06 Jul 2018 19:26:36 +0100
REM compiler GCC version 9.2.1 20190827 (Red Hat 9.2.1-1)
REM options -cpp -mtune=generic -march=x86-64 -g -O0 -fpre-include=/usr/include/finclude/math-vector-fortran.h
REM seed -621882272 -1166306086 661089746 376267929 -728333420 1787209293 -1327168113 569795678 304286148 -1990089430 2035293954 2043936113 1924538467 -1817549562 72509004 954973335 -1922265263 -287904492 -60691097 1317182397 1520377550 -2038599863 1218537448 -26322568 1145724062 -362458942 -1057066571 432086357 1661105972 -1783861439 -1059998091 -92452123 -886257520
REM
CELL 1.54180   50.00000   50.00000   50.00000   90.00000   90.00000   90.00000
LATT -1
SFAC C  
C      1  0.5600630000000  0.4299620000000  0.5499840000000 1.0
C      1  0.5089990000000  0.5727950000000  0.5781160000000 1.0
C      1  0.4196630000000  0.5471420000000  0.4638820000000 1.0
C      1  0.4808130000000  0.5103870000000  0.4248020000000 1.0
C      1  0.4692560000000  0.4898960000000  0.5568290000000 1.0
C      1  0.5413440000000  0.4169600000000  0.4819830000000 1.0
C      1  0.4450080000000  0.4572300000000  0.5018200000000 1.0
C      1  0.4905440000000  0.4329950000000  0.4905620000000 1.0
C      1  0.4288390000000  0.5066240000000  0.5042730000000 1.0
C      1  0.5679830000000  0.5010660000000  0.4341270000000 1.0
C      1  0.4718600000000  0.5870130000000  0.4375340000000 1.0
C      1  0.5914570000000  0.5424590000000  0.5294130000000 1.0
C      1  0.4544550000000  0.5809780000000  0.5299870000000 1.0
C      1  0.5815050000000  0.4276960000000  0.5335500000000 1.0
C      1  0.4714420000000  0.5260500000000  0.5126500000000 1.0
C      1  0.4423900000000  0.5007560000000  0.5657950000000 1.0
C      1  0.5590280000000  0.5064610000000  0.5236800000000 1.0
C      1  0.5066470000000  0.5528650000000  0.4122590000000 1.0
C      1  0.6050130000000  0.4839220000000  0.4679890000000 1.0
C      1  0.4768380000000  0.5026760000000  0.5278450000000 1.0
C      1  0.6156770000000  0.4467760000000  0.5021170000000 1.0
C      1  0.4351070000000  0.4078650000000  0.5282020000000 1.0
C      1  0.5146320000000  0.4574120000000  0.4273560000000 1.0
C      1  0.4761460000000  0.5910380000000  0.4666980000000 1.0
C      1  0.5455530000000  0.5597100000000  0.6371390000000 1.0
C      1  0.5214470000000  0.3968880000000  0.4716340000000 1.0
C      1  0.4964100000000  0.5664570000000  0.5021560000000 1.0
C      1  0.4672780000000  0.4586190000000  0.5202400000000 1.0
C      1  0.4703110000000  0.3924720000000  0.4929270000000 1.0
C      1  0.4461980000000  0.5379240000000  0.4701940000000 1.0
C      1  0.5143330000000  0.4667250000000  0.5976880000000 1.0
C      1  0.5072500000000  0.4996570000000  0.4734320000000 1.0
C      1  0.4451400000000  0.5515100000000  0.5704780000000 1.0
C      1  0.4254570000000  0.4307510000000  0.4645630000000 1.0
C      1  0.4540740000000  0.6034970000000  0.4807130000000 1.0
C      1  0.4379980000000  0.5606820000000  0.5444320000000 1.0
C      1  0.5218880000000  0.4535030000000  0.5738020000000 1.0
C      1  0.4102320000000  0.4473250000000  0.5488000000000 1.0
C      1  0.6101360000000  0.4620580000000  0.5487460000000 1.0
C      1  0.5517840000000  0.5830830000000  0.5176290000000 1.0
C      1  0.6042020000000  0.4438410000000  0.5277330000000 1.0
C      1  0.5723530000000  0.4935130000000  0.5021030000000 1.0
C      1  0.5009630000000  0.4475490000000  0.5552460000000 1.0
C      1  0.4325120000000  0.5334340000000  0.4103420000000 1.0
C      1  0.4897150000000  0.4024360000000  0.5558690000000 1.0
C      1  0.5196020000000  0.5759180000000  0.4637940000000 1.0
C      1  0.5506210000000  0.5099860000000  0.4557580000000 1.0
C      1  0.4159080000000  0.5141340000000  0.5284180000000 1.0
C      1  0.4653740000000  0.4281620000000  0.4055080000000 1.0
C      1  0.4821460000000  0.4224360000000  0.4271610000000 1.0
C      1  0.5073160000000  0.5059440000000  0.4181930000000 1.0
C      1  0.5040190000000  0.5118810000000  0.6195850000000 1.0
C      1  0.5283230000000  0.4931060000000  0.4570060000000 1.0
C      1  0.5478020000000  0.5375560000000  0.4579420000000 1.0
C      1  0.5211610000000  0.5472310000000  0.4612020000000 1.0
C      1  0.4879450000000  0.4793570000000  0.5109710000000 1.0
C      1  0.4188590000000  0.4957450000000  0.5501990000000 1.0
C      1  0.5903340000000  0.5543300000000  0.5032170000000 1.0
C      1  0.4014870000000  0.4735880000000  0.5539820000000 1.0
C      1  0.5988680000000  0.5043940000000  0.4899120000000 1.0
C      1  0.3754530000000  0.4779500000000  0.5631260000000 1.0
C      1  0.4395030000000  0.4322930000000  0.4885500000000 1.0
C      1  0.5694640000000  0.4676480000000  0.5769150000000 1.0
C      1  0.5661650000000  0.5795930000000  0.4702650000000 1.0
C      1  0.6140160000000  0.5251320000000  0.5328240000000 1.0
C      1  0.4003480000000  0.5307400000000  0.4519620000000 1.0
C      1  0.5391660000000  0.5789040000000  0.6195850000000 1.0
C      1  0.4908270000000  0.5007150000000  0.5748630000000 1.0
C      1  0.5086020000000  0.5800770000000  0.5500820000000 1.0
C      1  0.4850390000000  0.4799870000000  0.4791360000000 1.0
C      1  0.4696600000000  0.5213160000000  0.4567240000000 1.0
C      1  0.5948230000000  0.4719400000000  0.5686840000000 1.0
C      1  0.3512520000000  0.4826400000000  0.5715800000000 1.0
C      1  0.5448790000000  0.4421230000000  0.3916880000000 1.0
C      1  0.4178500000000  0.5427740000000  0.5335100000000 1.0
C      1  0.5329650000000  0.4322500000000  0.5042690000000 1.0
C      1  0.5717160000000  0.5755550000000  0.4980330000000 1.0
C      1  0.5185810000000  0.4786630000000  0.5172490000000 1.0
C      1  0.4391260000000  0.6146330000000  0.4579570000000 1.0
C      1  0.5429680000000  0.4209720000000  0.4359900000000 1.0
C      1  0.4366390000000  0.5060550000000  0.4186840000000 1.0
C      1  0.4609650000000  0.4496690000000  0.3902030000000 1.0
C      1  0.4489200000000  0.6049480000000  0.4335480000000 1.0
C      1  0.4988150000000  0.3995920000000  0.4285840000000 1.0
C      1  0.5495490000000  0.4494910000000  0.5678230000000 1.0
C      1  0.4959780000000  0.3883790000000  0.4833150000000 1.0
C      1  0.4818840000000  0.5856470000000  0.5393600000000 1.0
C      1  0.6183860000000  0.5056880000000  0.5138920000000 1.0
C      1  0.4997420000000  0.5466650000000  0.5843550000000 1.0
C      1  0.5540100000000  0.5165010000000  0.4111310000000 1.0
C      1  0.4977560000000  0.5280770000000  0.4715090000000 1.0
C      1  0.4477040000000  0.4082720000000  0.5025210000000 1.0
C      1  0.4941270000000  0.5373530000000  0.6105590000000 1.0
C      1  0.4886950000000  0.4515310000000  0.4690780000000 1.0
C      1  0.4557550000000  0.5504930000000  0.4103260000000 1.0
C      1  0.5234370000000  0.3999120000000  0.4426180000000 1.0
C      1  0.5248200000000  0.5280350000000  0.4103890000000 1.0
C      1  0.5374840000000  0.4600720000000  0.5053040000000 1.0
C      1  0.5347970000000  0.4402730000000  0.4168680000000 1.0
C      1  0.4690390000000  0.4116770000000  0.5712890000000 1.0
C      1  0.4428950000000  0.5926160000000  0.5052260000000 1.0
C      1  0.4985780000000  0.5832160000000  0.4801210000000 1.0
C      1  0.5028770000000  0.5249820000000  0.5660510000000 1.0
C      1  0.5658700000000  0.4585950000000  0.4644830000000 1.0
C      1  0.5026280000000  0.4223730000000  0.5404320000000 1.0
C      1  0.4092600000000  0.5683910000000  0.4792410000000 1.0
C      1  0.5881470000000  0.5551020000000  0.4341600000000 1.0
C      1  0.5192630000000  0.4843110000000  0.4315900000000 1.0
C      1  0.5249760000000  0.5851430000000  0.5977030000000 1.0
C      1  0.4573400000000  0.4911310000000  0.4665510000000 1.0
C      1  0.4091200000000  0.5418420000000  0.3989320000000 1.0
C      1  0.4715910000000  0.4585930000000  0.5516730000000 1.0
C      1  0.5970160000000  0.5341030000000  0.4834930000000 1.0
C      1  0.4546080000000  0.4350530000000  0.5625930000000 1.0
C      1  0.5069100000000  0.4253770000000  0.5129640000000 1.0
C      1  0.6182080000000  0.4609680000000  0.4792290000000 1.0
C      1  0.4793490000000  0.5647010000000  0.4197150000000 1.0
C      1  0.5663110000000  0.5318410000000  0.5361780000000 1.0
C      1  0.5827430000000  0.4786350000000  0.4486100000000 1.0
C      1  0.5337150000000  0.5715240000000  0.5366230000000 1.0
C      1  0.5597370000000  0.4701280000000  0.4909280000000 1.0
C      1  0.5422520000000  0.5925400000000  0.4631870000000 1.0
C      1  0.4620030000000  0.4980640000000  0.4078730000000 1.0
C      1  0.4633990000000  0.4762580000000  0.3907670000000 1.0
C      1  0.4381410000000  0.4831470000000  0.4906100000000 1.0
C      1  0.4920380000000  0.5391820000000  0.4991740000000 1.0
C      1  0.4162060000000  0.5843050000000  0.4996980000000 1.0
C      1  0.5242990000000  0.5139580000000  0.6389690000000 1.0
C      1  0.5008540000000  0.4911670000000  0.5999860000000 1.0
C      1  0.4928250000000  0.4450470000000  0.4415220000000 1.0
C      1  0.5309430000000  0.5008520000000  0.5303140000000 1.0
C      1  0.5405990000000  0.5345450000000  0.6449910000000 1.0
C      1  0.5221000000000  0.5236230000000  0.5459900000000 1.0
C      1  0.3788700000000  0.5168130000000  0.4469200000000 1.0
C      1  0.4472630000000  0.5277610000000  0.4978990000000 1.0
C      1  0.4103270000000  0.4281540000000  0.4435040000000 1.0
C      1  0.4355200000000  0.4899750000000  0.4431380000000 1.0
C      1  0.5553010000000  0.4317090000000  0.4601920000000 1.0
C      1  0.5691040000000  0.5563660000000  0.4536470000000 1.0
C      1  0.5416540000000  0.5447680000000  0.5435800000000 1.0
C      1  0.4309650000000  0.4285830000000  0.5476370000000 1.0
C      1  0.4435770000000  0.5258960000000  0.5793890000000 1.0
END
