TITL C-627113-6568-480 -8.07284601424698e-07 125000 -533.350768734642 0 0 87 (C1) n - 1
REM
REM in /home/nfs/bkarasulu/CARBON/AIRSS/Generating-Clusters/LCBOP/Only-C1/SD-CG/FIRE-CG
REM
REM
REM
REM
REM
REM ./C.cell (11c1c37f851c82e70ff6c80c92926a4b)
REM AIRSS Version 0.9.1 bugfix July 2018 build 013d7b7c2542+ Fri, 06 Jul 2018 19:26:36 +0100
REM compiler GCC version 9.2.1 20190827 (Red Hat 9.2.1-1)
REM options -cpp -mtune=generic -march=x86-64 -g -O0 -fpre-include=/usr/include/finclude/math-vector-fortran.h
REM seed -1369224254 253741988 -101978311 533185367 -1086630969 407618675 -1700497385 1486350947 276279872 1477966074 503898868 -378920242 -512245096 1628265073 -363914625 -2099405974 1345740381 -2029699382 1709475306 -543579770 1034392093 -2026054681 -1466864838 1092078979 1893279992 -757321681 -1806421880 -236369616 1337518806 15165369 1365464619 1591666433 -1244517701
REM
CELL 1.54180   50.00000   50.00000   50.00000   90.00000   90.00000   90.00000
LATT -1
SFAC C  
C      1  0.5043010000000  0.4416120000000  0.4729460000000 1.0
C      1  0.5687610000000  0.5338260000000  0.5278810000000 1.0
C      1  0.4892500000000  0.4327750000000  0.5536840000000 1.0
C      1  0.5217800000000  0.4848840000000  0.5453110000000 1.0
C      1  0.4586540000000  0.4958290000000  0.4376050000000 1.0
C      1  0.4858120000000  0.4499300000000  0.5772150000000 1.0
C      1  0.4181880000000  0.4684810000000  0.4421420000000 1.0
C      1  0.5803120000000  0.4778560000000  0.5071590000000 1.0
C      1  0.5028020000000  0.5507290000000  0.4661590000000 1.0
C      1  0.5859420000000  0.5487270000000  0.5106000000000 1.0
C      1  0.5442780000000  0.4664810000000  0.4224070000000 1.0
C      1  0.5637230000000  0.5383590000000  0.4549800000000 1.0
C      1  0.4998990000000  0.5323100000000  0.4875900000000 1.0
C      1  0.5305000000000  0.5137030000000  0.4085230000000 1.0
C      1  0.4188460000000  0.5589050000000  0.5007230000000 1.0
C      1  0.4181420000000  0.5589890000000  0.5299700000000 1.0
C      1  0.4551700000000  0.4791060000000  0.5245450000000 1.0
C      1  0.5372150000000  0.5758740000000  0.4852670000000 1.0
C      1  0.5603320000000  0.4880820000000  0.4895140000000 1.0
C      1  0.5266530000000  0.5123760000000  0.5418680000000 1.0
C      1  0.5667720000000  0.5118870000000  0.4500740000000 1.0
C      1  0.4978930000000  0.4730900000000  0.4257190000000 1.0
C      1  0.4438910000000  0.5553110000000  0.5396990000000 1.0
C      1  0.5271680000000  0.5159980000000  0.5869240000000 1.0
C      1  0.5470160000000  0.4637830000000  0.4504610000000 1.0
C      1  0.4792180000000  0.4628390000000  0.5151640000000 1.0
C      1  0.5102990000000  0.5767120000000  0.4759030000000 1.0
C      1  0.4739260000000  0.4361540000000  0.5293540000000 1.0
C      1  0.5778050000000  0.5749300000000  0.5076340000000 1.0
C      1  0.5549910000000  0.4382150000000  0.5194100000000 1.0
C      1  0.5451710000000  0.5186540000000  0.5215440000000 1.0
C      1  0.4615810000000  0.5877990000000  0.4821320000000 1.0
C      1  0.4585030000000  0.4481840000000  0.4269250000000 1.0
C      1  0.5041430000000  0.4671530000000  0.5918840000000 1.0
C      1  0.4430090000000  0.4727000000000  0.4297000000000 1.0
C      1  0.4545540000000  0.4199220000000  0.5170660000000 1.0
C      1  0.4182170000000  0.4769660000000  0.4886860000000 1.0
C      1  0.5489860000000  0.4360440000000  0.4915880000000 1.0
C      1  0.5636880000000  0.5519220000000  0.5506110000000 1.0
C      1  0.5615420000000  0.4862710000000  0.4616450000000 1.0
C      1  0.4201920000000  0.4580290000000  0.4683370000000 1.0
C      1  0.4077260000000  0.5374280000000  0.4583700000000 1.0
C      1  0.4296350000000  0.4819030000000  0.5130860000000 1.0
C      1  0.5184790000000  0.5307360000000  0.5623880000000 1.0
C      1  0.4842870000000  0.5393930000000  0.5098100000000 1.0
C      1  0.4911630000000  0.4633810000000  0.4868830000000 1.0
C      1  0.6068070000000  0.4836130000000  0.5038320000000 1.0
C      1  0.5303010000000  0.4576140000000  0.5846900000000 1.0
C      1  0.5391330000000  0.5048560000000  0.4977740000000 1.0
C      1  0.4508530000000  0.5227660000000  0.4339710000000 1.0
C      1  0.4366110000000  0.5027140000000  0.5640410000000 1.0
C      1  0.4854010000000  0.4247640000000  0.4600380000000 1.0
C      1  0.5664840000000  0.4723390000000  0.5546210000000 1.0
C      1  0.5713310000000  0.4610100000000  0.5283880000000 1.0
C      1  0.4398110000000  0.4205190000000  0.4946510000000 1.0
C      1  0.5017540000000  0.4741960000000  0.5304820000000 1.0
C      1  0.5574760000000  0.5156760000000  0.5845690000000 1.0
C      1  0.4066460000000  0.5373160000000  0.4863290000000 1.0
C      1  0.5489230000000  0.5790850000000  0.5121240000000 1.0
C      1  0.4589930000000  0.4317430000000  0.4508650000000 1.0
C      1  0.5086680000000  0.4957280000000  0.5969240000000 1.0
C      1  0.5334080000000  0.4450520000000  0.4692900000000 1.0
C      1  0.5732290000000  0.4935740000000  0.5732860000000 1.0
C      1  0.5399600000000  0.4885540000000  0.4073050000000 1.0
C      1  0.4375430000000  0.4347580000000  0.4704510000000 1.0
C      1  0.4983530000000  0.5440580000000  0.4388680000000 1.0
C      1  0.4958080000000  0.4879900000000  0.4729180000000 1.0
C      1  0.4836700000000  0.4527150000000  0.4145810000000 1.0
C      1  0.5384590000000  0.4233000000000  0.5370060000000 1.0
C      1  0.4569470000000  0.4902890000000  0.5510030000000 1.0
C      1  0.4136410000000  0.5084140000000  0.5506720000000 1.0
C      1  0.5415940000000  0.5693720000000  0.5396790000000 1.0
C      1  0.4116550000000  0.5026360000000  0.5233330000000 1.0
C      1  0.4879150000000  0.5936240000000  0.4788520000000 1.0
C      1  0.4247380000000  0.5312530000000  0.4388280000000 1.0
C      1  0.5127430000000  0.5073210000000  0.4854800000000 1.0
C      1  0.5185370000000  0.5582940000000  0.5536590000000 1.0
C      1  0.4857760000000  0.4893210000000  0.4458800000000 1.0
C      1  0.5391030000000  0.4684590000000  0.5605500000000 1.0
C      1  0.5179350000000  0.5335340000000  0.4214810000000 1.0
C      1  0.5146960000000  0.4205420000000  0.5493830000000 1.0
C      1  0.4715330000000  0.5414330000000  0.4307860000000 1.0
C      1  0.4625020000000  0.5547230000000  0.5176960000000 1.0
C      1  0.4018450000000  0.5127170000000  0.4995340000000 1.0
C      1  0.5674900000000  0.5414860000000  0.5765250000000 1.0
C      1  0.5542660000000  0.5606410000000  0.4669640000000 1.0
C      1  0.4470460000000  0.5677640000000  0.4956030000000 1.0
END
