TITL C-627110-360-1596 0.000161870257023359 125000 -327.752267311439 0 0 55 (C1) n - 1
REM
REM in /home/nfs/bkarasulu/CARBON/AIRSS/Generating-Clusters/LCBOP/Only-C1/SD-CG/FIRE-CG
REM
REM
REM
REM
REM
REM ./C.cell (11c1c37f851c82e70ff6c80c92926a4b)
REM AIRSS Version 0.9.1 bugfix July 2018 build 013d7b7c2542+ Fri, 06 Jul 2018 19:26:36 +0100
REM compiler GCC version 9.2.1 20190827 (Red Hat 9.2.1-1)
REM options -cpp -mtune=generic -march=x86-64 -g -O0 -fpre-include=/usr/include/finclude/math-vector-fortran.h
REM seed -1381092089 -1871682065 -18603057 -1315241339 1613134189 -888199115 -585159999 189236724 -62205148 1807051744 -1812024653 -1888744860 -427548823 -2100963043 -514219137 2083273746 981782413 -1161117098 -1431451286 -942456968 1334002289 -359519434 1030834818 -1125486811 509443109 -843159110 -1061299196 -2054081569 1377710075 -306212341 -220900119 1933720822 132302048
REM
CELL 1.54180   50.00000   50.00000   50.00000   90.00000   90.00000   90.00000
LATT -1
SFAC C  
C      1  0.3986690000000  0.5838430000000  0.5187290000000 1.0
C      1  0.5555510000000  0.4773710000000  0.4652810000000 1.0
C      1  0.5016410000000  0.4661930000000  0.4441080000000 1.0
C      1  0.5539900000000  0.4398580000000  0.4004890000000 1.0
C      1  0.5014350000000  0.5189540000000  0.4975920000000 1.0
C      1  0.4397240000000  0.4514380000000  0.5429280000000 1.0
C      1  0.4458740000000  0.4681990000000  0.4717460000000 1.0
C      1  0.5186040000000  0.5481640000000  0.5902100000000 1.0
C      1  0.4147160000000  0.5638190000000  0.5049630000000 1.0
C      1  0.5299110000000  0.5246580000000  0.5953030000000 1.0
C      1  0.5469680000000  0.4647060000000  0.5587380000000 1.0
C      1  0.4599690000000  0.5483810000000  0.5161110000000 1.0
C      1  0.4618450000000  0.4884220000000  0.4609430000000 1.0
C      1  0.5353920000000  0.4959740000000  0.4717400000000 1.0
C      1  0.4248800000000  0.4732120000000  0.5371320000000 1.0
C      1  0.6188570000000  0.4655590000000  0.4345580000000 1.0
C      1  0.4619790000000  0.4897340000000  0.5812000000000 1.0
C      1  0.4218690000000  0.5218620000000  0.5290640000000 1.0
C      1  0.4303600000000  0.4473510000000  0.4769190000000 1.0
C      1  0.4612230000000  0.4477310000000  0.5587970000000 1.0
C      1  0.6306280000000  0.4915240000000  0.4324440000000 1.0
C      1  0.5755220000000  0.4724990000000  0.4851640000000 1.0
C      1  0.4149970000000  0.4267150000000  0.4811360000000 1.0
C      1  0.5340940000000  0.4988050000000  0.5907990000000 1.0
C      1  0.4272060000000  0.5000980000000  0.5456020000000 1.0
C      1  0.4210180000000  0.5531670000000  0.4559310000000 1.0
C      1  0.4499010000000  0.5107300000000  0.4491640000000 1.0
C      1  0.5980250000000  0.4572780000000  0.4178580000000 1.0
C      1  0.4757470000000  0.4657690000000  0.5750460000000 1.0
C      1  0.6027010000000  0.4769610000000  0.4789300000000 1.0
C      1  0.4317550000000  0.5446410000000  0.5160870000000 1.0
C      1  0.4714200000000  0.5654170000000  0.5352040000000 1.0
C      1  0.5213650000000  0.5241820000000  0.5167290000000 1.0
C      1  0.5274420000000  0.4410690000000  0.4078890000000 1.0
C      1  0.4899480000000  0.4855560000000  0.4608640000000 1.0
C      1  0.5682350000000  0.4638260000000  0.5107010000000 1.0
C      1  0.5080290000000  0.5011150000000  0.4765170000000 1.0
C      1  0.5245200000000  0.4558360000000  0.4323940000000 1.0
C      1  0.6154700000000  0.4577940000000  0.4619650000000 1.0
C      1  0.4769740000000  0.5322510000000  0.5006530000000 1.0
C      1  0.3850130000000  0.5994540000000  0.5002450000000 1.0
C      1  0.4354590000000  0.5328330000000  0.4469380000000 1.0
C      1  0.4863110000000  0.5707000000000  0.5565570000000 1.0
C      1  0.5705680000000  0.4534840000000  0.4198030000000 1.0
C      1  0.5595410000000  0.4613350000000  0.5356250000000 1.0
C      1  0.5287930000000  0.4747970000000  0.5773890000000 1.0
C      1  0.4097250000000  0.5683390000000  0.4760710000000 1.0
C      1  0.6140590000000  0.5030130000000  0.4757720000000 1.0
C      1  0.3912400000000  0.5906700000000  0.4746470000000 1.0
C      1  0.5427220000000  0.5304080000000  0.5303080000000 1.0
C      1  0.4422370000000  0.5036340000000  0.5693440000000 1.0
C      1  0.5031470000000  0.4637460000000  0.5794740000000 1.0
C      1  0.6275770000000  0.5095170000000  0.4528650000000 1.0
C      1  0.5521440000000  0.4628290000000  0.4410400000000 1.0
C      1  0.5030120000000  0.5645820000000  0.5762970000000 1.0
END
