TITL C-627111-6168-1759 0.830536401787651 125000 -381.162963573127 0 0 64 (C1) n - 1
REM
REM in /home/nfs/bkarasulu/CARBON/AIRSS/Generating-Clusters/LCBOP/Only-C1/SD-CG/FIRE-CG
REM
REM
REM
REM
REM
REM ./C.cell (11c1c37f851c82e70ff6c80c92926a4b)
REM AIRSS Version 0.9.1 bugfix July 2018 build 013d7b7c2542+ Fri, 06 Jul 2018 19:26:36 +0100
REM compiler GCC version 9.2.1 20190827 (Red Hat 9.2.1-1)
REM options -cpp -mtune=generic -march=x86-64 -g -O0 -fpre-include=/usr/include/finclude/math-vector-fortran.h
REM seed -150531270 74577337 -168433014 207833104 -2134415420 -1503697390 606824550 1979380667 1527711434 781367295 101456151 -2008777322 -372817787 1409638104 350842888 -828298277 -1228650814 263906777 1013765428 -338840279 -119047698 1810156854 800019838 1070133227 -920964685 349930699 -2097116882 307186906 -1177490795 1723343320 -1664737819 1358724116 -1353444030
REM
CELL 1.54180   50.00000   50.00000   50.00000   90.00000   90.00000   90.00000
LATT -1
SFAC C  
C      1  0.4316470000000  0.5242770000000  0.5196900000000 1.0
C      1  0.4829030000000  0.4873070000000  0.6494620000000 1.0
C      1  0.4460460000000  0.5151210000000  0.6149600000000 1.0
C      1  0.5328430000000  0.5505470000000  0.4733940000000 1.0
C      1  0.5721920000000  0.4603520000000  0.4607920000000 1.0
C      1  0.4791450000000  0.4032290000000  0.4953180000000 1.0
C      1  0.4583770000000  0.5030780000000  0.5926300000000 1.0
C      1  0.5091910000000  0.4437210000000  0.4345260000000 1.0
C      1  0.4803830000000  0.4788360000000  0.3850000000000 1.0
C      1  0.4613010000000  0.4397750000000  0.4352540000000 1.0
C      1  0.5479020000000  0.4666850000000  0.4138170000000 1.0
C      1  0.4495730000000  0.4507330000000  0.4138060000000 1.0
C      1  0.4662440000000  0.5404470000000  0.4293880000000 1.0
C      1  0.5217480000000  0.4510650000000  0.5357270000000 1.0
C      1  0.5982470000000  0.5289180000000  0.4874960000000 1.0
C      1  0.5743340000000  0.5108370000000  0.5443140000000 1.0
C      1  0.4582540000000  0.4883180000000  0.4726500000000 1.0
C      1  0.5769350000000  0.5171460000000  0.5694640000000 1.0
C      1  0.5174510000000  0.5630330000000  0.4557350000000 1.0
C      1  0.5460560000000  0.4621740000000  0.5274560000000 1.0
C      1  0.4796200000000  0.4746010000000  0.4844380000000 1.0
C      1  0.5113180000000  0.5950850000000  0.4184070000000 1.0
C      1  0.5732610000000  0.5231810000000  0.4971430000000 1.0
C      1  0.4333350000000  0.5234610000000  0.4931650000000 1.0
C      1  0.5079320000000  0.5977150000000  0.3915310000000 1.0
C      1  0.5113390000000  0.5455690000000  0.5551580000000 1.0
C      1  0.5075020000000  0.5275210000000  0.5367460000000 1.0
C      1  0.4985620000000  0.5768310000000  0.3767950000000 1.0
C      1  0.5643860000000  0.4603720000000  0.4354360000000 1.0
C      1  0.4458100000000  0.5133110000000  0.4702650000000 1.0
C      1  0.4490530000000  0.5089470000000  0.5669830000000 1.0
C      1  0.4588440000000  0.5126540000000  0.7142810000000 1.0
C      1  0.4853840000000  0.4477430000000  0.4772050000000 1.0
C      1  0.5632240000000  0.4768790000000  0.5109580000000 1.0
C      1  0.5077920000000  0.4343330000000  0.5181640000000 1.0
C      1  0.4803140000000  0.4851260000000  0.5973590000000 1.0
C      1  0.4542880000000  0.5207080000000  0.7660370000000 1.0
C      1  0.4563950000000  0.4670150000000  0.3936080000000 1.0
C      1  0.5718180000000  0.4658690000000  0.4867300000000 1.0
C      1  0.4611390000000  0.5085970000000  0.6882060000000 1.0
C      1  0.4635420000000  0.5043480000000  0.6608990000000 1.0
C      1  0.5049700000000  0.5709900000000  0.4321490000000 1.0
C      1  0.4929750000000  0.5516600000000  0.3888480000000 1.0
C      1  0.5508550000000  0.5364800000000  0.4868910000000 1.0
C      1  0.4878770000000  0.5531200000000  0.4172450000000 1.0
C      1  0.4937600000000  0.4721340000000  0.5766430000000 1.0
C      1  0.4509070000000  0.5287520000000  0.4476030000000 1.0
C      1  0.5029880000000  0.5084880000000  0.5188620000000 1.0
C      1  0.5556650000000  0.4859250000000  0.3949100000000 1.0
C      1  0.4953570000000  0.4892150000000  0.5023370000000 1.0
C      1  0.5702010000000  0.5036410000000  0.5176350000000 1.0
C      1  0.4883250000000  0.4806920000000  0.6240380000000 1.0
C      1  0.4855310000000  0.4414190000000  0.4495380000000 1.0
C      1  0.5211180000000  0.4570660000000  0.4128650000000 1.0
C      1  0.5001950000000  0.5271300000000  0.3769170000000 1.0
C      1  0.5040630000000  0.4652240000000  0.3920340000000 1.0
C      1  0.4907440000000  0.4279510000000  0.4968890000000 1.0
C      1  0.4826190000000  0.5052280000000  0.3759180000000 1.0
C      1  0.4379020000000  0.5182940000000  0.5447960000000 1.0
C      1  0.4565470000000  0.5167140000000  0.7403740000000 1.0
C      1  0.5094900000000  0.4595900000000  0.5593660000000 1.0
C      1  0.4468760000000  0.5166260000000  0.6417290000000 1.0
C      1  0.5274500000000  0.5217930000000  0.3723350000000 1.0
C      1  0.5479520000000  0.5064040000000  0.3796860000000 1.0
END
