TITL C-627113-6568-643 -19074.6225240215 125000 -707.783659218366 0 0 118 (C1) n - 1
REM
REM in /home/nfs/bkarasulu/CARBON/AIRSS/Generating-Clusters/LCBOP/Only-C1/SD-CG/FIRE-CG
REM
REM
REM
REM
REM
REM ./C.cell (11c1c37f851c82e70ff6c80c92926a4b)
REM AIRSS Version 0.9.1 bugfix July 2018 build 013d7b7c2542+ Fri, 06 Jul 2018 19:26:36 +0100
REM compiler GCC version 9.2.1 20190827 (Red Hat 9.2.1-1)
REM options -cpp -mtune=generic -march=x86-64 -g -O0 -fpre-include=/usr/include/finclude/math-vector-fortran.h
REM seed -1414242011 802959107 -694477669 646677740 -1798835143 875960907 1618043112 -374651304 -1986626616 -973367710 -306295505 378147082 2019947479 -437264735 -1656810720 -140906385 -1305815725 246147117 -846038519 -1766376641 768726035 521707758 -2021376308 790655627 -807536763 217872232 1657115861 -2018428738 -1231133267 -1311651246 784021482 345608106 -270929070
REM
CELL 1.54180   50.00000   50.00000   50.00000   90.00000   90.00000   90.00000
LATT -1
SFAC C  
C      1  0.5693750000000  0.5841560000000  0.4970880000000 1.0
C      1  0.4585890000000  0.5019470000000  0.6174010000000 1.0
C      1  0.4929630000000  0.5536810000000  0.5824270000000 1.0
C      1  0.4238710000000  0.4674230000000  0.5677920000000 1.0
C      1  0.5532890000000  0.4495230000000  0.4331550000000 1.0
C      1  0.4915980000000  0.5909250000000  0.4836740000000 1.0
C      1  0.3906990000000  0.4838450000000  0.4637570000000 1.0
C      1  0.4192560000000  0.5419060000000  0.4435080000000 1.0
C      1  0.4835450000000  0.4861550000000  0.5777390000000 1.0
C      1  0.4888960000000  0.4410730000000  0.5663190000000 1.0
C      1  0.5669920000000  0.4743710000000  0.4357690000000 1.0
C      1  0.4302990000000  0.5650100000000  0.5663500000000 1.0
C      1  0.5232160000000  0.4185620000000  0.4578540000000 1.0
C      1  0.4376210000000  0.4807330000000  0.5203200000000 1.0
C      1  0.5165430000000  0.5060740000000  0.6082570000000 1.0
C      1  0.5167020000000  0.4408500000000  0.5727240000000 1.0
C      1  0.5869910000000  0.5642040000000  0.5025250000000 1.0
C      1  0.5276450000000  0.5533170000000  0.4629740000000 1.0
C      1  0.5102120000000  0.6171180000000  0.5215750000000 1.0
C      1  0.5054020000000  0.6174720000000  0.5479310000000 1.0
C      1  0.4619810000000  0.5391880000000  0.5124250000000 1.0
C      1  0.4857530000000  0.4282150000000  0.4210250000000 1.0
C      1  0.4071750000000  0.5592870000000  0.4870580000000 1.0
C      1  0.5406890000000  0.5926960000000  0.4361640000000 1.0
C      1  0.5184590000000  0.5675290000000  0.5144220000000 1.0
C      1  0.4423450000000  0.6049240000000  0.4497660000000 1.0
C      1  0.4686600000000  0.5273530000000  0.4646050000000 1.0
C      1  0.5817500000000  0.5363610000000  0.4560130000000 1.0
C      1  0.5384470000000  0.4288730000000  0.5581380000000 1.0
C      1  0.4645450000000  0.4443570000000  0.4185880000000 1.0
C      1  0.3857990000000  0.5758540000000  0.4911450000000 1.0
C      1  0.5278930000000  0.4662660000000  0.5830590000000 1.0
C      1  0.5798280000000  0.4814530000000  0.5246780000000 1.0
C      1  0.4143870000000  0.4866540000000  0.5056830000000 1.0
C      1  0.4054560000000  0.4701040000000  0.4845550000000 1.0
C      1  0.5248310000000  0.5502670000000  0.4924780000000 1.0
C      1  0.5492870000000  0.4329050000000  0.4570900000000 1.0
C      1  0.4139960000000  0.5392480000000  0.5060110000000 1.0
C      1  0.4084710000000  0.4898250000000  0.4417330000000 1.0
C      1  0.5201440000000  0.4642170000000  0.3963800000000 1.0
C      1  0.6092690000000  0.4703230000000  0.4901690000000 1.0
C      1  0.5187200000000  0.5571900000000  0.5411770000000 1.0
C      1  0.5795540000000  0.5110620000000  0.4645920000000 1.0
C      1  0.5336480000000  0.6159750000000  0.4268000000000 1.0
C      1  0.5555470000000  0.4686650000000  0.5741180000000 1.0
C      1  0.5078400000000  0.4197870000000  0.4336500000000 1.0
C      1  0.4656350000000  0.4066070000000  0.5116700000000 1.0
C      1  0.4658180000000  0.4925680000000  0.4260660000000 1.0
C      1  0.4448130000000  0.5812130000000  0.4631540000000 1.0
C      1  0.5731240000000  0.5145480000000  0.4029740000000 1.0
C      1  0.5947240000000  0.4496300000000  0.4788150000000 1.0
C      1  0.4682830000000  0.5465370000000  0.4855040000000 1.0
C      1  0.4795570000000  0.5245670000000  0.5273240000000 1.0
C      1  0.6011730000000  0.5415830000000  0.5076740000000 1.0
C      1  0.5637300000000  0.4881720000000  0.4602680000000 1.0
C      1  0.5328990000000  0.5105340000000  0.5246910000000 1.0
C      1  0.4360000000000  0.5429540000000  0.5235970000000 1.0
C      1  0.5374350000000  0.4487490000000  0.4097980000000 1.0
C      1  0.5615380000000  0.5026280000000  0.5249710000000 1.0
C      1  0.6040720000000  0.4893060000000  0.5111680000000 1.0
C      1  0.4806970000000  0.4680440000000  0.5534610000000 1.0
C      1  0.4785570000000  0.4064940000000  0.4748620000000 1.0
C      1  0.4370650000000  0.4301080000000  0.4806710000000 1.0
C      1  0.5729300000000  0.4902670000000  0.5784340000000 1.0
C      1  0.5600410000000  0.4476840000000  0.5535460000000 1.0
C      1  0.4198230000000  0.4452570000000  0.5527770000000 1.0
C      1  0.4041790000000  0.5129820000000  0.5060430000000 1.0
C      1  0.5333380000000  0.5327730000000  0.5457520000000 1.0
C      1  0.5542930000000  0.4485150000000  0.5038120000000 1.0
C      1  0.4261780000000  0.4300090000000  0.5312470000000 1.0
C      1  0.5788960000000  0.5156820000000  0.5672900000000 1.0
C      1  0.4740440000000  0.5226190000000  0.3889820000000 1.0
C      1  0.5038320000000  0.5970200000000  0.5650890000000 1.0
C      1  0.4880260000000  0.4531310000000  0.5083990000000 1.0
C      1  0.5455550000000  0.5670640000000  0.4457660000000 1.0
C      1  0.5246590000000  0.5227210000000  0.4987280000000 1.0
C      1  0.4987640000000  0.4685770000000  0.5294560000000 1.0
C      1  0.5096140000000  0.4869500000000  0.5900000000000 1.0
C      1  0.4415030000000  0.4217930000000  0.5087430000000 1.0
C      1  0.5233560000000  0.5076400000000  0.4743270000000 1.0
C      1  0.5689940000000  0.4551530000000  0.5277530000000 1.0
C      1  0.6018200000000  0.5191120000000  0.5503290000000 1.0
C      1  0.5122750000000  0.4013270000000  0.5065270000000 1.0
C      1  0.5163650000000  0.5954920000000  0.5023740000000 1.0
C      1  0.4263800000000  0.5169390000000  0.5644330000000 1.0
C      1  0.4280710000000  0.4674770000000  0.4434730000000 1.0
C      1  0.5559700000000  0.5321720000000  0.5632080000000 1.0
C      1  0.4710660000000  0.4214320000000  0.5744090000000 1.0
C      1  0.5744230000000  0.4897720000000  0.4132640000000 1.0
C      1  0.4244770000000  0.4531280000000  0.4697930000000 1.0
C      1  0.4688170000000  0.5742270000000  0.4775420000000 1.0
C      1  0.4309230000000  0.5418470000000  0.5517620000000 1.0
C      1  0.5016480000000  0.4833610000000  0.3947550000000 1.0
C      1  0.5692660000000  0.5400960000000  0.4106900000000 1.0
C      1  0.4510750000000  0.4676440000000  0.4267860000000 1.0
C      1  0.4900290000000  0.4002830000000  0.5228430000000 1.0
C      1  0.4136060000000  0.5168090000000  0.4356670000000 1.0
C      1  0.4801030000000  0.4818760000000  0.4688530000000 1.0
C      1  0.5676690000000  0.5513340000000  0.4365940000000 1.0
C      1  0.5674980000000  0.4390130000000  0.4799460000000 1.0
C      1  0.4232720000000  0.5617570000000  0.4633810000000 1.0
C      1  0.6076240000000  0.5172970000000  0.5217320000000 1.0
C      1  0.5213870000000  0.4822850000000  0.5209780000000 1.0
C      1  0.5204430000000  0.5266700000000  0.4534330000000 1.0
C      1  0.5353040000000  0.4690490000000  0.4984240000000 1.0
C      1  0.4820630000000  0.4602870000000  0.4836430000000 1.0
C      1  0.4545210000000  0.4730670000000  0.5395130000000 1.0
C      1  0.5460570000000  0.5979910000000  0.4934630000000 1.0
C      1  0.4569630000000  0.5135540000000  0.6406780000000 1.0
C      1  0.4717120000000  0.5024470000000  0.4521410000000 1.0
C      1  0.4342570000000  0.4923580000000  0.5760930000000 1.0
C      1  0.4804100000000  0.4999840000000  0.4028920000000 1.0
C      1  0.4571310000000  0.4019770000000  0.5847380000000 1.0
C      1  0.5051150000000  0.5690390000000  0.5633560000000 1.0
C      1  0.4553960000000  0.4158440000000  0.4638510000000 1.0
C      1  0.4590120000000  0.4933890000000  0.5908340000000 1.0
C      1  0.5070500000000  0.4076490000000  0.4791370000000 1.0
C      1  0.5394770000000  0.4850100000000  0.4749970000000 1.0
END
