TITL C-627108-131-2061 2.52451111654652e-06 125000 -1028.7087466091 0 0 169 (C1) n - 1
REM
REM in /home/nfs/bkarasulu/CARBON/AIRSS/Generating-Clusters/LCBOP/Only-C1/SD-CG/FIRE-CG
REM
REM
REM
REM
REM
REM ./C.cell (11c1c37f851c82e70ff6c80c92926a4b)
REM AIRSS Version 0.9.1 bugfix July 2018 build 013d7b7c2542+ Fri, 06 Jul 2018 19:26:36 +0100
REM compiler GCC version 9.2.1 20190827 (Red Hat 9.2.1-1)
REM options -cpp -mtune=generic -march=x86-64 -g -O0 -fpre-include=/usr/include/finclude/math-vector-fortran.h
REM seed 671006401 -1130600432 655673993 583965817 -1708215281 -882735624 1056960034 593908855 46443655 -299068489 1300018133 -888044254 1188584885 458358783 1329370360 664514525 -46047823 1775478086 43648556 -447740924 418322637 1850764449 1356432769 -1487380513 1678654370 1319688177 448766313 969822851 883577289 -1031716488 -1786354403 -344877861 1325473028
REM
CELL 1.54180   50.00000   50.00000   50.00000   90.00000   90.00000   90.00000
LATT -1
SFAC C  
C      1  0.4623470000000  0.5855600000000  0.5388080000000 1.0
C      1  0.5056820000000  0.4064600000000  0.4509510000000 1.0
C      1  0.3877490000000  0.4481590000000  0.5900600000000 1.0
C      1  0.4922460000000  0.4977820000000  0.3911420000000 1.0
C      1  0.5942680000000  0.5170690000000  0.5220080000000 1.0
C      1  0.5914780000000  0.4526000000000  0.5187620000000 1.0
C      1  0.5601400000000  0.4333010000000  0.5683470000000 1.0
C      1  0.5895840000000  0.4303870000000  0.4990990000000 1.0
C      1  0.5749150000000  0.4796000000000  0.4704540000000 1.0
C      1  0.5063850000000  0.4755360000000  0.4983680000000 1.0
C      1  0.4250240000000  0.4300540000000  0.5418900000000 1.0
C      1  0.4973040000000  0.5144950000000  0.4813780000000 1.0
C      1  0.4262690000000  0.5259000000000  0.4154830000000 1.0
C      1  0.5424330000000  0.5288420000000  0.4722910000000 1.0
C      1  0.4759350000000  0.4646150000000  0.5358920000000 1.0
C      1  0.4532250000000  0.5319640000000  0.4026120000000 1.0
C      1  0.5436060000000  0.4115460000000  0.4957100000000 1.0
C      1  0.5492010000000  0.5048690000000  0.4283730000000 1.0
C      1  0.5025060000000  0.4964710000000  0.5625190000000 1.0
C      1  0.4789720000000  0.5350180000000  0.4906720000000 1.0
C      1  0.6258350000000  0.4962320000000  0.4872680000000 1.0
C      1  0.4474210000000  0.4360880000000  0.5612890000000 1.0
C      1  0.6308840000000  0.5484390000000  0.4958380000000 1.0
C      1  0.4594240000000  0.5946810000000  0.4499800000000 1.0
C      1  0.4760400000000  0.4893750000000  0.5499200000000 1.0
C      1  0.4546240000000  0.5690370000000  0.4603430000000 1.0
C      1  0.5350260000000  0.4382950000000  0.4963910000000 1.0
C      1  0.5664650000000  0.5210330000000  0.5227020000000 1.0
C      1  0.4601320000000  0.4045760000000  0.5118300000000 1.0
C      1  0.4566350000000  0.4967070000000  0.4477350000000 1.0
C      1  0.4401500000000  0.3876610000000  0.4245390000000 1.0
C      1  0.5366080000000  0.5085060000000  0.4530000000000 1.0
C      1  0.4333220000000  0.4111370000000  0.5209480000000 1.0
C      1  0.4471800000000  0.6173760000000  0.4610590000000 1.0
C      1  0.4755920000000  0.5575750000000  0.5987090000000 1.0
C      1  0.4359650000000  0.4656950000000  0.4921020000000 1.0
C      1  0.4646520000000  0.5048170000000  0.3942590000000 1.0
C      1  0.5626810000000  0.4799170000000  0.5462610000000 1.0
C      1  0.5380720000000  0.4381710000000  0.4026110000000 1.0
C      1  0.4728040000000  0.5533670000000  0.4074620000000 1.0
C      1  0.5100500000000  0.5667780000000  0.5438760000000 1.0
C      1  0.4751230000000  0.5594780000000  0.6260490000000 1.0
C      1  0.4949920000000  0.5431560000000  0.4220550000000 1.0
C      1  0.5061170000000  0.6071320000000  0.4486790000000 1.0
C      1  0.4710440000000  0.3928250000000  0.4878880000000 1.0
C      1  0.6280380000000  0.5394080000000  0.4684940000000 1.0
C      1  0.4983640000000  0.3978200000000  0.4789290000000 1.0
C      1  0.4928340000000  0.6240170000000  0.4999820000000 1.0
C      1  0.6080890000000  0.5642780000000  0.5375880000000 1.0
C      1  0.4348740000000  0.5001230000000  0.5275970000000 1.0
C      1  0.4724290000000  0.4727700000000  0.4416370000000 1.0
C      1  0.5760190000000  0.4562580000000  0.4304310000000 1.0
C      1  0.5449320000000  0.5206660000000  0.5998890000000 1.0
C      1  0.6298840000000  0.5572090000000  0.4477780000000 1.0
C      1  0.5707680000000  0.4797130000000  0.5906400000000 1.0
C      1  0.5179260000000  0.3865080000000  0.5264970000000 1.0
C      1  0.5332180000000  0.5973410000000  0.4504810000000 1.0
C      1  0.5940380000000  0.4955910000000  0.5811410000000 1.0
C      1  0.5732000000000  0.4012770000000  0.5340240000000 1.0
C      1  0.4680550000000  0.5431980000000  0.4643550000000 1.0
C      1  0.5529940000000  0.5063030000000  0.5443510000000 1.0
C      1  0.5475240000000  0.4918250000000  0.6038000000000 1.0
C      1  0.5078240000000  0.6137170000000  0.5220330000000 1.0
C      1  0.4968140000000  0.5456210000000  0.4499250000000 1.0
C      1  0.3955730000000  0.5629520000000  0.4831820000000 1.0
C      1  0.3855400000000  0.4480480000000  0.5634380000000 1.0
C      1  0.4000310000000  0.4452220000000  0.5393280000000 1.0
C      1  0.4827610000000  0.5964090000000  0.4331930000000 1.0
C      1  0.4760770000000  0.5969490000000  0.3840510000000 1.0
C      1  0.6086310000000  0.4974970000000  0.4428650000000 1.0
C      1  0.6231480000000  0.5113070000000  0.4635160000000 1.0
C      1  0.4142410000000  0.5477600000000  0.5279380000000 1.0
C      1  0.5086130000000  0.5022110000000  0.4565860000000 1.0
C      1  0.4286770000000  0.5120320000000  0.4808870000000 1.0
C      1  0.3842080000000  0.4719880000000  0.4909880000000 1.0
C      1  0.5902990000000  0.5240610000000  0.5820160000000 1.0
C      1  0.5249160000000  0.5514850000000  0.5224090000000 1.0
C      1  0.4560680000000  0.5717340000000  0.5832560000000 1.0
C      1  0.5738780000000  0.5462390000000  0.5729630000000 1.0
C      1  0.6395980000000  0.5278340000000  0.5406590000000 1.0
C      1  0.5143160000000  0.4268300000000  0.4076680000000 1.0
C      1  0.5521890000000  0.5894080000000  0.4953710000000 1.0
C      1  0.4551080000000  0.3765690000000  0.4713500000000 1.0
C      1  0.5392440000000  0.4850020000000  0.4110090000000 1.0
C      1  0.4479780000000  0.4107400000000  0.4134360000000 1.0
C      1  0.4656030000000  0.6315340000000  0.5032230000000 1.0
C      1  0.4410730000000  0.5845490000000  0.5198360000000 1.0
C      1  0.4436800000000  0.3740710000000  0.4473240000000 1.0
C      1  0.4219180000000  0.4961080000000  0.4122130000000 1.0
C      1  0.5625700000000  0.4869420000000  0.4940820000000 1.0
C      1  0.6284810000000  0.5489880000000  0.5245410000000 1.0
C      1  0.4671710000000  0.4308610000000  0.4179600000000 1.0
C      1  0.5434890000000  0.5676760000000  0.5085140000000 1.0
C      1  0.4958600000000  0.5419180000000  0.5858740000000 1.0
C      1  0.3776160000000  0.4832720000000  0.3984880000000 1.0
C      1  0.4808920000000  0.5630480000000  0.5328190000000 1.0
C      1  0.5203330000000  0.4570360000000  0.4821520000000 1.0
C      1  0.5546680000000  0.4086600000000  0.5544140000000 1.0
C      1  0.4657820000000  0.5928110000000  0.5661740000000 1.0
C      1  0.5002390000000  0.6219520000000  0.4726530000000 1.0
C      1  0.4342430000000  0.4925460000000  0.5007400000000 1.0
C      1  0.6132520000000  0.4854120000000  0.5603290000000 1.0
C      1  0.5872590000000  0.4785770000000  0.4451410000000 1.0
C      1  0.3988450000000  0.5429370000000  0.4616810000000 1.0
C      1  0.4336850000000  0.4422250000000  0.6078770000000 1.0
C      1  0.5103160000000  0.4865760000000  0.4100270000000 1.0
C      1  0.5589440000000  0.4110680000000  0.4428670000000 1.0
C      1  0.3964110000000  0.4596070000000  0.4679070000000 1.0
C      1  0.4435100000000  0.6211480000000  0.4888780000000 1.0
C      1  0.5295130000000  0.3956450000000  0.5496590000000 1.0
C      1  0.4959750000000  0.5133160000000  0.5875000000000 1.0
C      1  0.5102340000000  0.5033540000000  0.5032740000000 1.0
C      1  0.6124060000000  0.5017360000000  0.5096620000000 1.0
C      1  0.5871510000000  0.5633900000000  0.5547470000000 1.0
C      1  0.5930160000000  0.4319710000000  0.4707780000000 1.0
C      1  0.5373020000000  0.5702970000000  0.4449180000000 1.0
C      1  0.5205400000000  0.3942970000000  0.4989180000000 1.0
C      1  0.5647100000000  0.4678040000000  0.5191910000000 1.0
C      1  0.5557150000000  0.5159020000000  0.4960820000000 1.0
C      1  0.5237760000000  0.4531690000000  0.5438540000000 1.0
C      1  0.4937860000000  0.4209900000000  0.4270190000000 1.0
C      1  0.5213460000000  0.4790350000000  0.6100650000000 1.0
C      1  0.3887920000000  0.4583420000000  0.5161330000000 1.0
C      1  0.4101200000000  0.5412130000000  0.4346210000000 1.0
C      1  0.4467850000000  0.4824450000000  0.4032550000000 1.0
C      1  0.4520620000000  0.5033530000000  0.5478860000000 1.0
C      1  0.4312570000000  0.5595340000000  0.5758740000000 1.0
C      1  0.4915990000000  0.6054600000000  0.5678130000000 1.0
C      1  0.3925090000000  0.5512020000000  0.5098250000000 1.0
C      1  0.4150970000000  0.5499330000000  0.5563150000000 1.0
C      1  0.3822140000000  0.5001950000000  0.4872900000000 1.0
C      1  0.5487030000000  0.6047970000000  0.4733440000000 1.0
C      1  0.4988230000000  0.4849410000000  0.4364510000000 1.0
C      1  0.5187390000000  0.5534530000000  0.5713980000000 1.0
C      1  0.5707780000000  0.4093890000000  0.5069670000000 1.0
C      1  0.5097450000000  0.5978950000000  0.5461040000000 1.0
C      1  0.4013670000000  0.5177640000000  0.4757180000000 1.0
C      1  0.5176020000000  0.5228410000000  0.5226840000000 1.0
C      1  0.4771660000000  0.5826860000000  0.4074810000000 1.0
C      1  0.4735350000000  0.4527810000000  0.4636450000000 1.0
C      1  0.4545670000000  0.4403700000000  0.5892590000000 1.0
C      1  0.4603590000000  0.4594640000000  0.4170410000000 1.0
C      1  0.4485700000000  0.5191790000000  0.4615050000000 1.0
C      1  0.4708460000000  0.4389740000000  0.5451470000000 1.0
C      1  0.4278100000000  0.6006740000000  0.5007100000000 1.0
C      1  0.5642440000000  0.4616340000000  0.5692080000000 1.0
C      1  0.4672810000000  0.5458290000000  0.5138440000000 1.0
C      1  0.4280850000000  0.4235610000000  0.4670090000000 1.0
C      1  0.4067160000000  0.5889620000000  0.4851900000000 1.0
C      1  0.4784190000000  0.4166990000000  0.5298560000000 1.0
C      1  0.4215150000000  0.4485190000000  0.4750040000000 1.0
C      1  0.5457460000000  0.5434890000000  0.5812020000000 1.0
C      1  0.4392610000000  0.5550860000000  0.5157610000000 1.0
C      1  0.5339490000000  0.4019070000000  0.4459810000000 1.0
C      1  0.5245670000000  0.5502390000000  0.4605540000000 1.0
C      1  0.6084330000000  0.4631710000000  0.5407820000000 1.0
C      1  0.4831020000000  0.4658750000000  0.5094090000000 1.0
C      1  0.5407480000000  0.4501850000000  0.5212560000000 1.0
C      1  0.5134420000000  0.4672900000000  0.5662170000000 1.0
C      1  0.5010030000000  0.4996520000000  0.6120850000000 1.0
C      1  0.5082210000000  0.4581590000000  0.5932240000000 1.0
C      1  0.6338430000000  0.5045780000000  0.5534960000000 1.0
C      1  0.3928440000000  0.4684700000000  0.4414850000000 1.0
C      1  0.4823220000000  0.4456620000000  0.5966820000000 1.0
C      1  0.5534650000000  0.4599120000000  0.4119300000000 1.0
C      1  0.3974080000000  0.4825660000000  0.4174570000000 1.0
C      1  0.5247250000000  0.5098700000000  0.5468230000000 1.0
C      1  0.5781330000000  0.4315380000000  0.4460830000000 1.0
C      1  0.4071550000000  0.4456290000000  0.6083160000000 1.0
END
