TITL C-627110-360-706 1.2429303419494 125000 -494.422903693586 0 0 82 (C1) n - 1
REM
REM in /home/nfs/bkarasulu/CARBON/AIRSS/Generating-Clusters/LCBOP/Only-C1/SD-CG/FIRE-CG
REM
REM
REM
REM
REM
REM ./C.cell (11c1c37f851c82e70ff6c80c92926a4b)
REM AIRSS Version 0.9.1 bugfix July 2018 build 013d7b7c2542+ Fri, 06 Jul 2018 19:26:36 +0100
REM compiler GCC version 9.2.1 20190827 (Red Hat 9.2.1-1)
REM options -cpp -mtune=generic -march=x86-64 -g -O0 -fpre-include=/usr/include/finclude/math-vector-fortran.h
REM seed -6634550 -2097528059 -2084523649 1150849961 -2094993558 1704619435 244165338 -2104441145 253791750 894791588 -1393782276 111566837 1022353525 1768765036 1180995069 388491912 -687939781 -1444575857 -652548424 570609215 1420609006 1712653772 -1462149281 1973823624 -1017741896 -301614078 -259077014 -165768698 518353862 302359863 -518777244 1482316608 523119276
REM
CELL 1.54180   50.00000   50.00000   50.00000   90.00000   90.00000   90.00000
LATT -1
SFAC C  
C      1  0.5119720000000  0.5248770000000  0.4233990000000 1.0
C      1  0.4305420000000  0.5359920000000  0.4667030000000 1.0
C      1  0.4776350000000  0.5152000000000  0.5230850000000 1.0
C      1  0.4749970000000  0.5611700000000  0.5542870000000 1.0
C      1  0.5486270000000  0.4706840000000  0.5815490000000 1.0
C      1  0.5026660000000  0.5497930000000  0.4386480000000 1.0
C      1  0.5204300000000  0.5628170000000  0.4580380000000 1.0
C      1  0.4195680000000  0.5302550000000  0.5320570000000 1.0
C      1  0.5802910000000  0.4924370000000  0.4758370000000 1.0
C      1  0.5226800000000  0.4341280000000  0.5695560000000 1.0
C      1  0.5409880000000  0.5456880000000  0.4680900000000 1.0
C      1  0.5366860000000  0.5155720000000  0.4674780000000 1.0
C      1  0.5940250000000  0.4695350000000  0.4859830000000 1.0
C      1  0.4495130000000  0.5358330000000  0.4448880000000 1.0
C      1  0.4716320000000  0.5599460000000  0.5077440000000 1.0
C      1  0.5388750000000  0.4400100000000  0.4556920000000 1.0
C      1  0.4732720000000  0.4955560000000  0.5659080000000 1.0
C      1  0.5523240000000  0.5086600000000  0.4413900000000 1.0
C      1  0.4283470000000  0.4794500000000  0.5721740000000 1.0
C      1  0.4433650000000  0.5646970000000  0.5059460000000 1.0
C      1  0.4857310000000  0.5272100000000  0.4761310000000 1.0
C      1  0.5138230000000  0.5806490000000  0.5304490000000 1.0
C      1  0.4139360000000  0.5153880000000  0.5086740000000 1.0
C      1  0.4952410000000  0.5054050000000  0.4368900000000 1.0
C      1  0.4959170000000  0.4819810000000  0.4797360000000 1.0
C      1  0.5328250000000  0.4500990000000  0.5912990000000 1.0
C      1  0.4341080000000  0.5248220000000  0.5573830000000 1.0
C      1  0.4416310000000  0.4533140000000  0.5319170000000 1.0
C      1  0.5398620000000  0.4712730000000  0.4913610000000 1.0
C      1  0.4987910000000  0.4222900000000  0.4854360000000 1.0
C      1  0.5174320000000  0.5497580000000  0.5342670000000 1.0
C      1  0.4963950000000  0.4285580000000  0.5605440000000 1.0
C      1  0.5620350000000  0.5564260000000  0.4834130000000 1.0
C      1  0.4270090000000  0.4585360000000  0.5554030000000 1.0
C      1  0.5015120000000  0.5014050000000  0.6109960000000 1.0
C      1  0.4766160000000  0.5430000000000  0.4527740000000 1.0
C      1  0.5266760000000  0.4720610000000  0.4192040000000 1.0
C      1  0.4291740000000  0.5577240000000  0.5291220000000 1.0
C      1  0.5800490000000  0.5696600000000  0.5269020000000 1.0
C      1  0.4678120000000  0.4489470000000  0.4610270000000 1.0
C      1  0.5531520000000  0.4991920000000  0.4899550000000 1.0
C      1  0.5367800000000  0.4903890000000  0.5366940000000 1.0
C      1  0.4920080000000  0.5852090000000  0.5502010000000 1.0
C      1  0.5522170000000  0.4483910000000  0.4795240000000 1.0
C      1  0.4448300000000  0.5188120000000  0.4227450000000 1.0
C      1  0.4874550000000  0.4357160000000  0.5340060000000 1.0
C      1  0.5056500000000  0.5066230000000  0.4655910000000 1.0
C      1  0.5466680000000  0.4554690000000  0.4320300000000 1.0
C      1  0.5059840000000  0.4265520000000  0.5128620000000 1.0
C      1  0.5149980000000  0.5896930000000  0.5033150000000 1.0
C      1  0.4487360000000  0.5562090000000  0.5594010000000 1.0
C      1  0.5749500000000  0.4923330000000  0.4470010000000 1.0
C      1  0.5490540000000  0.4701250000000  0.5524800000000 1.0
C      1  0.5426410000000  0.5380410000000  0.5219500000000 1.0
C      1  0.5350280000000  0.5071450000000  0.4193170000000 1.0
C      1  0.4680680000000  0.4743930000000  0.4742600000000 1.0
C      1  0.4288450000000  0.4430540000000  0.5100940000000 1.0
C      1  0.4811040000000  0.4864280000000  0.4216250000000 1.0
C      1  0.4698010000000  0.5144540000000  0.4960160000000 1.0
C      1  0.4861580000000  0.5430720000000  0.5306500000000 1.0
C      1  0.5223290000000  0.5436320000000  0.5644770000000 1.0
C      1  0.5129600000000  0.4736000000000  0.5001240000000 1.0
C      1  0.4451450000000  0.5017170000000  0.5682930000000 1.0
C      1  0.4827040000000  0.4880060000000  0.5377810000000 1.0
C      1  0.5728390000000  0.4673650000000  0.4332460000000 1.0
C      1  0.5139550000000  0.5835610000000  0.4767860000000 1.0
C      1  0.4915860000000  0.4448380000000  0.4427130000000 1.0
C      1  0.4696830000000  0.4588660000000  0.5324920000000 1.0
C      1  0.5402310000000  0.4418800000000  0.5463910000000 1.0
C      1  0.4705470000000  0.4263060000000  0.4790040000000 1.0
C      1  0.5798560000000  0.4461170000000  0.4856650000000 1.0
C      1  0.4986280000000  0.4639060000000  0.4224280000000 1.0
C      1  0.5330530000000  0.4285600000000  0.5223160000000 1.0
C      1  0.5108040000000  0.4826200000000  0.5273060000000 1.0
C      1  0.4903020000000  0.4969450000000  0.5878870000000 1.0
C      1  0.5625420000000  0.5556980000000  0.5114750000000 1.0
C      1  0.4507160000000  0.4953320000000  0.4842810000000 1.0
C      1  0.4301030000000  0.5603800000000  0.4813830000000 1.0
C      1  0.5481460000000  0.5100390000000  0.5185330000000 1.0
C      1  0.4559870000000  0.4958250000000  0.4136340000000 1.0
C      1  0.4267930000000  0.5115980000000  0.4831080000000 1.0
C      1  0.5119570000000  0.4311050000000  0.4595760000000 1.0
END
