TITL C-627107-135-1093 87200.6217683002 125000 -1148.19368226387 0 0 189 (C1) n - 1
REM
REM in /home/nfs/bkarasulu/CARBON/AIRSS/Generating-Clusters/LCBOP/Only-C1/SD-CG/FIRE-CG
REM
REM
REM
REM
REM
REM ./C.cell (11c1c37f851c82e70ff6c80c92926a4b)
REM AIRSS Version 0.9.1 bugfix July 2018 build 013d7b7c2542+ Fri, 06 Jul 2018 19:26:36 +0100
REM compiler GCC version 9.2.1 20190827 (Red Hat 9.2.1-1)
REM options -cpp -mtune=generic -march=x86-64 -g -O0 -fpre-include=/usr/include/finclude/math-vector-fortran.h
REM seed 113844402 -1880495380 515652605 637689916 -95252255 1071632883 -1123158503 -877763769 -707486156 -1211818522 1548801323 1941308239 1362862329 -1075293440 414083997 -107955455 -936157958 1281535948 1105057940 1805347395 -1731781388 -1167756852 -1912666647 125097199 427581725 -609856889 -22836013 1598955066 -1838322775 1633999306 -2025691826 1430575552 1757996886
REM
CELL 1.54180   50.00000   50.00000   50.00000   90.00000   90.00000   90.00000
LATT -1
SFAC C  
C      1  0.5215570000000  0.3947780000000  0.5545160000000 1.0
C      1  0.5513300000000  0.4237530000000  0.4146880000000 1.0
C      1  0.3991370000000  0.4701140000000  0.4818890000000 1.0
C      1  0.5067510000000  0.5431490000000  0.3891810000000 1.0
C      1  0.4228720000000  0.5338560000000  0.4860410000000 1.0
C      1  0.5131280000000  0.3776020000000  0.4896540000000 1.0
C      1  0.4644440000000  0.4847850000000  0.6166980000000 1.0
C      1  0.4866550000000  0.5859390000000  0.4870580000000 1.0
C      1  0.5651370000000  0.4922460000000  0.4632180000000 1.0
C      1  0.4562010000000  0.5109440000000  0.5168110000000 1.0
C      1  0.4467410000000  0.5432060000000  0.6069160000000 1.0
C      1  0.4428560000000  0.4826220000000  0.5201300000000 1.0
C      1  0.4508260000000  0.4368750000000  0.5570300000000 1.0
C      1  0.4788300000000  0.4286020000000  0.4134260000000 1.0
C      1  0.4086580000000  0.4255800000000  0.5131110000000 1.0
C      1  0.4639410000000  0.3907950000000  0.4783660000000 1.0
C      1  0.4819340000000  0.5052170000000  0.5323320000000 1.0
C      1  0.5465170000000  0.4891730000000  0.4407950000000 1.0
C      1  0.5568410000000  0.6278270000000  0.5205970000000 1.0
C      1  0.5314480000000  0.4558380000000  0.5882400000000 1.0
C      1  0.3740340000000  0.5658000000000  0.5289190000000 1.0
C      1  0.4227690000000  0.4584090000000  0.4171440000000 1.0
C      1  0.3888480000000  0.5827960000000  0.4831540000000 1.0
C      1  0.4310350000000  0.5539990000000  0.5070360000000 1.0
C      1  0.4766300000000  0.4040450000000  0.5223560000000 1.0
C      1  0.5043200000000  0.4988080000000  0.5778240000000 1.0
C      1  0.5477580000000  0.5300950000000  0.5244430000000 1.0
C      1  0.5749570000000  0.5893660000000  0.5485680000000 1.0
C      1  0.4783240000000  0.5952530000000  0.5144450000000 1.0
C      1  0.4501250000000  0.5168760000000  0.4879650000000 1.0
C      1  0.5762630000000  0.5785860000000  0.5751050000000 1.0
C      1  0.5013800000000  0.4824750000000  0.5235480000000 1.0
C      1  0.5385090000000  0.5792890000000  0.4313380000000 1.0
C      1  0.4129780000000  0.4961120000000  0.5978430000000 1.0
C      1  0.5763900000000  0.5052460000000  0.4016380000000 1.0
C      1  0.4105700000000  0.4484520000000  0.4394760000000 1.0
C      1  0.5383110000000  0.4625680000000  0.4363970000000 1.0
C      1  0.5869940000000  0.5405450000000  0.4850140000000 1.0
C      1  0.6150520000000  0.4611270000000  0.4987650000000 1.0
C      1  0.4500480000000  0.4649270000000  0.5460690000000 1.0
C      1  0.4574890000000  0.4128940000000  0.5423940000000 1.0
C      1  0.3983000000000  0.4480770000000  0.5286160000000 1.0
C      1  0.5615460000000  0.4566040000000  0.3788610000000 1.0
C      1  0.4469740000000  0.4952230000000  0.4505090000000 1.0
C      1  0.4243870000000  0.5261270000000  0.5660270000000 1.0
C      1  0.3664240000000  0.5414360000000  0.5178460000000 1.0
C      1  0.5557240000000  0.6105130000000  0.5439630000000 1.0
C      1  0.5142830000000  0.4640760000000  0.5421690000000 1.0
C      1  0.6588650000000  0.4385660000000  0.4195550000000 1.0
C      1  0.5348640000000  0.3926530000000  0.5311290000000 1.0
C      1  0.5306460000000  0.5641480000000  0.5586420000000 1.0
C      1  0.4769460000000  0.5076720000000  0.6262970000000 1.0
C      1  0.4669200000000  0.5710630000000  0.6009030000000 1.0
C      1  0.5146180000000  0.4304400000000  0.4681930000000 1.0
C      1  0.5158980000000  0.5488790000000  0.6051360000000 1.0
C      1  0.6091330000000  0.4860120000000  0.5451620000000 1.0
C      1  0.5592380000000  0.3978380000000  0.4615190000000 1.0
C      1  0.4977730000000  0.5754210000000  0.5990600000000 1.0
C      1  0.4189730000000  0.4998050000000  0.4440770000000 1.0
C      1  0.4038920000000  0.4823220000000  0.5720600000000 1.0
C      1  0.4038120000000  0.5719290000000  0.4629330000000 1.0
C      1  0.5306770000000  0.6331130000000  0.5086770000000 1.0
C      1  0.5903060000000  0.5604800000000  0.5035510000000 1.0
C      1  0.3842760000000  0.5866630000000  0.5111570000000 1.0
C      1  0.4968540000000  0.5544310000000  0.5222340000000 1.0
C      1  0.5122220000000  0.4423020000000  0.3859090000000 1.0
C      1  0.6139120000000  0.4767520000000  0.5204970000000 1.0
C      1  0.5276220000000  0.5206370000000  0.3889890000000 1.0
C      1  0.5147960000000  0.4891730000000  0.4977810000000 1.0
C      1  0.5696110000000  0.4424690000000  0.4025340000000 1.0
C      1  0.4548510000000  0.5498870000000  0.4566770000000 1.0
C      1  0.4493960000000  0.4195280000000  0.6045510000000 1.0
C      1  0.4430030000000  0.4702530000000  0.4031390000000 1.0
C      1  0.4593190000000  0.5196840000000  0.4607270000000 1.0
C      1  0.4698500000000  0.5690540000000  0.4041050000000 1.0
C      1  0.6376820000000  0.4189600000000  0.4950800000000 1.0
C      1  0.4283600000000  0.5931590000000  0.5708120000000 1.0
C      1  0.5265600000000  0.5318570000000  0.4438990000000 1.0
C      1  0.5396450000000  0.4137300000000  0.5124770000000 1.0
C      1  0.5869430000000  0.4041190000000  0.4668230000000 1.0
C      1  0.5189870000000  0.4308630000000  0.5876970000000 1.0
C      1  0.5031980000000  0.4144630000000  0.4208760000000 1.0
C      1  0.5108460000000  0.4192760000000  0.5633390000000 1.0
C      1  0.5526670000000  0.4809690000000  0.3704650000000 1.0
C      1  0.4812940000000  0.3858020000000  0.5009850000000 1.0
C      1  0.5267810000000  0.6108680000000  0.5535680000000 1.0
C      1  0.4997180000000  0.5278270000000  0.5283590000000 1.0
C      1  0.4391900000000  0.4065880000000  0.4726440000000 1.0
C      1  0.4648340000000  0.5711620000000  0.4749750000000 1.0
C      1  0.4277040000000  0.5225810000000  0.5947820000000 1.0
C      1  0.5414740000000  0.4435790000000  0.4587760000000 1.0
C      1  0.4859550000000  0.6199060000000  0.5250600000000 1.0
C      1  0.5182340000000  0.5413630000000  0.5748690000000 1.0
C      1  0.5209520000000  0.5664960000000  0.5115510000000 1.0
C      1  0.4856630000000  0.4989180000000  0.3993860000000 1.0
C      1  0.5624270000000  0.4864370000000  0.6079580000000 1.0
C      1  0.5583520000000  0.5099670000000  0.5064140000000 1.0
C      1  0.5731240000000  0.5157420000000  0.4815710000000 1.0
C      1  0.4163690000000  0.5168230000000  0.4213460000000 1.0
C      1  0.5144180000000  0.5335670000000  0.4686850000000 1.0
C      1  0.6337730000000  0.4387580000000  0.4265890000000 1.0
C      1  0.4828560000000  0.3905550000000  0.4564850000000 1.0
C      1  0.5337850000000  0.5983060000000  0.4768190000000 1.0
C      1  0.5835060000000  0.4325560000000  0.5327080000000 1.0
C      1  0.6029330000000  0.4280100000000  0.4622670000000 1.0
C      1  0.6329390000000  0.3925410000000  0.5072310000000 1.0
C      1  0.5152100000000  0.5809420000000  0.4884270000000 1.0
C      1  0.5126030000000  0.6257570000000  0.5314770000000 1.0
C      1  0.5269570000000  0.5066980000000  0.4321640000000 1.0
C      1  0.5167640000000  0.4240170000000  0.4979040000000 1.0
C      1  0.4246810000000  0.5521510000000  0.4610810000000 1.0
C      1  0.5270700000000  0.5146020000000  0.5653530000000 1.0
C      1  0.4805040000000  0.4982200000000  0.5620490000000 1.0
C      1  0.5415180000000  0.5586730000000  0.5302890000000 1.0
C      1  0.4601900000000  0.4806330000000  0.5684260000000 1.0
C      1  0.5636760000000  0.4272120000000  0.5166020000000 1.0
C      1  0.6073390000000  0.4411040000000  0.4363180000000 1.0
C      1  0.4533190000000  0.4672080000000  0.4956720000000 1.0
C      1  0.4426190000000  0.5771960000000  0.4943270000000 1.0
C      1  0.5486980000000  0.4936100000000  0.5650860000000 1.0
C      1  0.5143370000000  0.4963110000000  0.6054230000000 1.0
C      1  0.4953520000000  0.4525130000000  0.4628990000000 1.0
C      1  0.4719710000000  0.4470750000000  0.5039700000000 1.0
C      1  0.4012530000000  0.4951550000000  0.4671910000000 1.0
C      1  0.5560440000000  0.4687460000000  0.4805060000000 1.0
C      1  0.5895100000000  0.4560880000000  0.4188330000000 1.0
C      1  0.5488760000000  0.5922320000000  0.4540870000000 1.0
C      1  0.5375220000000  0.3824160000000  0.4756120000000 1.0
C      1  0.5720350000000  0.4933840000000  0.5816310000000 1.0
C      1  0.5900860000000  0.4846890000000  0.4138490000000 1.0
C      1  0.3976250000000  0.4568730000000  0.5575670000000 1.0
C      1  0.5414740000000  0.5517900000000  0.4317390000000 1.0
C      1  0.4709550000000  0.4742580000000  0.3970330000000 1.0
C      1  0.4798350000000  0.5265000000000  0.3910700000000 1.0
C      1  0.4074750000000  0.4458020000000  0.4681420000000 1.0
C      1  0.4110040000000  0.5032640000000  0.5520750000000 1.0
C      1  0.5533050000000  0.5067240000000  0.3837470000000 1.0
C      1  0.5062520000000  0.6147280000000  0.4331230000000 1.0
C      1  0.4527550000000  0.4399050000000  0.5867700000000 1.0
C      1  0.4535330000000  0.5816560000000  0.5773240000000 1.0
C      1  0.4874850000000  0.5453980000000  0.5680140000000 1.0
C      1  0.4585460000000  0.4678070000000  0.5941980000000 1.0
C      1  0.5524770000000  0.4195040000000  0.4434380000000 1.0
C      1  0.5133880000000  0.5017070000000  0.4076970000000 1.0
C      1  0.5172440000000  0.5885270000000  0.5708800000000 1.0
C      1  0.4769730000000  0.5725750000000  0.5318330000000 1.0
C      1  0.4530910000000  0.4715760000000  0.4663750000000 1.0
C      1  0.3756100000000  0.5247190000000  0.4991460000000 1.0
C      1  0.4140750000000  0.4913070000000  0.5256280000000 1.0
C      1  0.4993850000000  0.5702900000000  0.4026980000000 1.0
C      1  0.5249570000000  0.5190360000000  0.5368750000000 1.0
C      1  0.5259480000000  0.6259170000000  0.4807290000000 1.0
C      1  0.3847840000000  0.5711760000000  0.5551550000000 1.0
C      1  0.6567860000000  0.3821690000000  0.5175360000000 1.0
C      1  0.5870570000000  0.5760120000000  0.5257780000000 1.0
C      1  0.4927460000000  0.4291730000000  0.5159010000000 1.0
C      1  0.4420560000000  0.5429710000000  0.5527260000000 1.0
C      1  0.4208350000000  0.6181600000000  0.5145910000000 1.0
C      1  0.4608350000000  0.4324060000000  0.4347170000000 1.0
C      1  0.5964380000000  0.4915800000000  0.5681170000000 1.0
C      1  0.4422570000000  0.4136020000000  0.4445080000000 1.0
C      1  0.5651270000000  0.5680500000000  0.5974430000000 1.0
C      1  0.5441890000000  0.4840750000000  0.5017810000000 1.0
C      1  0.4324200000000  0.5327650000000  0.4063350000000 1.0
C      1  0.5027880000000  0.5189190000000  0.6188400000000 1.0
C      1  0.4181950000000  0.4235070000000  0.4854430000000 1.0
C      1  0.5114170000000  0.6308880000000  0.4554310000000 1.0
C      1  0.5140880000000  0.5896200000000  0.4198160000000 1.0
C      1  0.4008950000000  0.6042540000000  0.5283200000000 1.0
C      1  0.4576040000000  0.5432200000000  0.3991830000000 1.0
C      1  0.4642040000000  0.5624000000000  0.5569530000000 1.0
C      1  0.3980660000000  0.5179870000000  0.4840000000000 1.0
C      1  0.5443030000000  0.5573630000000  0.6113560000000 1.0
C      1  0.6186890000000  0.4369100000000  0.4847580000000 1.0
C      1  0.4430060000000  0.5365720000000  0.5264330000000 1.0
C      1  0.3979660000000  0.4718120000000  0.5111470000000 1.0
C      1  0.4691440000000  0.4522250000000  0.4531260000000 1.0
C      1  0.4854580000000  0.4497090000000  0.3942410000000 1.0
C      1  0.5350420000000  0.4682920000000  0.5617370000000 1.0
C      1  0.5249890000000  0.4227340000000  0.4037220000000 1.0
C      1  0.5037730000000  0.4080410000000  0.4485910000000 1.0
C      1  0.6772630000000  0.4004110000000  0.5126410000000 1.0
C      1  0.5035140000000  0.4756990000000  0.4749590000000 1.0
C      1  0.5350260000000  0.4766030000000  0.6082660000000 1.0
C      1  0.4362850000000  0.6044670000000  0.4975160000000 1.0
C      1  0.4047410000000  0.5924510000000  0.5550820000000 1.0
C      1  0.5104940000000  0.5173660000000  0.4892310000000 1.0
C      1  0.6665900000000  0.4224900000000  0.4991610000000 1.0
C      1  0.5037370000000  0.4378790000000  0.5423640000000 1.0
END
