TITL C-627112-676-1041 -7.08610458757738e-07 125000 -567.688475989036 0 0 94 (C1) n - 1
REM
REM in /home/nfs/bkarasulu/CARBON/AIRSS/Generating-Clusters/LCBOP/Only-C1/SD-CG/FIRE-CG
REM
REM
REM
REM
REM
REM ./C.cell (11c1c37f851c82e70ff6c80c92926a4b)
REM AIRSS Version 0.9.1 bugfix July 2018 build 013d7b7c2542+ Fri, 06 Jul 2018 19:26:36 +0100
REM compiler GCC version 9.2.1 20190827 (Red Hat 9.2.1-1)
REM options -cpp -mtune=generic -march=x86-64 -g -O0 -fpre-include=/usr/include/finclude/math-vector-fortran.h
REM seed 456454574 195489224 -2109391697 -1964759099 -327008896 1719025748 -508251223 983074565 -736932853 -1304937796 -1605732111 -1782447544 -528459128 722020272 1205262631 1347886886 337580588 -942984603 1040284726 163928150 1721701058 -1234294394 -1351407130 13388007 -1702142829 1566563584 -1054496487 -817739058 -1695443276 -583017442 127887333 -59222709 -337421421
REM
CELL 1.54180   50.00000   50.00000   50.00000   90.00000   90.00000   90.00000
LATT -1
SFAC C  
C      1  0.5130370000000  0.4792580000000  0.5667730000000 1.0
C      1  0.4978110000000  0.3858550000000  0.5441730000000 1.0
C      1  0.5076320000000  0.4341700000000  0.5795620000000 1.0
C      1  0.4647190000000  0.4654890000000  0.5035500000000 1.0
C      1  0.4658780000000  0.4951790000000  0.5552450000000 1.0
C      1  0.4575110000000  0.5673170000000  0.4408430000000 1.0
C      1  0.5703250000000  0.4588090000000  0.5499490000000 1.0
C      1  0.4343220000000  0.5490770000000  0.5035020000000 1.0
C      1  0.4534520000000  0.5181840000000  0.5400320000000 1.0
C      1  0.4835620000000  0.4277390000000  0.5658720000000 1.0
C      1  0.5889560000000  0.5077860000000  0.5391040000000 1.0
C      1  0.5352560000000  0.4126960000000  0.4451470000000 1.0
C      1  0.5171780000000  0.4918270000000  0.4307330000000 1.0
C      1  0.5188050000000  0.5046370000000  0.4053610000000 1.0
C      1  0.4467820000000  0.5617240000000  0.5614030000000 1.0
C      1  0.4400800000000  0.4292610000000  0.4609690000000 1.0
C      1  0.4577350000000  0.5164940000000  0.4166690000000 1.0
C      1  0.4410470000000  0.5701600000000  0.4857870000000 1.0
C      1  0.4354820000000  0.4329970000000  0.5246010000000 1.0
C      1  0.4900700000000  0.4503010000000  0.3985190000000 1.0
C      1  0.5149240000000  0.5076080000000  0.4553770000000 1.0
C      1  0.4788360000000  0.5300440000000  0.4899000000000 1.0
C      1  0.4466670000000  0.4564450000000  0.4566370000000 1.0
C      1  0.5734910000000  0.4742550000000  0.4619870000000 1.0
C      1  0.5418890000000  0.4793020000000  0.5003300000000 1.0
C      1  0.5017170000000  0.5481030000000  0.6172340000000 1.0
C      1  0.5351030000000  0.5224410000000  0.5164560000000 1.0
C      1  0.4583200000000  0.4422680000000  0.5664560000000 1.0
C      1  0.4656890000000  0.4659900000000  0.4750730000000 1.0
C      1  0.5116530000000  0.5707210000000  0.4970820000000 1.0
C      1  0.4367230000000  0.4294950000000  0.5526200000000 1.0
C      1  0.4936690000000  0.4990240000000  0.5612470000000 1.0
C      1  0.5576390000000  0.5700330000000  0.5552110000000 1.0
C      1  0.5037210000000  0.4923510000000  0.4764840000000 1.0
C      1  0.5144770000000  0.4234730000000  0.6036560000000 1.0
C      1  0.5191230000000  0.4613150000000  0.5126070000000 1.0
C      1  0.5380820000000  0.4727660000000  0.4321000000000 1.0
C      1  0.4742980000000  0.5856430000000  0.4573040000000 1.0
C      1  0.5352580000000  0.5752360000000  0.5388990000000 1.0
C      1  0.4413200000000  0.4732200000000  0.4347250000000 1.0
C      1  0.5260430000000  0.5468920000000  0.4188930000000 1.0
C      1  0.5090060000000  0.5175180000000  0.5223820000000 1.0
C      1  0.5375070000000  0.5726110000000  0.5102590000000 1.0
C      1  0.4561310000000  0.5311340000000  0.5118420000000 1.0
C      1  0.4562510000000  0.4878810000000  0.4154910000000 1.0
C      1  0.3954950000000  0.5357520000000  0.5333370000000 1.0
C      1  0.5892750000000  0.5292940000000  0.5574560000000 1.0
C      1  0.5352550000000  0.5526830000000  0.4450780000000 1.0
C      1  0.5048620000000  0.5469340000000  0.5633910000000 1.0
C      1  0.4881620000000  0.4113020000000  0.5427080000000 1.0
C      1  0.4947850000000  0.5065230000000  0.4999700000000 1.0
C      1  0.5625960000000  0.5622720000000  0.5010620000000 1.0
C      1  0.4563040000000  0.4707430000000  0.5658800000000 1.0
C      1  0.4616700000000  0.5807480000000  0.5497240000000 1.0
C      1  0.4683220000000  0.5266160000000  0.4616780000000 1.0
C      1  0.5043640000000  0.5477560000000  0.4825470000000 1.0
C      1  0.4468400000000  0.4129330000000  0.4815560000000 1.0
C      1  0.5636750000000  0.4849960000000  0.4373500000000 1.0
C      1  0.4091740000000  0.5312710000000  0.5562790000000 1.0
C      1  0.5080570000000  0.4439240000000  0.4667680000000 1.0
C      1  0.4395280000000  0.4601010000000  0.5156500000000 1.0
C      1  0.5855310000000  0.4808710000000  0.5473970000000 1.0
C      1  0.5237430000000  0.4163940000000  0.4209270000000 1.0
C      1  0.5308050000000  0.4268500000000  0.4691810000000 1.0
C      1  0.5087550000000  0.5710110000000  0.5485570000000 1.0
C      1  0.5373060000000  0.4381870000000  0.5191590000000 1.0
C      1  0.5766230000000  0.5524820000000  0.5622870000000 1.0
C      1  0.5538050000000  0.5717520000000  0.4502030000000 1.0
C      1  0.4075640000000  0.5438070000000  0.5106030000000 1.0
C      1  0.5037060000000  0.5477070000000  0.5912560000000 1.0
C      1  0.4931000000000  0.4674690000000  0.4686730000000 1.0
C      1  0.5210530000000  0.5354250000000  0.4626790000000 1.0
C      1  0.4877330000000  0.5841850000000  0.5066390000000 1.0
C      1  0.5239600000000  0.4530390000000  0.5656490000000 1.0
C      1  0.5637470000000  0.5103810000000  0.4213780000000 1.0
C      1  0.5806300000000  0.5418640000000  0.5029630000000 1.0
C      1  0.5598140000000  0.4621160000000  0.4840670000000 1.0
C      1  0.4967480000000  0.5470060000000  0.4183370000000 1.0
C      1  0.4695970000000  0.5398240000000  0.4329580000000 1.0
C      1  0.4857250000000  0.5826730000000  0.5353310000000 1.0
C      1  0.4669810000000  0.5850570000000  0.4864790000000 1.0
C      1  0.4336950000000  0.5662690000000  0.4577560000000 1.0
C      1  0.4544380000000  0.4174600000000  0.5083810000000 1.0
C      1  0.4738630000000  0.4716490000000  0.4002830000000 1.0
C      1  0.5069540000000  0.4306850000000  0.4055640000000 1.0
C      1  0.5534790000000  0.5038060000000  0.5079390000000 1.0
C      1  0.4813740000000  0.4239750000000  0.5182050000000 1.0
C      1  0.5453060000000  0.4455300000000  0.5467340000000 1.0
C      1  0.5028260000000  0.5224450000000  0.5492550000000 1.0
C      1  0.5792560000000  0.5148400000000  0.5128540000000 1.0
C      1  0.5403680000000  0.5238510000000  0.4078320000000 1.0
C      1  0.4371370000000  0.5355240000000  0.5572900000000 1.0
C      1  0.4897550000000  0.4526400000000  0.5139760000000 1.0
C      1  0.5490800000000  0.4346430000000  0.4907240000000 1.0
END
