TITL C-627106-156-827 -6.80708784728772e-07 125000 -434.595063624799 0 0 72 (C1) n - 1
REM
REM in /home/nfs/bkarasulu/CARBON/AIRSS/Generating-Clusters/LCBOP/Only-C1/SD-CG/FIRE-CG
REM
REM
REM
REM
REM
REM ./C.cell (11c1c37f851c82e70ff6c80c92926a4b)
REM AIRSS Version 0.9.1 bugfix July 2018 build 013d7b7c2542+ Fri, 06 Jul 2018 19:26:36 +0100
REM compiler GCC version 9.2.1 20190827 (Red Hat 9.2.1-1)
REM options -cpp -mtune=generic -march=x86-64 -g -O0 -fpre-include=/usr/include/finclude/math-vector-fortran.h
REM seed -2030053725 2011053340 -2110470615 1583519176 -1152147950 -407452434 -1191816073 -1909823751 -975397367 814073923 1745341837 55342035 1121831485 158634820 2050868096 1609513426 1753385440 558019275 -1653640442 -1837691089 2099446621 1354998781 2144958354 744335191 -515826302 -803626763 1799823858 1280505675 989486076 99240813 1727422977 -700299811 -766813931
REM
CELL 1.54180   50.00000   50.00000   50.00000   90.00000   90.00000   90.00000
LATT -1
SFAC C  
C      1  0.6051320000000  0.4749400000000  0.4513650000000 1.0
C      1  0.5309800000000  0.4573430000000  0.5873140000000 1.0
C      1  0.5243430000000  0.5190120000000  0.5385850000000 1.0
C      1  0.4724680000000  0.4143830000000  0.5006880000000 1.0
C      1  0.5546730000000  0.4758400000000  0.4500530000000 1.0
C      1  0.5233910000000  0.4600310000000  0.5609250000000 1.0
C      1  0.5386810000000  0.4195730000000  0.5155720000000 1.0
C      1  0.4949870000000  0.4585440000000  0.5547960000000 1.0
C      1  0.5133010000000  0.5304650000000  0.5622360000000 1.0
C      1  0.4569000000000  0.4929780000000  0.4644230000000 1.0
C      1  0.5238060000000  0.4121970000000  0.4939690000000 1.0
C      1  0.5613530000000  0.4873850000000  0.5403230000000 1.0
C      1  0.4608800000000  0.4456910000000  0.4676740000000 1.0
C      1  0.5808210000000  0.4790600000000  0.4405560000000 1.0
C      1  0.4898370000000  0.4543810000000  0.5272850000000 1.0
C      1  0.4805220000000  0.4265540000000  0.4762150000000 1.0
C      1  0.4497540000000  0.5022830000000  0.5743690000000 1.0
C      1  0.4435360000000  0.5151720000000  0.4536440000000 1.0
C      1  0.5718530000000  0.5102390000000  0.5301130000000 1.0
C      1  0.4749680000000  0.5592390000000  0.5620370000000 1.0
C      1  0.4879010000000  0.4713520000000  0.4333940000000 1.0
C      1  0.4373240000000  0.4720550000000  0.5047470000000 1.0
C      1  0.4996040000000  0.5147250000000  0.5815400000000 1.0
C      1  0.5492090000000  0.4593390000000  0.4729210000000 1.0
C      1  0.6107920000000  0.4649150000000  0.4757540000000 1.0
C      1  0.5418430000000  0.5713780000000  0.4925310000000 1.0
C      1  0.4723040000000  0.5283040000000  0.5234630000000 1.0
C      1  0.5210630000000  0.4562250000000  0.4776360000000 1.0
C      1  0.4409130000000  0.5265140000000  0.5639390000000 1.0
C      1  0.4851840000000  0.5435540000000  0.4541430000000 1.0
C      1  0.5230770000000  0.5121240000000  0.4592080000000 1.0
C      1  0.5183860000000  0.4785130000000  0.3964940000000 1.0
C      1  0.5091580000000  0.4304020000000  0.4772020000000 1.0
C      1  0.4921130000000  0.4781810000000  0.5121920000000 1.0
C      1  0.5182730000000  0.5822260000000  0.4846740000000 1.0
C      1  0.5935250000000  0.4562930000000  0.4945050000000 1.0
C      1  0.4326120000000  0.5694720000000  0.5029790000000 1.0
C      1  0.4157170000000  0.5180480000000  0.4923690000000 1.0
C      1  0.5513920000000  0.4446220000000  0.5198140000000 1.0
C      1  0.4776300000000  0.4293730000000  0.5224450000000 1.0
C      1  0.5600960000000  0.5550010000000  0.5039890000000 1.0
C      1  0.4548210000000  0.4923350000000  0.4930350000000 1.0
C      1  0.5656200000000  0.4538460000000  0.4961420000000 1.0
C      1  0.5406180000000  0.5631100000000  0.4112660000000 1.0
C      1  0.5319630000000  0.4910640000000  0.4414650000000 1.0
C      1  0.5712370000000  0.5340620000000  0.5171120000000 1.0
C      1  0.4315700000000  0.5323840000000  0.4727820000000 1.0
C      1  0.4591320000000  0.5400150000000  0.5475700000000 1.0
C      1  0.5127800000000  0.4801430000000  0.4232030000000 1.0
C      1  0.4289300000000  0.4848670000000  0.5305060000000 1.0
C      1  0.4451440000000  0.5570770000000  0.4805220000000 1.0
C      1  0.4906340000000  0.5480040000000  0.5131910000000 1.0
C      1  0.5255780000000  0.5493680000000  0.4281960000000 1.0
C      1  0.4454990000000  0.4797210000000  0.5564490000000 1.0
C      1  0.4675350000000  0.4693570000000  0.4525790000000 1.0
C      1  0.5031440000000  0.5572130000000  0.5573620000000 1.0
C      1  0.5556280000000  0.5766420000000  0.3947990000000 1.0
C      1  0.4087500000000  0.5364200000000  0.5331880000000 1.0
C      1  0.4388280000000  0.4496240000000  0.4870240000000 1.0
C      1  0.5111100000000  0.5349300000000  0.4473070000000 1.0
C      1  0.4721530000000  0.5627470000000  0.4706270000000 1.0
C      1  0.4149210000000  0.5109620000000  0.5211220000000 1.0
C      1  0.4914530000000  0.5820610000000  0.4796280000000 1.0
C      1  0.5450690000000  0.4635780000000  0.5409330000000 1.0
C      1  0.4168120000000  0.5606280000000  0.5232770000000 1.0
C      1  0.4739870000000  0.5013680000000  0.5120600000000 1.0
C      1  0.5102590000000  0.4786220000000  0.4908230000000 1.0
C      1  0.5213710000000  0.5046620000000  0.4867190000000 1.0
C      1  0.4676360000000  0.4617360000000  0.5643620000000 1.0
C      1  0.5265860000000  0.5170650000000  0.5115790000000 1.0
C      1  0.5056970000000  0.5640680000000  0.5296190000000 1.0
C      1  0.4752350000000  0.5043950000000  0.5874710000000 1.0
END
