TITL C-627113-6568-1853 74267.6787571189 125000 -854.830157367724 0 0 140 (C1) n - 1
REM
REM in /home/nfs/bkarasulu/CARBON/AIRSS/Generating-Clusters/LCBOP/Only-C1/SD-CG/FIRE-CG
REM
REM
REM
REM
REM
REM ./C.cell (11c1c37f851c82e70ff6c80c92926a4b)
REM AIRSS Version 0.9.1 bugfix July 2018 build 013d7b7c2542+ Fri, 06 Jul 2018 19:26:36 +0100
REM compiler GCC version 9.2.1 20190827 (Red Hat 9.2.1-1)
REM options -cpp -mtune=generic -march=x86-64 -g -O0 -fpre-include=/usr/include/finclude/math-vector-fortran.h
REM seed 955240769 663399287 510634695 553698320 -1461348733 304978416 -1319308503 336976823 -282734996 1496299014 -287036648 -949274273 93574244 1679617132 -1979240971 1580441158 967365997 -547974085 -1351831040 -2101291378 65845855 1235065244 -227179019 49792006 874348485 842799364 -1208591488 1888143859 190214473 1649659360 778747255 -477425581 713198541
REM
CELL 1.54180   50.00000   50.00000   50.00000   90.00000   90.00000   90.00000
LATT -1
SFAC C  
C      1  0.4863600000000  0.5091400000000  0.5466030000000 1.0
C      1  0.4681460000000  0.4324660000000  0.5432940000000 1.0
C      1  0.4171880000000  0.4404090000000  0.5375810000000 1.0
C      1  0.5065860000000  0.5584900000000  0.5822430000000 1.0
C      1  0.6034980000000  0.4888050000000  0.4831240000000 1.0
C      1  0.4051170000000  0.5263530000000  0.4470520000000 1.0
C      1  0.5237430000000  0.4643160000000  0.3814850000000 1.0
C      1  0.5407750000000  0.4851300000000  0.4637830000000 1.0
C      1  0.4016670000000  0.5325820000000  0.5006870000000 1.0
C      1  0.4520960000000  0.5282060000000  0.4160480000000 1.0
C      1  0.4837130000000  0.4507430000000  0.4166360000000 1.0
C      1  0.5398960000000  0.5482240000000  0.5163930000000 1.0
C      1  0.5778870000000  0.4435900000000  0.5352940000000 1.0
C      1  0.5222750000000  0.5971980000000  0.4578310000000 1.0
C      1  0.5548110000000  0.5275180000000  0.5054290000000 1.0
C      1  0.5194740000000  0.5438110000000  0.4448570000000 1.0
C      1  0.4772550000000  0.5790210000000  0.4293930000000 1.0
C      1  0.5299890000000  0.4302660000000  0.4352090000000 1.0
C      1  0.5100830000000  0.4782330000000  0.6027580000000 1.0
C      1  0.4447960000000  0.4876510000000  0.4623620000000 1.0
C      1  0.5168860000000  0.4532430000000  0.5209630000000 1.0
C      1  0.4530790000000  0.4421010000000  0.4571880000000 1.0
C      1  0.5891060000000  0.4696120000000  0.5407350000000 1.0
C      1  0.5751880000000  0.5011220000000  0.4116430000000 1.0
C      1  0.4639450000000  0.4509570000000  0.5001140000000 1.0
C      1  0.5531680000000  0.5696800000000  0.5799410000000 1.0
C      1  0.5004460000000  0.4770810000000  0.5043070000000 1.0
C      1  0.4132590000000  0.5236250000000  0.4754930000000 1.0
C      1  0.5714310000000  0.5787580000000  0.4704750000000 1.0
C      1  0.5485810000000  0.5020660000000  0.3996480000000 1.0
C      1  0.4620400000000  0.5453120000000  0.4731050000000 1.0
C      1  0.5442690000000  0.4246940000000  0.4612230000000 1.0
C      1  0.5817780000000  0.5326550000000  0.4976780000000 1.0
C      1  0.5418780000000  0.4489940000000  0.5017610000000 1.0
C      1  0.4425680000000  0.4201020000000  0.4738530000000 1.0
C      1  0.4779660000000  0.5243240000000  0.4638920000000 1.0
C      1  0.4942190000000  0.5070480000000  0.4228260000000 1.0
C      1  0.5158190000000  0.4780670000000  0.4528910000000 1.0
C      1  0.5951160000000  0.5071830000000  0.5056790000000 1.0
C      1  0.5126600000000  0.4140930000000  0.5528100000000 1.0
C      1  0.5293020000000  0.5004990000000  0.6060150000000 1.0
C      1  0.5124050000000  0.4855920000000  0.4253600000000 1.0
C      1  0.5214050000000  0.4472910000000  0.5908710000000 1.0
C      1  0.4830750000000  0.5454860000000  0.5944380000000 1.0
C      1  0.5099110000000  0.5918050000000  0.5373100000000 1.0
C      1  0.5723030000000  0.4371980000000  0.4599260000000 1.0
C      1  0.5656550000000  0.5508400000000  0.4226780000000 1.0
C      1  0.5294800000000  0.4813360000000  0.4027850000000 1.0
C      1  0.5360260000000  0.5113690000000  0.5505580000000 1.0
C      1  0.5852030000000  0.4977530000000  0.5336680000000 1.0
C      1  0.4679760000000  0.5542720000000  0.4151690000000 1.0
C      1  0.4010280000000  0.5859800000000  0.5064110000000 1.0
C      1  0.4571620000000  0.4815560000000  0.5982150000000 1.0
C      1  0.4584030000000  0.4566650000000  0.5856050000000 1.0
C      1  0.3962810000000  0.5128270000000  0.5220230000000 1.0
C      1  0.4711640000000  0.4975210000000  0.4691500000000 1.0
C      1  0.4921260000000  0.5568570000000  0.5138640000000 1.0
C      1  0.6079650000000  0.4610110000000  0.4865770000000 1.0
C      1  0.4696060000000  0.3906170000000  0.4454800000000 1.0
C      1  0.5372380000000  0.5462420000000  0.4217620000000 1.0
C      1  0.5793970000000  0.5176020000000  0.4527120000000 1.0
C      1  0.5527070000000  0.5100180000000  0.4583020000000 1.0
C      1  0.4122140000000  0.4668820000000  0.5276100000000 1.0
C      1  0.5207400000000  0.5551970000000  0.4710830000000 1.0
C      1  0.5142660000000  0.5817900000000  0.4815040000000 1.0
C      1  0.4217680000000  0.4954620000000  0.4759140000000 1.0
C      1  0.4575420000000  0.5864800000000  0.4488670000000 1.0
C      1  0.5173390000000  0.4515610000000  0.3596740000000 1.0
C      1  0.4516590000000  0.5697080000000  0.4691590000000 1.0
C      1  0.3971750000000  0.5597890000000  0.5050490000000 1.0
C      1  0.4651870000000  0.5202270000000  0.5281920000000 1.0
C      1  0.4341590000000  0.5433340000000  0.5796640000000 1.0
C      1  0.4535430000000  0.5678190000000  0.5369070000000 1.0
C      1  0.5444300000000  0.5228150000000  0.5951060000000 1.0
C      1  0.5376290000000  0.4037400000000  0.5116400000000 1.0
C      1  0.3779890000000  0.4874200000000  0.4616200000000 1.0
C      1  0.5391910000000  0.4094580000000  0.5406950000000 1.0
C      1  0.4665670000000  0.5479120000000  0.5216510000000 1.0
C      1  0.4459950000000  0.4660710000000  0.4432520000000 1.0
C      1  0.4118280000000  0.6101980000000  0.5059950000000 1.0
C      1  0.5348540000000  0.4218770000000  0.4884860000000 1.0
C      1  0.4760060000000  0.4509850000000  0.4737070000000 1.0
C      1  0.4243980000000  0.5177370000000  0.5725180000000 1.0
C      1  0.4589370000000  0.5565370000000  0.5827530000000 1.0
C      1  0.5518100000000  0.5944280000000  0.4587590000000 1.0
C      1  0.5688680000000  0.5126120000000  0.5814240000000 1.0
C      1  0.4494720000000  0.3949770000000  0.4630270000000 1.0
C      1  0.5655530000000  0.5126150000000  0.5521450000000 1.0
C      1  0.4420710000000  0.4275660000000  0.5299370000000 1.0
C      1  0.5516910000000  0.4422500000000  0.4194210000000 1.0
C      1  0.5674860000000  0.4631110000000  0.5866550000000 1.0
C      1  0.5142970000000  0.5022710000000  0.5072390000000 1.0
C      1  0.5306470000000  0.4619460000000  0.5476710000000 1.0
C      1  0.5271230000000  0.4863910000000  0.5578970000000 1.0
C      1  0.5016950000000  0.4292160000000  0.4270410000000 1.0
C      1  0.4150030000000  0.5101030000000  0.5458600000000 1.0
C      1  0.5746070000000  0.4524130000000  0.4344770000000 1.0
C      1  0.5032840000000  0.5921590000000  0.4354000000000 1.0
C      1  0.5362280000000  0.6003620000000  0.5441480000000 1.0
C      1  0.5030040000000  0.5835220000000  0.5086720000000 1.0
C      1  0.5464310000000  0.4770420000000  0.4901890000000 1.0
C      1  0.4728330000000  0.4743780000000  0.5169940000000 1.0
C      1  0.5862490000000  0.4787030000000  0.4312240000000 1.0
C      1  0.5111690000000  0.5246670000000  0.5452240000000 1.0
C      1  0.4885150000000  0.4044440000000  0.4323340000000 1.0
C      1  0.4348070000000  0.4975300000000  0.5902890000000 1.0
C      1  0.5090090000000  0.4224850000000  0.5808080000000 1.0
C      1  0.4669580000000  0.5017120000000  0.4148690000000 1.0
C      1  0.4969550000000  0.5270310000000  0.4426360000000 1.0
C      1  0.4266450000000  0.6316100000000  0.5046270000000 1.0
C      1  0.4253970000000  0.5296790000000  0.4271370000000 1.0
C      1  0.5534630000000  0.5899770000000  0.5621910000000 1.0
C      1  0.5464500000000  0.4481240000000  0.5710720000000 1.0
C      1  0.3931450000000  0.4832920000000  0.5113710000000 1.0
C      1  0.4305530000000  0.4878390000000  0.5353140000000 1.0
C      1  0.5811220000000  0.5272460000000  0.4258360000000 1.0
C      1  0.4831220000000  0.4919170000000  0.6051370000000 1.0
C      1  0.4959890000000  0.5783270000000  0.5605950000000 1.0
C      1  0.4625320000000  0.4719990000000  0.4199760000000 1.0
C      1  0.4954370000000  0.4277170000000  0.5343630000000 1.0
C      1  0.4664210000000  0.5745050000000  0.5612820000000 1.0
C      1  0.5868550000000  0.4422850000000  0.4845710000000 1.0
C      1  0.5707330000000  0.4418550000000  0.5081180000000 1.0
C      1  0.5780960000000  0.4875410000000  0.5913850000000 1.0
C      1  0.4931670000000  0.4755640000000  0.4730050000000 1.0
C      1  0.3992060000000  0.4276920000000  0.5537860000000 1.0
C      1  0.5140550000000  0.5442760000000  0.5260660000000 1.0
C      1  0.5423440000000  0.5021140000000  0.5044750000000 1.0
C      1  0.5958470000000  0.4942690000000  0.4557710000000 1.0
C      1  0.5839090000000  0.5578850000000  0.4834930000000 1.0
C      1  0.4839270000000  0.5205050000000  0.6071610000000 1.0
C      1  0.3824240000000  0.5083610000000  0.4440160000000 1.0
C      1  0.5341540000000  0.5499310000000  0.5878920000000 1.0
C      1  0.5354080000000  0.5278870000000  0.3993690000000 1.0
C      1  0.5600660000000  0.4272920000000  0.5526890000000 1.0
C      1  0.4520890000000  0.4961130000000  0.5186280000000 1.0
C      1  0.3966810000000  0.4818280000000  0.4827610000000 1.0
C      1  0.4815170000000  0.4784620000000  0.5472200000000 1.0
C      1  0.4458550000000  0.4284060000000  0.5017990000000 1.0
C      1  0.4696350000000  0.4553590000000  0.5603380000000 1.0
END
