TITL C-627112-676-1783 1776.83577257349 125000 -1096.63379989576 0 0 178 (C1) n - 1
REM
REM in /home/nfs/bkarasulu/CARBON/AIRSS/Generating-Clusters/LCBOP/Only-C1/SD-CG/FIRE-CG
REM
REM
REM
REM
REM
REM ./C.cell (11c1c37f851c82e70ff6c80c92926a4b)
REM AIRSS Version 0.9.1 bugfix July 2018 build 013d7b7c2542+ Fri, 06 Jul 2018 19:26:36 +0100
REM compiler GCC version 9.2.1 20190827 (Red Hat 9.2.1-1)
REM options -cpp -mtune=generic -march=x86-64 -g -O0 -fpre-include=/usr/include/finclude/math-vector-fortran.h
REM seed 2066072526 2060058123 -1418295293 -730130152 -2003076601 -2080033632 295625612 -699159881 -1233525973 967102371 312300192 -325676680 446541778 1281082574 532900904 888218731 515734068 -2056128304 1715953774 18043179 1839597064 -272006047 591691721 -2132147154 2024568358 2061347956 517814367 -414856358 -1272969847 1153948857 947771109 -433760516 -596693552
REM
CELL 1.54180   50.00000   50.00000   50.00000   90.00000   90.00000   90.00000
LATT -1
SFAC C  
C      1  0.5688870000000  0.5975240000000  0.5568170000000 1.0
C      1  0.4098470000000  0.5843270000000  0.5260610000000 1.0
C      1  0.5697400000000  0.4881510000000  0.5238290000000 1.0
C      1  0.4410240000000  0.4385200000000  0.4143580000000 1.0
C      1  0.5649090000000  0.5842010000000  0.5325360000000 1.0
C      1  0.5889070000000  0.4216310000000  0.5592480000000 1.0
C      1  0.4308000000000  0.5310380000000  0.4212330000000 1.0
C      1  0.4627110000000  0.4988420000000  0.3844970000000 1.0
C      1  0.5516300000000  0.4672450000000  0.5707840000000 1.0
C      1  0.4422190000000  0.5717980000000  0.4429990000000 1.0
C      1  0.4086130000000  0.4108370000000  0.4743140000000 1.0
C      1  0.3904100000000  0.4698290000000  0.4461900000000 1.0
C      1  0.5106900000000  0.4403590000000  0.6159490000000 1.0
C      1  0.3834410000000  0.4610340000000  0.4706830000000 1.0
C      1  0.4648640000000  0.5120500000000  0.6034180000000 1.0
C      1  0.5641050000000  0.6091760000000  0.4904290000000 1.0
C      1  0.5749260000000  0.4806520000000  0.5832090000000 1.0
C      1  0.6245400000000  0.4637030000000  0.4802660000000 1.0
C      1  0.5694900000000  0.5962960000000  0.4662260000000 1.0
C      1  0.5212530000000  0.6044080000000  0.5157560000000 1.0
C      1  0.5231240000000  0.4973540000000  0.3730730000000 1.0
C      1  0.5778720000000  0.4301390000000  0.4245730000000 1.0
C      1  0.5711000000000  0.5845960000000  0.4423640000000 1.0
C      1  0.5980020000000  0.3976010000000  0.5023480000000 1.0
C      1  0.4778360000000  0.5965460000000  0.5495480000000 1.0
C      1  0.5145110000000  0.4629400000000  0.5005000000000 1.0
C      1  0.4356530000000  0.4677250000000  0.4235040000000 1.0
C      1  0.6064890000000  0.4348090000000  0.5428510000000 1.0
C      1  0.5572290000000  0.5427840000000  0.4129510000000 1.0
C      1  0.4043760000000  0.5298930000000  0.5300980000000 1.0
C      1  0.5443240000000  0.5055730000000  0.5435900000000 1.0
C      1  0.5707430000000  0.6364630000000  0.4941180000000 1.0
C      1  0.6371220000000  0.3326790000000  0.4741520000000 1.0
C      1  0.4491370000000  0.5024190000000  0.5182750000000 1.0
C      1  0.5700810000000  0.6193700000000  0.6045960000000 1.0
C      1  0.5065450000000  0.4877740000000  0.4509300000000 1.0
C      1  0.4374940000000  0.5898550000000  0.5210810000000 1.0
C      1  0.5543600000000  0.5290820000000  0.5594880000000 1.0
C      1  0.5562600000000  0.4433060000000  0.4986430000000 1.0
C      1  0.4486270000000  0.4824830000000  0.4003480000000 1.0
C      1  0.4275860000000  0.5594530000000  0.4218090000000 1.0
C      1  0.5382660000000  0.4603130000000  0.4850580000000 1.0
C      1  0.3591630000000  0.4766890000000  0.5257280000000 1.0
C      1  0.4092230000000  0.4833390000000  0.4291840000000 1.0
C      1  0.3718510000000  0.5264540000000  0.4655140000000 1.0
C      1  0.5044150000000  0.4381570000000  0.4334240000000 1.0
C      1  0.3883020000000  0.5904360000000  0.5109010000000 1.0
C      1  0.5137100000000  0.4724080000000  0.3750290000000 1.0
C      1  0.5792750000000  0.5404110000000  0.5507420000000 1.0
C      1  0.5056650000000  0.4087090000000  0.6592470000000 1.0
C      1  0.5028830000000  0.4318790000000  0.5899130000000 1.0
C      1  0.6112440000000  0.4617540000000  0.5323720000000 1.0
C      1  0.5484360000000  0.4162190000000  0.5006020000000 1.0
C      1  0.6617180000000  0.5026990000000  0.4770060000000 1.0
C      1  0.4492340000000  0.6026460000000  0.5445770000000 1.0
C      1  0.6441070000000  0.4835260000000  0.4781970000000 1.0
C      1  0.4311180000000  0.5910390000000  0.5667380000000 1.0
C      1  0.3835200000000  0.4650850000000  0.5210680000000 1.0
C      1  0.5756620000000  0.5469270000000  0.5029560000000 1.0
C      1  0.5641570000000  0.4591680000000  0.5200310000000 1.0
C      1  0.4494290000000  0.4600010000000  0.4998750000000 1.0
C      1  0.4663220000000  0.5814960000000  0.4541380000000 1.0
C      1  0.5662580000000  0.4906170000000  0.6091770000000 1.0
C      1  0.4125710000000  0.5282340000000  0.5779300000000 1.0
C      1  0.4663420000000  0.5240550000000  0.5143700000000 1.0
C      1  0.5181190000000  0.5439300000000  0.4526600000000 1.0
C      1  0.4094850000000  0.5128690000000  0.4305560000000 1.0
C      1  0.6243130000000  0.3536440000000  0.4841020000000 1.0
C      1  0.5532210000000  0.4970440000000  0.4292490000000 1.0
C      1  0.4771130000000  0.4678190000000  0.5423850000000 1.0
C      1  0.4906890000000  0.5304220000000  0.5006810000000 1.0
C      1  0.4851770000000  0.5554240000000  0.5726360000000 1.0
C      1  0.4220720000000  0.5070250000000  0.5275300000000 1.0
C      1  0.4887320000000  0.5092080000000  0.4596320000000 1.0
C      1  0.5242490000000  0.5105180000000  0.5234990000000 1.0
C      1  0.4783390000000  0.5207210000000  0.3878010000000 1.0
C      1  0.5958580000000  0.4847920000000  0.5390130000000 1.0
C      1  0.4073540000000  0.5450970000000  0.5551170000000 1.0
C      1  0.4040760000000  0.4646480000000  0.5417060000000 1.0
C      1  0.5616220000000  0.5296420000000  0.4858020000000 1.0
C      1  0.5941660000000  0.4953310000000  0.5656330000000 1.0
C      1  0.6114900000000  0.3747920000000  0.4935840000000 1.0
C      1  0.6120870000000  0.4198040000000  0.5112050000000 1.0
C      1  0.6106740000000  0.4553520000000  0.4574720000000 1.0
C      1  0.5303220000000  0.5398810000000  0.4036880000000 1.0
C      1  0.5764970000000  0.5582330000000  0.5287320000000 1.0
C      1  0.5482590000000  0.4841500000000  0.4743630000000 1.0
C      1  0.5696390000000  0.3980940000000  0.5019240000000 1.0
C      1  0.4656640000000  0.5379510000000  0.5599970000000 1.0
C      1  0.5627630000000  0.4210960000000  0.5649290000000 1.0
C      1  0.5624640000000  0.4144780000000  0.4097480000000 1.0
C      1  0.4716260000000  0.4537040000000  0.4613740000000 1.0
C      1  0.5130240000000  0.5585180000000  0.5336220000000 1.0
C      1  0.5079380000000  0.4239180000000  0.6382070000000 1.0
C      1  0.5988620000000  0.5239450000000  0.5641920000000 1.0
C      1  0.5557350000000  0.6556200000000  0.5057900000000 1.0
C      1  0.6497130000000  0.3121280000000  0.4642130000000 1.0
C      1  0.5697950000000  0.6087660000000  0.5807840000000 1.0
C      1  0.4812400000000  0.6263030000000  0.4669320000000 1.0
C      1  0.5214640000000  0.4668160000000  0.6179410000000 1.0
C      1  0.4618420000000  0.5127140000000  0.4528330000000 1.0
C      1  0.4430110000000  0.5189600000000  0.4723010000000 1.0
C      1  0.4588970000000  0.4756450000000  0.5208760000000 1.0
C      1  0.5002410000000  0.5845490000000  0.5237900000000 1.0
C      1  0.5061070000000  0.4869500000000  0.6049970000000 1.0
C      1  0.4158510000000  0.4390260000000  0.5437770000000 1.0
C      1  0.4654160000000  0.4234030000000  0.4142640000000 1.0
C      1  0.4040370000000  0.4259490000000  0.4980030000000 1.0
C      1  0.3669150000000  0.5306370000000  0.4917540000000 1.0
C      1  0.5128060000000  0.6309600000000  0.5087140000000 1.0
C      1  0.4824400000000  0.5325820000000  0.4135930000000 1.0
C      1  0.5090620000000  0.4074140000000  0.4736610000000 1.0
C      1  0.4717540000000  0.4051370000000  0.4365210000000 1.0
C      1  0.5493020000000  0.5972450000000  0.5122180000000 1.0
C      1  0.5137910000000  0.4366230000000  0.5640950000000 1.0
C      1  0.4438050000000  0.4065160000000  0.5194190000000 1.0
C      1  0.5675530000000  0.5667410000000  0.4228810000000 1.0
C      1  0.4172190000000  0.4886020000000  0.5498450000000 1.0
C      1  0.4527710000000  0.3937950000000  0.4543810000000 1.0
C      1  0.5109200000000  0.5540510000000  0.5615410000000 1.0
C      1  0.4108600000000  0.5736200000000  0.5536740000000 1.0
C      1  0.4971410000000  0.4446720000000  0.5410130000000 1.0
C      1  0.3887210000000  0.4505110000000  0.4965510000000 1.0
C      1  0.5435300000000  0.5404320000000  0.4660180000000 1.0
C      1  0.4030380000000  0.5334330000000  0.6029660000000 1.0
C      1  0.4908260000000  0.4371610000000  0.4073910000000 1.0
C      1  0.5497620000000  0.5317370000000  0.5874120000000 1.0
C      1  0.4815230000000  0.5670220000000  0.4737310000000 1.0
C      1  0.3975600000000  0.5231340000000  0.4549050000000 1.0
C      1  0.4209470000000  0.5756860000000  0.3999450000000 1.0
C      1  0.4925060000000  0.6337700000000  0.4897420000000 1.0
C      1  0.4857420000000  0.5019810000000  0.6170420000000 1.0
C      1  0.4582220000000  0.5249060000000  0.4279530000000 1.0
C      1  0.5482090000000  0.3981460000000  0.3952660000000 1.0
C      1  0.5322750000000  0.4866330000000  0.5631500000000 1.0
C      1  0.4200270000000  0.4214640000000  0.5219740000000 1.0
C      1  0.5092190000000  0.5413190000000  0.4236110000000 1.0
C      1  0.5427350000000  0.4405730000000  0.5656230000000 1.0
C      1  0.5594890000000  0.5181840000000  0.6086990000000 1.0
C      1  0.5271060000000  0.5224790000000  0.3815200000000 1.0
C      1  0.5623770000000  0.5017420000000  0.4918410000000 1.0
C      1  0.4318690000000  0.5985390000000  0.3909020000000 1.0
C      1  0.6185140000000  0.4524310000000  0.5048320000000 1.0
C      1  0.5193620000000  0.4152810000000  0.4993900000000 1.0
C      1  0.5117030000000  0.4880310000000  0.5121160000000 1.0
C      1  0.4673080000000  0.6174650000000  0.4210600000000 1.0
C      1  0.5484670000000  0.4735540000000  0.6236070000000 1.0
C      1  0.5068780000000  0.4886140000000  0.5761810000000 1.0
C      1  0.4470770000000  0.4664430000000  0.4522090000000 1.0
C      1  0.4730250000000  0.6085190000000  0.4470950000000 1.0
C      1  0.5127560000000  0.5350340000000  0.5176810000000 1.0
C      1  0.4504790000000  0.5858440000000  0.5873170000000 1.0
C      1  0.4630230000000  0.3889160000000  0.4803910000000 1.0
C      1  0.5354850000000  0.4907020000000  0.4499350000000 1.0
C      1  0.4571910000000  0.3674170000000  0.4986050000000 1.0
C      1  0.5072080000000  0.4384820000000  0.5141450000000 1.0
C      1  0.4617300000000  0.4137360000000  0.4966520000000 1.0
C      1  0.5948210000000  0.4438450000000  0.4396400000000 1.0
C      1  0.5301390000000  0.6526500000000  0.5138020000000 1.0
C      1  0.5679020000000  0.5174560000000  0.4195680000000 1.0
C      1  0.4961790000000  0.4608220000000  0.4489580000000 1.0
C      1  0.4986450000000  0.4126870000000  0.4477310000000 1.0
C      1  0.4949870000000  0.5379480000000  0.4716820000000 1.0
C      1  0.4556230000000  0.5688950000000  0.5155730000000 1.0
C      1  0.4512790000000  0.6147770000000  0.3998130000000 1.0
C      1  0.4806830000000  0.4881980000000  0.5631040000000 1.0
C      1  0.4591530000000  0.5451840000000  0.5321540000000 1.0
C      1  0.4657500000000  0.4399320000000  0.4869570000000 1.0
C      1  0.4798420000000  0.5766550000000  0.5015480000000 1.0
C      1  0.4285540000000  0.5044280000000  0.5717100000000 1.0
C      1  0.4764370000000  0.5821820000000  0.5755160000000 1.0
C      1  0.4179250000000  0.5275530000000  0.4740450000000 1.0
C      1  0.4459810000000  0.3777460000000  0.5217160000000 1.0
C      1  0.4339600000000  0.4710080000000  0.4777260000000 1.0
C      1  0.5008700000000  0.4516050000000  0.3858300000000 1.0
C      1  0.4592550000000  0.5102120000000  0.5732490000000 1.0
C      1  0.3811550000000  0.5323730000000  0.5144110000000 1.0
C      1  0.4250410000000  0.4003220000000  0.4555410000000 1.0
END
