TITL C-627112-676-1873 267.133022381767 125000 -761.494391514662 0 0 126 (C1) n - 1
REM
REM in /home/nfs/bkarasulu/CARBON/AIRSS/Generating-Clusters/LCBOP/Only-C1/SD-CG/FIRE-CG
REM
REM
REM
REM
REM
REM ./C.cell (11c1c37f851c82e70ff6c80c92926a4b)
REM AIRSS Version 0.9.1 bugfix July 2018 build 013d7b7c2542+ Fri, 06 Jul 2018 19:26:36 +0100
REM compiler GCC version 9.2.1 20190827 (Red Hat 9.2.1-1)
REM options -cpp -mtune=generic -march=x86-64 -g -O0 -fpre-include=/usr/include/finclude/math-vector-fortran.h
REM seed -336283006 -841000967 -1597835811 1628512743 2082105386 -1156699399 1316906200 1764033975 -97094585 1085084406 1111708818 558268844 1990738951 -1704392991 1712624439 1164035207 -1339865140 -187213271 -1852615273 867096906 1332583636 1920535206 339494584 137211459 2005371292 -2145727919 150416081 349486965 2139480432 785918553 1685038906 -1864035017 2032630807
REM
CELL 1.54180   50.00000   50.00000   50.00000   90.00000   90.00000   90.00000
LATT -1
SFAC C  
C      1  0.4307150000000  0.5143200000000  0.4421400000000 1.0
C      1  0.4345100000000  0.5783970000000  0.4312530000000 1.0
C      1  0.4680500000000  0.5617940000000  0.5505970000000 1.0
C      1  0.5326860000000  0.5382360000000  0.5298150000000 1.0
C      1  0.4656320000000  0.5541620000000  0.5789220000000 1.0
C      1  0.4524240000000  0.4326090000000  0.4754580000000 1.0
C      1  0.5271730000000  0.4705010000000  0.4297080000000 1.0
C      1  0.3992490000000  0.5752090000000  0.4868680000000 1.0
C      1  0.5753380000000  0.4810880000000  0.4464870000000 1.0
C      1  0.5083010000000  0.4660360000000  0.5469230000000 1.0
C      1  0.5045700000000  0.4443060000000  0.5006380000000 1.0
C      1  0.4931940000000  0.4673330000000  0.4774450000000 1.0
C      1  0.4146430000000  0.5481400000000  0.5733070000000 1.0
C      1  0.4536570000000  0.5730350000000  0.5282750000000 1.0
C      1  0.4801910000000  0.5940250000000  0.4920580000000 1.0
C      1  0.5317040000000  0.4510150000000  0.5524710000000 1.0
C      1  0.5996930000000  0.4783940000000  0.4652360000000 1.0
C      1  0.4248270000000  0.5725680000000  0.5288970000000 1.0
C      1  0.5008900000000  0.4262620000000  0.4288600000000 1.0
C      1  0.5799210000000  0.4535170000000  0.5492290000000 1.0
C      1  0.5598930000000  0.5214560000000  0.5691310000000 1.0
C      1  0.4554830000000  0.4887810000000  0.5131950000000 1.0
C      1  0.4745260000000  0.4933250000000  0.4184340000000 1.0
C      1  0.5121040000000  0.4964630000000  0.5502020000000 1.0
C      1  0.4789970000000  0.5363610000000  0.3996510000000 1.0
C      1  0.4284030000000  0.4857340000000  0.4416810000000 1.0
C      1  0.5242520000000  0.4967640000000  0.4982780000000 1.0
C      1  0.4315760000000  0.4041550000000  0.5337960000000 1.0
C      1  0.4896410000000  0.5072790000000  0.5712010000000 1.0
C      1  0.5568220000000  0.4728770000000  0.4236570000000 1.0
C      1  0.3996390000000  0.5240570000000  0.5703300000000 1.0
C      1  0.5470470000000  0.5376740000000  0.5040850000000 1.0
C      1  0.5475380000000  0.4781030000000  0.5105330000000 1.0
C      1  0.4761910000000  0.5462200000000  0.4896720000000 1.0
C      1  0.5218660000000  0.4138610000000  0.5824270000000 1.0
C      1  0.5167170000000  0.4854500000000  0.6091370000000 1.0
C      1  0.5590250000000  0.5091280000000  0.5942960000000 1.0
C      1  0.3924480000000  0.5127900000000  0.4975400000000 1.0
C      1  0.6088680000000  0.4700080000000  0.5158930000000 1.0
C      1  0.5039950000000  0.5680450000000  0.4296180000000 1.0
C      1  0.5394230000000  0.5187240000000  0.4542950000000 1.0
C      1  0.5162810000000  0.4815350000000  0.4743280000000 1.0
C      1  0.4810840000000  0.5769200000000  0.4459850000000 1.0
C      1  0.5962600000000  0.4943100000000  0.5242660000000 1.0
C      1  0.5322590000000  0.4232540000000  0.5590050000000 1.0
C      1  0.4469650000000  0.4439780000000  0.5014120000000 1.0
C      1  0.4539780000000  0.5635370000000  0.4445190000000 1.0
C      1  0.6013530000000  0.4609450000000  0.4887350000000 1.0
C      1  0.5041870000000  0.5339920000000  0.5249920000000 1.0
C      1  0.4734190000000  0.4864380000000  0.4686190000000 1.0
C      1  0.5053990000000  0.5047780000000  0.5205010000000 1.0
C      1  0.5244360000000  0.4916690000000  0.4496070000000 1.0
C      1  0.4575410000000  0.3974500000000  0.5306420000000 1.0
C      1  0.5368870000000  0.4478440000000  0.4970490000000 1.0
C      1  0.5545880000000  0.4631070000000  0.5417640000000 1.0
C      1  0.4104080000000  0.5607310000000  0.5070200000000 1.0
C      1  0.4907910000000  0.4564430000000  0.5256800000000 1.0
C      1  0.4382840000000  0.4438700000000  0.4545110000000 1.0
C      1  0.4479020000000  0.5051340000000  0.5344280000000 1.0
C      1  0.5009330000000  0.5405300000000  0.4194850000000 1.0
C      1  0.5990170000000  0.5648540000000  0.5249300000000 1.0
C      1  0.5441700000000  0.4059610000000  0.5399840000000 1.0
C      1  0.5242620000000  0.5879090000000  0.4680910000000 1.0
C      1  0.5593750000000  0.4310350000000  0.5016200000000 1.0
C      1  0.3641850000000  0.4706330000000  0.6026180000000 1.0
C      1  0.5532890000000  0.4055740000000  0.5134760000000 1.0
C      1  0.5990140000000  0.5385510000000  0.5144010000000 1.0
C      1  0.4939760000000  0.5268870000000  0.4469590000000 1.0
C      1  0.4132590000000  0.4680370000000  0.4668040000000 1.0
C      1  0.5016420000000  0.4541780000000  0.4235150000000 1.0
C      1  0.5851710000000  0.5265500000000  0.4689920000000 1.0
C      1  0.4865540000000  0.5348090000000  0.5870470000000 1.0
C      1  0.5001710000000  0.5367050000000  0.4748530000000 1.0
C      1  0.4809700000000  0.5389520000000  0.5394570000000 1.0
C      1  0.4759050000000  0.4169370000000  0.4723860000000 1.0
C      1  0.4049290000000  0.4650500000000  0.4939390000000 1.0
C      1  0.5713680000000  0.5781410000000  0.4746900000000 1.0
C      1  0.4633800000000  0.4618740000000  0.5168270000000 1.0
C      1  0.4809190000000  0.4020040000000  0.5179130000000 1.0
C      1  0.4119850000000  0.5689450000000  0.5540430000000 1.0
C      1  0.4548890000000  0.5289950000000  0.4810670000000 1.0
C      1  0.5420100000000  0.4944840000000  0.6090280000000 1.0
C      1  0.4797890000000  0.5025010000000  0.4449460000000 1.0
C      1  0.5840320000000  0.4383560000000  0.4898940000000 1.0
C      1  0.4189580000000  0.4441310000000  0.5082390000000 1.0
C      1  0.5667400000000  0.5080890000000  0.4538680000000 1.0
C      1  0.5991910000000  0.5197500000000  0.5377440000000 1.0
C      1  0.5286230000000  0.5708770000000  0.4442530000000 1.0
C      1  0.4875790000000  0.4119620000000  0.4473960000000 1.0
C      1  0.5468180000000  0.5907020000000  0.5149920000000 1.0
C      1  0.5587050000000  0.4900910000000  0.4004890000000 1.0
C      1  0.4389310000000  0.5501450000000  0.5880270000000 1.0
C      1  0.3921480000000  0.4863860000000  0.5086940000000 1.0
C      1  0.4085990000000  0.5325350000000  0.5095390000000 1.0
C      1  0.5716220000000  0.4975350000000  0.5086160000000 1.0
C      1  0.4942960000000  0.4884420000000  0.5943750000000 1.0
C      1  0.3882630000000  0.4868630000000  0.5370870000000 1.0
C      1  0.4739460000000  0.4652030000000  0.4206520000000 1.0
C      1  0.5466240000000  0.5485860000000  0.4463670000000 1.0
C      1  0.5371150000000  0.4236720000000  0.4634170000000 1.0
C      1  0.4688730000000  0.5143590000000  0.5499740000000 1.0
C      1  0.5468760000000  0.5888400000000  0.4863990000000 1.0
C      1  0.3881570000000  0.4988170000000  0.5631130000000 1.0
C      1  0.5278410000000  0.5250560000000  0.4837460000000 1.0
C      1  0.5814900000000  0.5355620000000  0.5566450000000 1.0
C      1  0.4580860000000  0.5009300000000  0.4877100000000 1.0
C      1  0.4687950000000  0.5113110000000  0.3979400000000 1.0
C      1  0.6043010000000  0.4517420000000  0.5373890000000 1.0
C      1  0.4261030000000  0.5214770000000  0.5288850000000 1.0
C      1  0.4133110000000  0.4225590000000  0.5255590000000 1.0
C      1  0.4474300000000  0.4612050000000  0.4333760000000 1.0
C      1  0.6092530000000  0.5070290000000  0.4687730000000 1.0
C      1  0.5788060000000  0.5645290000000  0.5462720000000 1.0
C      1  0.4443800000000  0.5367000000000  0.4550310000000 1.0
C      1  0.5254190000000  0.5294480000000  0.4049860000000 1.0
C      1  0.3756480000000  0.4843050000000  0.5836210000000 1.0
C      1  0.5396810000000  0.3980030000000  0.4690030000000 1.0
C      1  0.5731120000000  0.5540720000000  0.4592380000000 1.0
C      1  0.4948590000000  0.5917960000000  0.4682920000000 1.0
C      1  0.5370170000000  0.5182740000000  0.5527870000000 1.0
C      1  0.4688750000000  0.5710090000000  0.5036210000000 1.0
C      1  0.5570860000000  0.5815360000000  0.5386560000000 1.0
C      1  0.5463180000000  0.3871300000000  0.4931090000000 1.0
C      1  0.5752180000000  0.5269680000000  0.4982040000000 1.0
C      1  0.4916280000000  0.4172020000000  0.4963560000000 1.0
C      1  0.5442400000000  0.5125820000000  0.3958950000000 1.0
END
