TITL C-627110-360-1606 1.50992496218195e-05 125000 -714.453191851627 0 0 117 (C1) n - 1
REM
REM in /home/nfs/bkarasulu/CARBON/AIRSS/Generating-Clusters/LCBOP/Only-C1/SD-CG/FIRE-CG
REM
REM
REM
REM
REM
REM ./C.cell (11c1c37f851c82e70ff6c80c92926a4b)
REM AIRSS Version 0.9.1 bugfix July 2018 build 013d7b7c2542+ Fri, 06 Jul 2018 19:26:36 +0100
REM compiler GCC version 9.2.1 20190827 (Red Hat 9.2.1-1)
REM options -cpp -mtune=generic -march=x86-64 -g -O0 -fpre-include=/usr/include/finclude/math-vector-fortran.h
REM seed -1665548904 -568215872 470387950 1224308453 1319780521 -1927191313 417564024 -1348681731 -1019698237 1267644413 -1938352505 1446978106 -1439044648 1278215165 1282928229 -1724029524 -180364567 -660303599 1269798501 -348575500 1845022907 -251611384 -485007405 2023864537 1398334318 2108421484 508586064 111104263 -555034335 125412345 1625614556 720418356 -2077444762
REM
CELL 1.54180   50.00000   50.00000   50.00000   90.00000   90.00000   90.00000
LATT -1
SFAC C  
C      1  0.4518270000000  0.4653500000000  0.5905940000000 1.0
C      1  0.5704910000000  0.4081090000000  0.4474300000000 1.0
C      1  0.4437040000000  0.5011470000000  0.5028350000000 1.0
C      1  0.3999960000000  0.4989030000000  0.4382220000000 1.0
C      1  0.4413230000000  0.5504370000000  0.4668530000000 1.0
C      1  0.4575060000000  0.5096170000000  0.5259460000000 1.0
C      1  0.4185660000000  0.5135770000000  0.4976590000000 1.0
C      1  0.5467100000000  0.4245360000000  0.5010230000000 1.0
C      1  0.4594210000000  0.3988640000000  0.5078960000000 1.0
C      1  0.4000770000000  0.4983660000000  0.5148630000000 1.0
C      1  0.4769170000000  0.6415490000000  0.4589330000000 1.0
C      1  0.4197950000000  0.5311950000000  0.4741860000000 1.0
C      1  0.5116230000000  0.5418060000000  0.5859760000000 1.0
C      1  0.4013140000000  0.4748760000000  0.5325530000000 1.0
C      1  0.5274840000000  0.3826010000000  0.4676490000000 1.0
C      1  0.4809590000000  0.4982290000000  0.3982270000000 1.0
C      1  0.4989850000000  0.5894060000000  0.5026000000000 1.0
C      1  0.4144430000000  0.4249400000000  0.5179870000000 1.0
C      1  0.5339380000000  0.3950380000000  0.5395710000000 1.0
C      1  0.5155820000000  0.5339350000000  0.4398320000000 1.0
C      1  0.4736700000000  0.5050780000000  0.5965210000000 1.0
C      1  0.5754760000000  0.4879240000000  0.4524290000000 1.0
C      1  0.4542320000000  0.4629510000000  0.5440330000000 1.0
C      1  0.4356140000000  0.5773490000000  0.4674000000000 1.0
C      1  0.4837540000000  0.4750720000000  0.4417340000000 1.0
C      1  0.4677110000000  0.4879470000000  0.5409000000000 1.0
C      1  0.5812540000000  0.4994550000000  0.5521380000000 1.0
C      1  0.4337280000000  0.4705710000000  0.4656530000000 1.0
C      1  0.5932440000000  0.5076160000000  0.4639290000000 1.0
C      1  0.4911110000000  0.4881160000000  0.5800200000000 1.0
C      1  0.5428150000000  0.5373690000000  0.3991600000000 1.0
C      1  0.5840920000000  0.5501410000000  0.5068580000000 1.0
C      1  0.4890840000000  0.4294120000000  0.4708110000000 1.0
C      1  0.5880560000000  0.5560320000000  0.4421260000000 1.0
C      1  0.5478770000000  0.5116830000000  0.5035390000000 1.0
C      1  0.4571040000000  0.5944840000000  0.5351860000000 1.0
C      1  0.4366680000000  0.4624230000000  0.5659480000000 1.0
C      1  0.4908500000000  0.4470330000000  0.4926060000000 1.0
C      1  0.4813530000000  0.3872400000000  0.4962840000000 1.0
C      1  0.4983400000000  0.5786050000000  0.4401130000000 1.0
C      1  0.4731210000000  0.5162200000000  0.4694540000000 1.0
C      1  0.5010200000000  0.5118050000000  0.5068210000000 1.0
C      1  0.5600980000000  0.5867830000000  0.5281990000000 1.0
C      1  0.4698480000000  0.5356350000000  0.5297750000000 1.0
C      1  0.4221170000000  0.5031410000000  0.5993620000000 1.0
C      1  0.5818040000000  0.4331090000000  0.4448700000000 1.0
C      1  0.5458390000000  0.4009150000000  0.5161560000000 1.0
C      1  0.5121030000000  0.4999230000000  0.5311920000000 1.0
C      1  0.3663380000000  0.4946850000000  0.3964010000000 1.0
C      1  0.5971560000000  0.5253550000000  0.5115170000000 1.0
C      1  0.5290730000000  0.4745810000000  0.4563330000000 1.0
C      1  0.4755550000000  0.5971040000000  0.5160990000000 1.0
C      1  0.5017600000000  0.4419490000000  0.5937250000000 1.0
C      1  0.5043240000000  0.3818140000000  0.4823190000000 1.0
C      1  0.5712900000000  0.5760420000000  0.4366690000000 1.0
C      1  0.4558840000000  0.4448110000000  0.5231510000000 1.0
C      1  0.4489780000000  0.4766350000000  0.4884630000000 1.0
C      1  0.4897710000000  0.5491610000000  0.5725290000000 1.0
C      1  0.5192550000000  0.4032080000000  0.5603820000000 1.0
C      1  0.5507220000000  0.3906190000000  0.4553730000000 1.0
C      1  0.3825800000000  0.4967280000000  0.4166790000000 1.0
C      1  0.4585650000000  0.6543860000000  0.4447600000000 1.0
C      1  0.4157580000000  0.4774200000000  0.4471810000000 1.0
C      1  0.5127980000000  0.4529140000000  0.5100110000000 1.0
C      1  0.4403970000000  0.6668020000000  0.4307810000000 1.0
C      1  0.4925280000000  0.5517400000000  0.4466280000000 1.0
C      1  0.5595380000000  0.6034980000000  0.5481920000000 1.0
C      1  0.5214790000000  0.5909090000000  0.4340290000000 1.0
C      1  0.5589990000000  0.4853580000000  0.5417520000000 1.0
C      1  0.4939210000000  0.4917870000000  0.5516940000000 1.0
C      1  0.4926790000000  0.5396940000000  0.5121940000000 1.0
C      1  0.4938090000000  0.5012950000000  0.4810460000000 1.0
C      1  0.4048380000000  0.4955320000000  0.5797320000000 1.0
C      1  0.4863090000000  0.4198230000000  0.4458780000000 1.0
C      1  0.5964850000000  0.5322300000000  0.4507390000000 1.0
C      1  0.5364430000000  0.5564460000000  0.4967690000000 1.0
C      1  0.4114840000000  0.4762980000000  0.5599810000000 1.0
C      1  0.4658530000000  0.4571320000000  0.4999520000000 1.0
C      1  0.4814860000000  0.4608430000000  0.5881540000000 1.0
C      1  0.5280640000000  0.5248880000000  0.5985100000000 1.0
C      1  0.5974970000000  0.5163930000000  0.5386150000000 1.0
C      1  0.5400710000000  0.4475550000000  0.5168190000000 1.0
C      1  0.5877900000000  0.4595180000000  0.5144000000000 1.0
C      1  0.5475200000000  0.4956660000000  0.4523980000000 1.0
C      1  0.4426460000000  0.4200560000000  0.5180800000000 1.0
C      1  0.5481290000000  0.5888800000000  0.4333760000000 1.0
C      1  0.6025270000000  0.4777980000000  0.5011310000000 1.0
C      1  0.5398920000000  0.5010110000000  0.5286360000000 1.0
C      1  0.5112690000000  0.6103410000000  0.4875130000000 1.0
C      1  0.5359390000000  0.5222690000000  0.4575010000000 1.0
C      1  0.5068550000000  0.4197090000000  0.5773130000000 1.0
C      1  0.5604570000000  0.5659830000000  0.5096360000000 1.0
C      1  0.5268120000000  0.4352690000000  0.4279900000000 1.0
C      1  0.5195220000000  0.5300860000000  0.4114920000000 1.0
C      1  0.4481590000000  0.4926570000000  0.6021920000000 1.0
C      1  0.4747820000000  0.4803930000000  0.4171680000000 1.0
C      1  0.5353020000000  0.4473750000000  0.4522260000000 1.0
C      1  0.5438940000000  0.4315360000000  0.4740210000000 1.0
C      1  0.5405330000000  0.5311650000000  0.4842500000000 1.0
C      1  0.4533260000000  0.5744910000000  0.5527210000000 1.0
C      1  0.5379970000000  0.6158740000000  0.4884880000000 1.0
C      1  0.4945140000000  0.6272920000000  0.4726700000000 1.0
C      1  0.5326720000000  0.4749100000000  0.6129040000000 1.0
C      1  0.5024940000000  0.4818570000000  0.4619380000000 1.0
C      1  0.6005620000000  0.5045180000000  0.4914960000000 1.0
C      1  0.5831380000000  0.4604940000000  0.4465450000000 1.0
C      1  0.4004440000000  0.4481130000000  0.5218620000000 1.0
C      1  0.5210340000000  0.4492420000000  0.6137420000000 1.0
C      1  0.5353350000000  0.5010210000000  0.6080530000000 1.0
C      1  0.4689820000000  0.5511470000000  0.5536540000000 1.0
C      1  0.5034290000000  0.4219950000000  0.4251250000000 1.0
C      1  0.5627440000000  0.4608420000000  0.5278440000000 1.0
C      1  0.5089800000000  0.5624380000000  0.5042440000000 1.0
C      1  0.4989820000000  0.5178790000000  0.3967840000000 1.0
C      1  0.4032320000000  0.5228410000000  0.4527030000000 1.0
C      1  0.5276860000000  0.4315900000000  0.6335690000000 1.0
C      1  0.4680930000000  0.5415960000000  0.4592220000000 1.0
END
