TITL C-627110-360-1656 4.62334360851233e-07 125000 -1094.08287115599 0 0 178 (C1) n - 1
REM
REM in /home/nfs/bkarasulu/CARBON/AIRSS/Generating-Clusters/LCBOP/Only-C1/SD-CG/FIRE-CG
REM
REM
REM
REM
REM
REM ./C.cell (11c1c37f851c82e70ff6c80c92926a4b)
REM AIRSS Version 0.9.1 bugfix July 2018 build 013d7b7c2542+ Fri, 06 Jul 2018 19:26:36 +0100
REM compiler GCC version 9.2.1 20190827 (Red Hat 9.2.1-1)
REM options -cpp -mtune=generic -march=x86-64 -g -O0 -fpre-include=/usr/include/finclude/math-vector-fortran.h
REM seed -1948467769 1749951880 -1288075170 -1594404704 1938185440 1992766510 165844293 -1875386120 -1712579929 -1137273624 -1950430824 675733355 1613581423 -466011350 1721621199 425611276 -1017909344 583428148 141708620 -1429622122 1990248914 399627826 290339462 -1239013865 -1677512131 -759565561 1422647590 1855973616 580028361 -1185454147 450359330 1172016159 -1032959343
REM
CELL 1.54180   50.00000   50.00000   50.00000   90.00000   90.00000   90.00000
LATT -1
SFAC C  
C      1  0.4398970000000  0.5023850000000  0.3869280000000 1.0
C      1  0.3955680000000  0.4224430000000  0.4408080000000 1.0
C      1  0.4286670000000  0.4909580000000  0.6061980000000 1.0
C      1  0.5823700000000  0.4932080000000  0.5857490000000 1.0
C      1  0.4835900000000  0.5757630000000  0.3810970000000 1.0
C      1  0.5902090000000  0.5214720000000  0.5754530000000 1.0
C      1  0.4905190000000  0.4571700000000  0.5103330000000 1.0
C      1  0.5148290000000  0.4546330000000  0.5615300000000 1.0
C      1  0.5496610000000  0.4536800000000  0.4290000000000 1.0
C      1  0.4144430000000  0.5001920000000  0.4003000000000 1.0
C      1  0.4465690000000  0.5460410000000  0.4048180000000 1.0
C      1  0.5078010000000  0.3661410000000  0.5068840000000 1.0
C      1  0.5384480000000  0.6112870000000  0.5209550000000 1.0
C      1  0.4774200000000  0.4151240000000  0.4796120000000 1.0
C      1  0.5604580000000  0.5953850000000  0.5135000000000 1.0
C      1  0.5255450000000  0.5171670000000  0.5805580000000 1.0
C      1  0.4982580000000  0.4951650000000  0.4829210000000 1.0
C      1  0.4353800000000  0.4705580000000  0.4779100000000 1.0
C      1  0.4599370000000  0.4291440000000  0.5854250000000 1.0
C      1  0.3765130000000  0.4780720000000  0.4628390000000 1.0
C      1  0.4957740000000  0.6240600000000  0.5031110000000 1.0
C      1  0.4258430000000  0.4594210000000  0.4240590000000 1.0
C      1  0.5555530000000  0.3938530000000  0.4423510000000 1.0
C      1  0.4664520000000  0.4933190000000  0.4249560000000 1.0
C      1  0.5562450000000  0.4935520000000  0.6052030000000 1.0
C      1  0.5869370000000  0.5070820000000  0.4291830000000 1.0
C      1  0.5830310000000  0.4598620000000  0.4646910000000 1.0
C      1  0.5453030000000  0.5047270000000  0.5109430000000 1.0
C      1  0.5499510000000  0.5508720000000  0.3941450000000 1.0
C      1  0.4201380000000  0.5479990000000  0.4142570000000 1.0
C      1  0.5605130000000  0.5183180000000  0.4911980000000 1.0
C      1  0.5609770000000  0.4963080000000  0.5332200000000 1.0
C      1  0.3597320000000  0.4552600000000  0.4582700000000 1.0
C      1  0.4605570000000  0.5663200000000  0.3910490000000 1.0
C      1  0.3825060000000  0.4840410000000  0.4900440000000 1.0
C      1  0.4616790000000  0.4544520000000  0.5174020000000 1.0
C      1  0.5854640000000  0.4394610000000  0.5594250000000 1.0
C      1  0.5335790000000  0.5689080000000  0.5820820000000 1.0
C      1  0.3325640000000  0.4569760000000  0.4603890000000 1.0
C      1  0.3970520000000  0.5623970000000  0.5386980000000 1.0
C      1  0.5987130000000  0.5230500000000  0.5470520000000 1.0
C      1  0.5090450000000  0.5083270000000  0.3938530000000 1.0
C      1  0.4896630000000  0.4983710000000  0.4406080000000 1.0
C      1  0.6219340000000  0.4817450000000  0.4834260000000 1.0
C      1  0.4174490000000  0.4335130000000  0.4300880000000 1.0
C      1  0.4641650000000  0.5822760000000  0.4836210000000 1.0
C      1  0.5408030000000  0.4963600000000  0.4557660000000 1.0
C      1  0.5896550000000  0.4999690000000  0.5332370000000 1.0
C      1  0.4735300000000  0.5326000000000  0.5339380000000 1.0
C      1  0.5856900000000  0.5248610000000  0.4508130000000 1.0
C      1  0.5074290000000  0.5786790000000  0.5807810000000 1.0
C      1  0.4493380000000  0.5733710000000  0.5369610000000 1.0
C      1  0.5529700000000  0.5881330000000  0.5711160000000 1.0
C      1  0.4811380000000  0.3732700000000  0.5734870000000 1.0
C      1  0.5304870000000  0.3836030000000  0.4427140000000 1.0
C      1  0.5141500000000  0.5367220000000  0.4718910000000 1.0
C      1  0.6062530000000  0.5577940000000  0.5076590000000 1.0
C      1  0.4993640000000  0.4400460000000  0.4412320000000 1.0
C      1  0.6030270000000  0.4606510000000  0.4874540000000 1.0
C      1  0.5439910000000  0.5406420000000  0.5769290000000 1.0
C      1  0.4031690000000  0.5245410000000  0.4100980000000 1.0
C      1  0.5215480000000  0.6144680000000  0.4964940000000 1.0
C      1  0.5929120000000  0.4314630000000  0.5316270000000 1.0
C      1  0.4920270000000  0.5411200000000  0.6118390000000 1.0
C      1  0.5143510000000  0.4306270000000  0.5451240000000 1.0
C      1  0.4563650000000  0.5643300000000  0.4631550000000 1.0
C      1  0.4944710000000  0.5433420000000  0.4300220000000 1.0
C      1  0.4046820000000  0.5850150000000  0.5230240000000 1.0
C      1  0.3726390000000  0.4312840000000  0.4513360000000 1.0
C      1  0.5340290000000  0.5743100000000  0.3968000000000 1.0
C      1  0.4903350000000  0.3628290000000  0.5269730000000 1.0
C      1  0.5167250000000  0.4895040000000  0.4422170000000 1.0
C      1  0.5540680000000  0.5683290000000  0.5131030000000 1.0
C      1  0.5779150000000  0.5741120000000  0.5782510000000 1.0
C      1  0.4568700000000  0.4496400000000  0.6032870000000 1.0
C      1  0.5446480000000  0.4585180000000  0.4876380000000 1.0
C      1  0.5560980000000  0.4166550000000  0.5935840000000 1.0
C      1  0.4618370000000  0.5742260000000  0.5845120000000 1.0
C      1  0.4994160000000  0.5703940000000  0.4376760000000 1.0
C      1  0.4886670000000  0.4665820000000  0.4810090000000 1.0
C      1  0.4966490000000  0.3753910000000  0.5950360000000 1.0
C      1  0.5077810000000  0.5564650000000  0.4916710000000 1.0
C      1  0.5269520000000  0.5585940000000  0.5114570000000 1.0
C      1  0.4408350000000  0.5205420000000  0.4764330000000 1.0
C      1  0.5170890000000  0.4975780000000  0.5053780000000 1.0
C      1  0.5049090000000  0.4792870000000  0.5235170000000 1.0
C      1  0.5500060000000  0.4111190000000  0.5205610000000 1.0
C      1  0.4785620000000  0.4122330000000  0.5100230000000 1.0
C      1  0.6133510000000  0.5071690000000  0.4857420000000 1.0
C      1  0.5183870000000  0.3847430000000  0.6072510000000 1.0
C      1  0.4521830000000  0.4692000000000  0.4243280000000 1.0
C      1  0.5489120000000  0.4779220000000  0.4102590000000 1.0
C      1  0.5334430000000  0.4351800000000  0.4755160000000 1.0
C      1  0.4267310000000  0.5283170000000  0.4996920000000 1.0
C      1  0.5247370000000  0.4861380000000  0.3962770000000 1.0
C      1  0.4131930000000  0.5080980000000  0.5919020000000 1.0
C      1  0.5572760000000  0.5921540000000  0.4676520000000 1.0
C      1  0.5746200000000  0.4426590000000  0.4420010000000 1.0
C      1  0.5215080000000  0.5417320000000  0.5340070000000 1.0
C      1  0.5508290000000  0.4578250000000  0.5137920000000 1.0
C      1  0.5737890000000  0.4139940000000  0.4424730000000 1.0
C      1  0.5274490000000  0.4149440000000  0.4987410000000 1.0
C      1  0.5587770000000  0.5254070000000  0.3958730000000 1.0
C      1  0.4324740000000  0.5888680000000  0.5195770000000 1.0
C      1  0.5576670000000  0.4317110000000  0.5683590000000 1.0
C      1  0.5671960000000  0.5014740000000  0.4097780000000 1.0
C      1  0.4594880000000  0.5873350000000  0.5593400000000 1.0
C      1  0.4905560000000  0.4264280000000  0.4181290000000 1.0
C      1  0.5579410000000  0.4759210000000  0.4693340000000 1.0
C      1  0.4383270000000  0.4635700000000  0.5044400000000 1.0
C      1  0.4866120000000  0.5644360000000  0.5947830000000 1.0
C      1  0.4262930000000  0.5262740000000  0.5278060000000 1.0
C      1  0.5297620000000  0.6015910000000  0.4693530000000 1.0
C      1  0.4744510000000  0.6142620000000  0.5192680000000 1.0
C      1  0.4074700000000  0.5609950000000  0.4368380000000 1.0
C      1  0.4608670000000  0.5169770000000  0.4045050000000 1.0
C      1  0.5945000000000  0.5466370000000  0.5312030000000 1.0
C      1  0.4617530000000  0.5357960000000  0.4648700000000 1.0
C      1  0.4064410000000  0.4797180000000  0.4198040000000 1.0
C      1  0.5879690000000  0.5166940000000  0.4788570000000 1.0
C      1  0.5425790000000  0.5259860000000  0.4668510000000 1.0
C      1  0.4837810000000  0.4419100000000  0.4657400000000 1.0
C      1  0.4197880000000  0.4739430000000  0.5248480000000 1.0
C      1  0.4986510000000  0.5115610000000  0.6160240000000 1.0
C      1  0.5353890000000  0.5916560000000  0.4196560000000 1.0
C      1  0.4542720000000  0.4501850000000  0.5446000000000 1.0
C      1  0.5036340000000  0.4300280000000  0.5162810000000 1.0
C      1  0.5103790000000  0.5770230000000  0.3813600000000 1.0
C      1  0.4749820000000  0.5004860000000  0.5761590000000 1.0
C      1  0.4601260000000  0.4256490000000  0.5569190000000 1.0
C      1  0.5962800000000  0.5668190000000  0.4838070000000 1.0
C      1  0.4772010000000  0.3787030000000  0.5463230000000 1.0
C      1  0.3879390000000  0.4912050000000  0.4401000000000 1.0
C      1  0.5021760000000  0.5060650000000  0.5633400000000 1.0
C      1  0.5638370000000  0.5446180000000  0.4532350000000 1.0
C      1  0.4904090000000  0.5273140000000  0.4049000000000 1.0
C      1  0.4454580000000  0.4933920000000  0.3618880000000 1.0
C      1  0.4050840000000  0.5241780000000  0.5716330000000 1.0
C      1  0.6021230000000  0.4544820000000  0.5166670000000 1.0
C      1  0.3861040000000  0.5195050000000  0.4344470000000 1.0
C      1  0.4359340000000  0.4948590000000  0.4670690000000 1.0
C      1  0.5733450000000  0.5690540000000  0.4661650000000 1.0
C      1  0.5322190000000  0.6063620000000  0.5493880000000 1.0
C      1  0.4505670000000  0.5177840000000  0.5395360000000 1.0
C      1  0.5405020000000  0.3996000000000  0.6069520000000 1.0
C      1  0.4527620000000  0.6013580000000  0.5028490000000 1.0
C      1  0.5056350000000  0.5999670000000  0.5598740000000 1.0
C      1  0.4899530000000  0.5244890000000  0.4567140000000 1.0
C      1  0.3948260000000  0.4812530000000  0.5139650000000 1.0
C      1  0.5062230000000  0.4793040000000  0.5510080000000 1.0
C      1  0.4848540000000  0.3921950000000  0.4633590000000 1.0
C      1  0.5183090000000  0.5912730000000  0.4433960000000 1.0
C      1  0.5744380000000  0.5445670000000  0.5838090000000 1.0
C      1  0.4767370000000  0.4950400000000  0.6044600000000 1.0
C      1  0.5779000000000  0.4116630000000  0.5183040000000 1.0
C      1  0.5273110000000  0.5045720000000  0.6066910000000 1.0
C      1  0.6032390000000  0.4756920000000  0.5377700000000 1.0
C      1  0.3882070000000  0.5446500000000  0.4484210000000 1.0
C      1  0.4540090000000  0.4776110000000  0.6098050000000 1.0
C      1  0.5521130000000  0.4813200000000  0.5552750000000 1.0
C      1  0.5403600000000  0.4176500000000  0.5467470000000 1.0
C      1  0.5463360000000  0.5406220000000  0.5473930000000 1.0
C      1  0.3861520000000  0.6017070000000  0.5119850000000 1.0
C      1  0.5274880000000  0.4411180000000  0.4466590000000 1.0
C      1  0.5945040000000  0.4670260000000  0.5655510000000 1.0
C      1  0.5424990000000  0.4584260000000  0.5689510000000 1.0
C      1  0.4524950000000  0.4967260000000  0.5580120000000 1.0
C      1  0.4928410000000  0.3993570000000  0.4171180000000 1.0
C      1  0.4683030000000  0.4046030000000  0.5374570000000 1.0
C      1  0.5020920000000  0.3866170000000  0.4409390000000 1.0
C      1  0.4992980000000  0.5272470000000  0.5426290000000 1.0
C      1  0.4799820000000  0.6051440000000  0.5477610000000 1.0
C      1  0.4069670000000  0.5369380000000  0.5461110000000 1.0
C      1  0.4822300000000  0.5659400000000  0.4996450000000 1.0
C      1  0.4373060000000  0.4734460000000  0.5498480000000 1.0
C      1  0.5671410000000  0.5527200000000  0.5325530000000 1.0
C      1  0.5204890000000  0.3860020000000  0.4939690000000 1.0
C      1  0.4690080000000  0.5575680000000  0.5233640000000 1.0
END
