TITL C-627113-6568-821 -2.70105271392655e-07 125000 -283.840038111932 0 0 47 (C1) n - 1
REM
REM in /home/nfs/bkarasulu/CARBON/AIRSS/Generating-Clusters/LCBOP/Only-C1/SD-CG/FIRE-CG
REM
REM
REM
REM
REM
REM ./C.cell (11c1c37f851c82e70ff6c80c92926a4b)
REM AIRSS Version 0.9.1 bugfix July 2018 build 013d7b7c2542+ Fri, 06 Jul 2018 19:26:36 +0100
REM compiler GCC version 9.2.1 20190827 (Red Hat 9.2.1-1)
REM options -cpp -mtune=generic -march=x86-64 -g -O0 -fpre-include=/usr/include/finclude/math-vector-fortran.h
REM seed -2048116009 -1394528904 1188501449 -1316680382 182711295 906487001 1008335504 535188410 -1664780660 1924295895 -1584583261 -1447625782 -1642608211 1061940224 -89779199 1469707141 -1281368623 1894286786 2001294056 1910998865 1556453829 -1874100345 -1354001327 -346942310 1536982302 -266531312 126112307 1794801494 -1021731495 -684616566 871275430 -853024248 -2034756196
REM
CELL 1.54180   50.00000   50.00000   50.00000   90.00000   90.00000   90.00000
LATT -1
SFAC C  
C      1  0.5515260000000  0.4950720000000  0.4833960000000 1.0
C      1  0.5834060000000  0.5009890000000  0.5201960000000 1.0
C      1  0.5146960000000  0.5789390000000  0.5075410000000 1.0
C      1  0.4883080000000  0.4743080000000  0.4546710000000 1.0
C      1  0.5774630000000  0.5004610000000  0.4934800000000 1.0
C      1  0.5659700000000  0.4938090000000  0.5417830000000 1.0
C      1  0.5329810000000  0.5242470000000  0.5165210000000 1.0
C      1  0.4423880000000  0.4587760000000  0.4601280000000 1.0
C      1  0.4422110000000  0.5414270000000  0.5123410000000 1.0
C      1  0.4982730000000  0.5342990000000  0.4462450000000 1.0
C      1  0.4806020000000  0.4303030000000  0.4707590000000 1.0
C      1  0.5295610000000  0.4644330000000  0.5543240000000 1.0
C      1  0.4697020000000  0.5451730000000  0.5177710000000 1.0
C      1  0.4956470000000  0.4582080000000  0.5077750000000 1.0
C      1  0.4547640000000  0.5502270000000  0.4277670000000 1.0
C      1  0.5456880000000  0.4500350000000  0.4852770000000 1.0
C      1  0.4343370000000  0.5048270000000  0.4799080000000 1.0
C      1  0.4502820000000  0.4703710000000  0.5290300000000 1.0
C      1  0.5554420000000  0.4548090000000  0.5123890000000 1.0
C      1  0.5147400000000  0.5105310000000  0.4417190000000 1.0
C      1  0.4486800000000  0.4985510000000  0.5308000000000 1.0
C      1  0.4272760000000  0.4779560000000  0.4723780000000 1.0
C      1  0.5144120000000  0.5721370000000  0.4814720000000 1.0
C      1  0.5269010000000  0.4292190000000  0.4839460000000 1.0
C      1  0.5115980000000  0.5723730000000  0.5336720000000 1.0
C      1  0.4719490000000  0.4557820000000  0.5230210000000 1.0
C      1  0.5310830000000  0.5004370000000  0.5025880000000 1.0
C      1  0.5096100000000  0.5565660000000  0.4600480000000 1.0
C      1  0.5069960000000  0.4751820000000  0.5641930000000 1.0
C      1  0.4860760000000  0.5314130000000  0.4990280000000 1.0
C      1  0.5003860000000  0.4355040000000  0.4902340000000 1.0
C      1  0.4803520000000  0.5366980000000  0.5435800000000 1.0
C      1  0.4557090000000  0.5140310000000  0.4613100000000 1.0
C      1  0.5521850000000  0.4683760000000  0.5377090000000 1.0
C      1  0.5512770000000  0.5144150000000  0.5563590000000 1.0
C      1  0.4695620000000  0.5101890000000  0.5491740000000 1.0
C      1  0.4700220000000  0.4519770000000  0.4562150000000 1.0
C      1  0.4883400000000  0.5041330000000  0.4926920000000 1.0
C      1  0.4861640000000  0.4921030000000  0.5635440000000 1.0
C      1  0.5302670000000  0.5299730000000  0.5442280000000 1.0
C      1  0.4360400000000  0.5136270000000  0.5082870000000 1.0
C      1  0.4686480000000  0.5336000000000  0.4444250000000 1.0
C      1  0.5407210000000  0.4734350000000  0.4672350000000 1.0
C      1  0.5064730000000  0.4854250000000  0.5039770000000 1.0
C      1  0.5169320000000  0.4819520000000  0.4504660000000 1.0
C      1  0.5075090000000  0.5473920000000  0.5476220000000 1.0
C      1  0.4768450000000  0.4963080000000  0.4687770000000 1.0
END
