TITL C-627109-622-584 129.243309503381 125000 -1085.31116602215 0 0 175 (C1) n - 1
REM
REM in /home/nfs/bkarasulu/CARBON/AIRSS/Generating-Clusters/LCBOP/Only-C1/SD-CG/FIRE-CG
REM
REM
REM
REM
REM
REM ./C.cell (11c1c37f851c82e70ff6c80c92926a4b)
REM AIRSS Version 0.9.1 bugfix July 2018 build 013d7b7c2542+ Fri, 06 Jul 2018 19:26:36 +0100
REM compiler GCC version 9.2.1 20190827 (Red Hat 9.2.1-1)
REM options -cpp -mtune=generic -march=x86-64 -g -O0 -fpre-include=/usr/include/finclude/math-vector-fortran.h
REM seed 1780148459 -763375384 954497769 412007917 1137917410 -2108492561 -585840167 181444609 1606868061 1404684069 -106764415 -805604842 376683350 -258590829 -915167342 530077124 93658122 478534576 -495650731 -430411777 1974024351 1514564120 234998045 -2136363076 -1457101626 165060327 558224552 441733297 914445143 -1574016798 -39573015 1614209030 -684606125
REM
CELL 1.54180   50.00000   50.00000   50.00000   90.00000   90.00000   90.00000
LATT -1
SFAC C  
C      1  0.5531250000000  0.5669470000000  0.5891730000000 1.0
C      1  0.5623960000000  0.6048240000000  0.4642470000000 1.0
C      1  0.5470490000000  0.3961560000000  0.5075930000000 1.0
C      1  0.4716430000000  0.4405470000000  0.4848570000000 1.0
C      1  0.5893620000000  0.4638780000000  0.4978990000000 1.0
C      1  0.5167520000000  0.4771360000000  0.4618500000000 1.0
C      1  0.4927730000000  0.4094870000000  0.5793140000000 1.0
C      1  0.3662810000000  0.4705780000000  0.5354450000000 1.0
C      1  0.4130830000000  0.6035000000000  0.5259710000000 1.0
C      1  0.4336420000000  0.5430070000000  0.5133540000000 1.0
C      1  0.4983660000000  0.4105790000000  0.4265520000000 1.0
C      1  0.4115530000000  0.4580770000000  0.5358250000000 1.0
C      1  0.5788860000000  0.5753690000000  0.5811110000000 1.0
C      1  0.4948740000000  0.5209850000000  0.3932340000000 1.0
C      1  0.4944580000000  0.5438610000000  0.4124760000000 1.0
C      1  0.4821380000000  0.5702120000000  0.4178720000000 1.0
C      1  0.4487670000000  0.6159160000000  0.4932110000000 1.0
C      1  0.3825860000000  0.4966450000000  0.4812760000000 1.0
C      1  0.5041630000000  0.5277960000000  0.6118300000000 1.0
C      1  0.6234020000000  0.5327580000000  0.6031310000000 1.0
C      1  0.4135870000000  0.5632740000000  0.5575590000000 1.0
C      1  0.5491950000000  0.5392140000000  0.5950960000000 1.0
C      1  0.4718500000000  0.5745810000000  0.4884620000000 1.0
C      1  0.4496280000000  0.5068060000000  0.3833190000000 1.0
C      1  0.4472160000000  0.5624460000000  0.4990120000000 1.0
C      1  0.3948100000000  0.4711550000000  0.4763120000000 1.0
C      1  0.4750620000000  0.4930280000000  0.4970770000000 1.0
C      1  0.3879050000000  0.4502910000000  0.4942710000000 1.0
C      1  0.4052920000000  0.5844380000000  0.5433650000000 1.0
C      1  0.5681370000000  0.4919770000000  0.4063390000000 1.0
C      1  0.4916690000000  0.4727800000000  0.4455920000000 1.0
C      1  0.4733940000000  0.4086110000000  0.4138870000000 1.0
C      1  0.4809050000000  0.3544450000000  0.4656690000000 1.0
C      1  0.5057560000000  0.3711430000000  0.5279790000000 1.0
C      1  0.4507400000000  0.5042370000000  0.4898010000000 1.0
C      1  0.4906780000000  0.5096280000000  0.5142440000000 1.0
C      1  0.4810650000000  0.3735830000000  0.5418700000000 1.0
C      1  0.4780080000000  0.3909590000000  0.5639660000000 1.0
C      1  0.5383760000000  0.3944100000000  0.5910080000000 1.0
C      1  0.4000670000000  0.5145190000000  0.4312470000000 1.0
C      1  0.6304710000000  0.5344130000000  0.5571670000000 1.0
C      1  0.5612830000000  0.5346800000000  0.4404490000000 1.0
C      1  0.5037750000000  0.4431830000000  0.6118280000000 1.0
C      1  0.4907260000000  0.5861950000000  0.5098910000000 1.0
C      1  0.4393970000000  0.4382610000000  0.4306340000000 1.0
C      1  0.5924680000000  0.4350980000000  0.4585400000000 1.0
C      1  0.4137750000000  0.5243230000000  0.5034480000000 1.0
C      1  0.4976360000000  0.4602740000000  0.4201380000000 1.0
C      1  0.4297280000000  0.4788220000000  0.5280130000000 1.0
C      1  0.5776190000000  0.5800320000000  0.4627760000000 1.0
C      1  0.5296950000000  0.4146110000000  0.4642070000000 1.0
C      1  0.4648450000000  0.6009710000000  0.4741530000000 1.0
C      1  0.5541740000000  0.4544840000000  0.4453930000000 1.0
C      1  0.4977260000000  0.5913900000000  0.4317520000000 1.0
C      1  0.3981270000000  0.4860340000000  0.4318790000000 1.0
C      1  0.4646790000000  0.5005170000000  0.6090690000000 1.0
C      1  0.5108810000000  0.6052980000000  0.5009020000000 1.0
C      1  0.4833400000000  0.4315710000000  0.5958860000000 1.0
C      1  0.5801540000000  0.5831920000000  0.5106650000000 1.0
C      1  0.4383510000000  0.4619200000000  0.4461920000000 1.0
C      1  0.5109970000000  0.5476730000000  0.4594450000000 1.0
C      1  0.5699220000000  0.4336610000000  0.5281100000000 1.0
C      1  0.5816290000000  0.4526160000000  0.4376970000000 1.0
C      1  0.4659310000000  0.5724600000000  0.5790940000000 1.0
C      1  0.4753750000000  0.4990870000000  0.3917050000000 1.0
C      1  0.4715990000000  0.4572160000000  0.5268040000000 1.0
C      1  0.4498700000000  0.5189130000000  0.4660680000000 1.0
C      1  0.5272030000000  0.3764020000000  0.5126480000000 1.0
C      1  0.5404880000000  0.5338000000000  0.4214920000000 1.0
C      1  0.3958730000000  0.5218930000000  0.4810270000000 1.0
C      1  0.4284240000000  0.4989920000000  0.5073530000000 1.0
C      1  0.5126050000000  0.4357290000000  0.4232320000000 1.0
C      1  0.5356190000000  0.4339630000000  0.4412060000000 1.0
C      1  0.5877150000000  0.4735130000000  0.4174580000000 1.0
C      1  0.5148680000000  0.5398000000000  0.4322790000000 1.0
C      1  0.5381050000000  0.5606960000000  0.5024590000000 1.0
C      1  0.5212280000000  0.5118260000000  0.3847540000000 1.0
C      1  0.4546860000000  0.4292520000000  0.4087170000000 1.0
C      1  0.5191300000000  0.5182460000000  0.5139190000000 1.0
C      1  0.5329710000000  0.5536230000000  0.4759390000000 1.0
C      1  0.4548400000000  0.4741850000000  0.5409100000000 1.0
C      1  0.4392970000000  0.6127420000000  0.5203820000000 1.0
C      1  0.5393420000000  0.4670400000000  0.5111610000000 1.0
C      1  0.4262260000000  0.5377250000000  0.5584640000000 1.0
C      1  0.4876880000000  0.6059540000000  0.4569320000000 1.0
C      1  0.6308370000000  0.5517840000000  0.5079690000000 1.0
C      1  0.4312590000000  0.5696780000000  0.4342260000000 1.0
C      1  0.4264440000000  0.5190650000000  0.3877530000000 1.0
C      1  0.4114830000000  0.4714340000000  0.4527860000000 1.0
C      1  0.4077400000000  0.5245350000000  0.4059950000000 1.0
C      1  0.4717740000000  0.4654520000000  0.4989200000000 1.0
C      1  0.5458280000000  0.5084200000000  0.5165000000000 1.0
C      1  0.5679100000000  0.5632540000000  0.4414430000000 1.0
C      1  0.4621900000000  0.4774990000000  0.5923930000000 1.0
C      1  0.5333480000000  0.5866200000000  0.5858200000000 1.0
C      1  0.4571440000000  0.5063790000000  0.4435840000000 1.0
C      1  0.5497900000000  0.5787680000000  0.4235900000000 1.0
C      1  0.4710240000000  0.5871990000000  0.5549560000000 1.0
C      1  0.5512510000000  0.4130520000000  0.5309010000000 1.0
C      1  0.5248730000000  0.4860780000000  0.5612020000000 1.0
C      1  0.4959390000000  0.5306560000000  0.5545130000000 1.0
C      1  0.5152100000000  0.5135060000000  0.5674980000000 1.0
C      1  0.5091840000000  0.3964260000000  0.4496630000000 1.0
C      1  0.5253650000000  0.4677980000000  0.5376190000000 1.0
C      1  0.5802850000000  0.4091320000000  0.4663160000000 1.0
C      1  0.4622380000000  0.3460770000000  0.4826970000000 1.0
C      1  0.5329940000000  0.6153410000000  0.5436410000000 1.0
C      1  0.5914840000000  0.5722580000000  0.4865670000000 1.0
C      1  0.5933590000000  0.5845880000000  0.5607130000000 1.0
C      1  0.6036650000000  0.4500850000000  0.4797780000000 1.0
C      1  0.4611540000000  0.4849110000000  0.5652870000000 1.0
C      1  0.4595330000000  0.4480760000000  0.5929800000000 1.0
C      1  0.4361300000000  0.4386550000000  0.5793260000000 1.0
C      1  0.5140330000000  0.4412490000000  0.5413560000000 1.0
C      1  0.6029670000000  0.5250750000000  0.4800090000000 1.0
C      1  0.5693680000000  0.5095470000000  0.5296660000000 1.0
C      1  0.5335520000000  0.4728810000000  0.5850610000000 1.0
C      1  0.5214290000000  0.4074720000000  0.5740360000000 1.0
C      1  0.4653930000000  0.5509470000000  0.5958570000000 1.0
C      1  0.5518590000000  0.5839090000000  0.5111250000000 1.0
C      1  0.5940890000000  0.5881730000000  0.5343140000000 1.0
C      1  0.6098030000000  0.5505760000000  0.4894480000000 1.0
C      1  0.4929100000000  0.4259450000000  0.4988050000000 1.0
C      1  0.3869160000000  0.5040190000000  0.5675820000000 1.0
C      1  0.5726460000000  0.5246530000000  0.6006450000000 1.0
C      1  0.5849820000000  0.5076520000000  0.4708630000000 1.0
C      1  0.3686450000000  0.4892770000000  0.5547090000000 1.0
C      1  0.4906320000000  0.4358910000000  0.5267130000000 1.0
C      1  0.4190400000000  0.4426730000000  0.5586920000000 1.0
C      1  0.4993760000000  0.3716760000000  0.4574380000000 1.0
C      1  0.5632370000000  0.5094740000000  0.4539100000000 1.0
C      1  0.4745110000000  0.5223070000000  0.5366860000000 1.0
C      1  0.3869320000000  0.4568150000000  0.5220410000000 1.0
C      1  0.5118500000000  0.6124820000000  0.4730890000000 1.0
C      1  0.5300880000000  0.4192690000000  0.5496340000000 1.0
C      1  0.4101800000000  0.5171390000000  0.5689200000000 1.0
C      1  0.5454430000000  0.5232270000000  0.3961880000000 1.0
C      1  0.5244830000000  0.5256510000000  0.5923570000000 1.0
C      1  0.5948650000000  0.3864380000000  0.4601130000000 1.0
C      1  0.6046890000000  0.5213270000000  0.5626170000000 1.0
C      1  0.5911630000000  0.5028080000000  0.5462460000000 1.0
C      1  0.5421090000000  0.4819780000000  0.4441990000000 1.0
C      1  0.4622860000000  0.4498580000000  0.3903090000000 1.0
C      1  0.5275500000000  0.5945620000000  0.4323160000000 1.0
C      1  0.4627860000000  0.4787510000000  0.4460020000000 1.0
C      1  0.5250770000000  0.4844240000000  0.3921600000000 1.0
C      1  0.4863610000000  0.5555250000000  0.4706280000000 1.0
C      1  0.5343480000000  0.6055550000000  0.5173840000000 1.0
C      1  0.4008800000000  0.5321810000000  0.4543630000000 1.0
C      1  0.5240550000000  0.4611580000000  0.4864400000000 1.0
C      1  0.5352420000000  0.6090720000000  0.4568730000000 1.0
C      1  0.5247180000000  0.4588660000000  0.6060240000000 1.0
C      1  0.4528130000000  0.3483070000000  0.5075580000000 1.0
C      1  0.6381450000000  0.5441620000000  0.5324260000000 1.0
C      1  0.4759820000000  0.5270550000000  0.6080240000000 1.0
C      1  0.4540170000000  0.5718710000000  0.4203770000000 1.0
C      1  0.5994140000000  0.4767610000000  0.5488460000000 1.0
C      1  0.4127620000000  0.5572520000000  0.4490920000000 1.0
C      1  0.3825910000000  0.4244840000000  0.4852840000000 1.0
C      1  0.5294220000000  0.6070220000000  0.5688420000000 1.0
C      1  0.4594070000000  0.3595110000000  0.5309080000000 1.0
C      1  0.5987840000000  0.5232400000000  0.5914530000000 1.0
C      1  0.4564960000000  0.6086650000000  0.5430620000000 1.0
C      1  0.3792410000000  0.4003410000000  0.4760660000000 1.0
C      1  0.5227040000000  0.5462900000000  0.5205870000000 1.0
C      1  0.4903490000000  0.5767320000000  0.5369550000000 1.0
C      1  0.5666870000000  0.4572600000000  0.5128520000000 1.0
C      1  0.6416020000000  0.5394000000000  0.5833650000000 1.0
C      1  0.5542960000000  0.4047380000000  0.4797810000000 1.0
C      1  0.5165670000000  0.4328270000000  0.4847060000000 1.0
C      1  0.5426060000000  0.4838440000000  0.4141690000000 1.0
C      1  0.4805760000000  0.4704490000000  0.3982380000000 1.0
C      1  0.3830940000000  0.4725620000000  0.4133450000000 1.0
C      1  0.5064960000000  0.5544070000000  0.5420300000000 1.0
C      1  0.4469030000000  0.5335560000000  0.5380500000000 1.0
END
