TITL C-627106-156-503 73468.5492765328 125000 -901.951903088134 0 0 148 (C1) n - 1
REM
REM in /home/nfs/bkarasulu/CARBON/AIRSS/Generating-Clusters/LCBOP/Only-C1/SD-CG/FIRE-CG
REM
REM
REM
REM
REM
REM ./C.cell (11c1c37f851c82e70ff6c80c92926a4b)
REM AIRSS Version 0.9.1 bugfix July 2018 build 013d7b7c2542+ Fri, 06 Jul 2018 19:26:36 +0100
REM compiler GCC version 9.2.1 20190827 (Red Hat 9.2.1-1)
REM options -cpp -mtune=generic -march=x86-64 -g -O0 -fpre-include=/usr/include/finclude/math-vector-fortran.h
REM seed -1595310915 -1754375359 -434156845 -2124630591 1498698309 1842124476 -1654676330 -156940687 1962960391 -1629708571 -1116846258 1569020945 -257687373 1268713565 -1144374459 -554662991 -1422708737 1148865546 1095606087 -1568477679 2135880753 290868696 332652168 -1343416548 -2045111431 1155664750 120238482 -953853155 -732039231 -1899858366 -1377042932 1122061119 1718859572
REM
CELL 1.54180   50.00000   50.00000   50.00000   90.00000   90.00000   90.00000
LATT -1
SFAC C  
C      1  0.4698180000000  0.4807120000000  0.5091260000000 1.0
C      1  0.5335220000000  0.3947740000000  0.4189930000000 1.0
C      1  0.5319340000000  0.3855820000000  0.4837560000000 1.0
C      1  0.4023750000000  0.4614780000000  0.5012320000000 1.0
C      1  0.4815000000000  0.5566070000000  0.5018300000000 1.0
C      1  0.4420800000000  0.4354880000000  0.5321570000000 1.0
C      1  0.4383500000000  0.6144890000000  0.4629840000000 1.0
C      1  0.5103100000000  0.4779990000000  0.4015690000000 1.0
C      1  0.5965810000000  0.5427070000000  0.5026480000000 1.0
C      1  0.5306650000000  0.3728200000000  0.4352470000000 1.0
C      1  0.4417840000000  0.5280270000000  0.5713780000000 1.0
C      1  0.3792340000000  0.5808140000000  0.4819600000000 1.0
C      1  0.5569080000000  0.5850440000000  0.5035490000000 1.0
C      1  0.5379270000000  0.4689850000000  0.4011580000000 1.0
C      1  0.5696480000000  0.4792840000000  0.4815760000000 1.0
C      1  0.5405010000000  0.4105700000000  0.4720700000000 1.0
C      1  0.5393210000000  0.5102100000000  0.5577310000000 1.0
C      1  0.4514140000000  0.4031750000000  0.5662760000000 1.0
C      1  0.5252730000000  0.5486910000000  0.3958940000000 1.0
C      1  0.4858650000000  0.4943950000000  0.6358820000000 1.0
C      1  0.6063840000000  0.5098780000000  0.4522830000000 1.0
C      1  0.4120860000000  0.6122090000000  0.4578350000000 1.0
C      1  0.5896040000000  0.5531790000000  0.4762930000000 1.0
C      1  0.3903920000000  0.4856290000000  0.5124180000000 1.0
C      1  0.5438830000000  0.4648270000000  0.5215350000000 1.0
C      1  0.3804310000000  0.5605080000000  0.4992070000000 1.0
C      1  0.4402770000000  0.5333000000000  0.6007810000000 1.0
C      1  0.5395050000000  0.4385410000000  0.5170090000000 1.0
C      1  0.4957700000000  0.5527680000000  0.5537690000000 1.0
C      1  0.5028960000000  0.4944610000000  0.4443260000000 1.0
C      1  0.5680590000000  0.4147740000000  0.4691880000000 1.0
C      1  0.5337320000000  0.6023230000000  0.5000710000000 1.0
C      1  0.3901760000000  0.5992880000000  0.4661110000000 1.0
C      1  0.5500710000000  0.4746320000000  0.6008380000000 1.0
C      1  0.5282600000000  0.3672050000000  0.4620280000000 1.0
C      1  0.5404240000000  0.3990530000000  0.5356540000000 1.0
C      1  0.5394150000000  0.4475670000000  0.5952020000000 1.0
C      1  0.4188480000000  0.5783940000000  0.3866340000000 1.0
C      1  0.4426430000000  0.4900580000000  0.5075550000000 1.0
C      1  0.4394130000000  0.4763520000000  0.5834480000000 1.0
C      1  0.5953370000000  0.4656220000000  0.4740850000000 1.0
C      1  0.4175790000000  0.5668790000000  0.4104870000000 1.0
C      1  0.5784420000000  0.4820120000000  0.5574830000000 1.0
C      1  0.4764010000000  0.5027160000000  0.4499750000000 1.0
C      1  0.5883140000000  0.4164710000000  0.4883530000000 1.0
C      1  0.4885010000000  0.5941240000000  0.5345690000000 1.0
C      1  0.4838220000000  0.4678790000000  0.5668500000000 1.0
C      1  0.4227130000000  0.5521790000000  0.4319510000000 1.0
C      1  0.3893350000000  0.4849700000000  0.4602990000000 1.0
C      1  0.4527930000000  0.4156220000000  0.4335760000000 1.0
C      1  0.5255890000000  0.5510460000000  0.5056370000000 1.0
C      1  0.4001580000000  0.4778750000000  0.6127820000000 1.0
C      1  0.4273300000000  0.5258200000000  0.5460660000000 1.0
C      1  0.5415740000000  0.5242480000000  0.4516940000000 1.0
C      1  0.4816930000000  0.4343500000000  0.4823660000000 1.0
C      1  0.5778970000000  0.5416830000000  0.4282680000000 1.0
C      1  0.5489260000000  0.4729570000000  0.4618630000000 1.0
C      1  0.5717690000000  0.5190010000000  0.4104830000000 1.0
C      1  0.4393290000000  0.4974370000000  0.4802700000000 1.0
C      1  0.5046330000000  0.5518640000000  0.4589130000000 1.0
C      1  0.5223310000000  0.4227780000000  0.4542520000000 1.0
C      1  0.5969770000000  0.4434990000000  0.4949470000000 1.0
C      1  0.4546450000000  0.6033940000000  0.4830230000000 1.0
C      1  0.5441820000000  0.5667200000000  0.4040860000000 1.0
C      1  0.5521310000000  0.5219810000000  0.4756270000000 1.0
C      1  0.4851340000000  0.4606320000000  0.4935720000000 1.0
C      1  0.5237960000000  0.5197250000000  0.5371180000000 1.0
C      1  0.4921930000000  0.4182210000000  0.5461240000000 1.0
C      1  0.3898050000000  0.5124770000000  0.5007630000000 1.0
C      1  0.4422340000000  0.4424250000000  0.4360710000000 1.0
C      1  0.5098380000000  0.4684950000000  0.5633510000000 1.0
C      1  0.6012350000000  0.4813430000000  0.4489110000000 1.0
C      1  0.5907490000000  0.5590510000000  0.5252950000000 1.0
C      1  0.5209850000000  0.4138890000000  0.5538360000000 1.0
C      1  0.4677140000000  0.5140590000000  0.5697170000000 1.0
C      1  0.5542340000000  0.5807110000000  0.4517900000000 1.0
C      1  0.5649540000000  0.5711290000000  0.5295660000000 1.0
C      1  0.4625840000000  0.4199890000000  0.5470070000000 1.0
C      1  0.5597700000000  0.4593810000000  0.4391380000000 1.0
C      1  0.5845010000000  0.3972960000000  0.5096380000000 1.0
C      1  0.4331830000000  0.4311830000000  0.4849970000000 1.0
C      1  0.5726810000000  0.4808210000000  0.5839830000000 1.0
C      1  0.5774380000000  0.4928420000000  0.5061120000000 1.0
C      1  0.4862030000000  0.5499190000000  0.6151420000000 1.0
C      1  0.5198840000000  0.5377900000000  0.4407350000000 1.0
C      1  0.5899790000000  0.4494250000000  0.5233900000000 1.0
C      1  0.5302990000000  0.3851840000000  0.5121610000000 1.0
C      1  0.5313160000000  0.4277850000000  0.5776970000000 1.0
C      1  0.5311870000000  0.5255520000000  0.5990520000000 1.0
C      1  0.4238810000000  0.5872410000000  0.3626280000000 1.0
C      1  0.5472270000000  0.5353080000000  0.4978030000000 1.0
C      1  0.4329170000000  0.5711250000000  0.5274970000000 1.0
C      1  0.5316940000000  0.4222960000000  0.4268200000000 1.0
C      1  0.4391720000000  0.5879420000000  0.5040940000000 1.0
C      1  0.4605200000000  0.4586290000000  0.4184520000000 1.0
C      1  0.5696280000000  0.4044710000000  0.5337550000000 1.0
C      1  0.5690420000000  0.5749210000000  0.4769440000000 1.0
C      1  0.4842510000000  0.6019760000000  0.4859250000000 1.0
C      1  0.5104270000000  0.4715470000000  0.4872230000000 1.0
C      1  0.4317010000000  0.5018630000000  0.5307980000000 1.0
C      1  0.5334910000000  0.4977000000000  0.6110980000000 1.0
C      1  0.4380800000000  0.5090000000000  0.6169170000000 1.0
C      1  0.5467910000000  0.5324290000000  0.5745200000000 1.0
C      1  0.5668430000000  0.4908970000000  0.4081160000000 1.0
C      1  0.4837560000000  0.5056960000000  0.5151130000000 1.0
C      1  0.5116060000000  0.4916120000000  0.6286700000000 1.0
C      1  0.4587270000000  0.4861290000000  0.4633820000000 1.0
C      1  0.5940490000000  0.5362690000000  0.4520730000000 1.0
C      1  0.4850340000000  0.5845500000000  0.5087500000000 1.0
C      1  0.5204640000000  0.5492170000000  0.5353600000000 1.0
C      1  0.5836210000000  0.4281780000000  0.5420550000000 1.0
C      1  0.4502100000000  0.5743970000000  0.5505080000000 1.0
C      1  0.4637230000000  0.4857430000000  0.5723690000000 1.0
C      1  0.5435280000000  0.4467270000000  0.4189420000000 1.0
C      1  0.4629310000000  0.5264170000000  0.4417880000000 1.0
C      1  0.5107760000000  0.5026780000000  0.5207510000000 1.0
C      1  0.4590680000000  0.5519960000000  0.6119500000000 1.0
C      1  0.5136310000000  0.6043140000000  0.4780500000000 1.0
C      1  0.4777330000000  0.4092950000000  0.4418430000000 1.0
C      1  0.4245110000000  0.4454250000000  0.4602550000000 1.0
C      1  0.5092990000000  0.5018570000000  0.4167650000000 1.0
C      1  0.5295020000000  0.5961800000000  0.4547570000000 1.0
C      1  0.4723320000000  0.5317700000000  0.5115870000000 1.0
C      1  0.3958500000000  0.5104280000000  0.4721030000000 1.0
C      1  0.5610760000000  0.5657470000000  0.4272850000000 1.0
C      1  0.5815300000000  0.4749290000000  0.4280930000000 1.0
C      1  0.5241490000000  0.4811470000000  0.5098810000000 1.0
C      1  0.4904220000000  0.5314680000000  0.5723260000000 1.0
C      1  0.5469520000000  0.5578940000000  0.5499400000000 1.0
C      1  0.4232920000000  0.4422000000000  0.5103450000000 1.0
C      1  0.4584070000000  0.4199870000000  0.4878890000000 1.0
C      1  0.4022560000000  0.4617280000000  0.4707510000000 1.0
C      1  0.4950010000000  0.4234210000000  0.4595860000000 1.0
C      1  0.5309760000000  0.4843310000000  0.5632670000000 1.0
C      1  0.5728560000000  0.4742640000000  0.5290450000000 1.0
C      1  0.4602010000000  0.5020830000000  0.6335580000000 1.0
C      1  0.4357800000000  0.5333020000000  0.4476190000000 1.0
C      1  0.4244470000000  0.4870740000000  0.6047970000000 1.0
C      1  0.5207370000000  0.4794450000000  0.4623310000000 1.0
C      1  0.5944900000000  0.5149770000000  0.5069040000000 1.0
C      1  0.5036590000000  0.5356500000000  0.5978330000000 1.0
C      1  0.4844860000000  0.4635630000000  0.4048630000000 1.0
C      1  0.4164310000000  0.5469280000000  0.5292960000000 1.0
C      1  0.4230050000000  0.5170820000000  0.4673080000000 1.0
C      1  0.5145620000000  0.5297100000000  0.4137660000000 1.0
C      1  0.4785630000000  0.5756280000000  0.5530490000000 1.0
C      1  0.3942560000000  0.5393260000000  0.5118490000000 1.0
C      1  0.5048750000000  0.5526480000000  0.4864910000000 1.0
END
