TITL C-627108-131-1017 -678.006708288534 125000 -1013.10948096117 0 0 165 (C1) n - 1
REM
REM in /home/nfs/bkarasulu/CARBON/AIRSS/Generating-Clusters/LCBOP/Only-C1/SD-CG/FIRE-CG
REM
REM
REM
REM
REM
REM ./C.cell (11c1c37f851c82e70ff6c80c92926a4b)
REM AIRSS Version 0.9.1 bugfix July 2018 build 013d7b7c2542+ Fri, 06 Jul 2018 19:26:36 +0100
REM compiler GCC version 9.2.1 20190827 (Red Hat 9.2.1-1)
REM options -cpp -mtune=generic -march=x86-64 -g -O0 -fpre-include=/usr/include/finclude/math-vector-fortran.h
REM seed -1818946234 -420486976 1353059890 -1924798594 199477647 337236510 2125695344 -17757361 179682909 -568184851 -1696096077 -623006534 781684162 -1166369635 1111257319 1484159956 -341909649 -1651653277 -492470526 1309491954 1957854934 1626492806 -431663269 -714952262 1248538943 -573861759 -1272757725 -1712366495 -1068617300 -190076756 319207560 1103036227 -2075354653
REM
CELL 1.54180   50.00000   50.00000   50.00000   90.00000   90.00000   90.00000
LATT -1
SFAC C  
C      1  0.4973320000000  0.5483580000000  0.4873550000000 1.0
C      1  0.4821050000000  0.5433590000000  0.3292270000000 1.0
C      1  0.4719030000000  0.6125540000000  0.4671790000000 1.0
C      1  0.4515470000000  0.4210840000000  0.4597230000000 1.0
C      1  0.5653690000000  0.6472690000000  0.4770590000000 1.0
C      1  0.5112570000000  0.4066320000000  0.5682010000000 1.0
C      1  0.4810360000000  0.5046500000000  0.5691660000000 1.0
C      1  0.5555410000000  0.4324750000000  0.4782040000000 1.0
C      1  0.3991540000000  0.4855720000000  0.4593560000000 1.0
C      1  0.5241920000000  0.6225460000000  0.4750010000000 1.0
C      1  0.3921940000000  0.4628990000000  0.4780680000000 1.0
C      1  0.5671630000000  0.5997070000000  0.4849810000000 1.0
C      1  0.4896030000000  0.4365120000000  0.6025570000000 1.0
C      1  0.5965440000000  0.4880940000000  0.4763590000000 1.0
C      1  0.4826520000000  0.4966320000000  0.4808570000000 1.0
C      1  0.4747700000000  0.5816580000000  0.5190800000000 1.0
C      1  0.4516490000000  0.5405660000000  0.5221630000000 1.0
C      1  0.5933850000000  0.5227580000000  0.5144430000000 1.0
C      1  0.6078230000000  0.4513730000000  0.5099360000000 1.0
C      1  0.4897530000000  0.5530060000000  0.4395260000000 1.0
C      1  0.5817440000000  0.5800700000000  0.5363800000000 1.0
C      1  0.3934150000000  0.5277360000000  0.5545530000000 1.0
C      1  0.4981180000000  0.6221110000000  0.4689220000000 1.0
C      1  0.4764310000000  0.5449580000000  0.3038400000000 1.0
C      1  0.6050230000000  0.4977560000000  0.5232310000000 1.0
C      1  0.4597200000000  0.4483260000000  0.5297870000000 1.0
C      1  0.4671280000000  0.4531790000000  0.3940200000000 1.0
C      1  0.5614360000000  0.5033560000000  0.6049070000000 1.0
C      1  0.5645380000000  0.4552300000000  0.5792460000000 1.0
C      1  0.5352650000000  0.5088700000000  0.5546980000000 1.0
C      1  0.5704090000000  0.5547380000000  0.4856690000000 1.0
C      1  0.5025800000000  0.5828030000000  0.5621910000000 1.0
C      1  0.5723340000000  0.4280840000000  0.5730890000000 1.0
C      1  0.4396510000000  0.4992450000000  0.6117170000000 1.0
C      1  0.5477190000000  0.4202560000000  0.5028700000000 1.0
C      1  0.5025380000000  0.5044860000000  0.4391920000000 1.0
C      1  0.4808980000000  0.3561380000000  0.3703960000000 1.0
C      1  0.5439470000000  0.5564830000000  0.5008030000000 1.0
C      1  0.5218610000000  0.4681210000000  0.4650820000000 1.0
C      1  0.4871810000000  0.4505730000000  0.5259020000000 1.0
C      1  0.5198100000000  0.4377480000000  0.6011840000000 1.0
C      1  0.4293230000000  0.6052730000000  0.4854280000000 1.0
C      1  0.5656030000000  0.5196640000000  0.5196120000000 1.0
C      1  0.5073020000000  0.3866010000000  0.4048020000000 1.0
C      1  0.4561650000000  0.5194490000000  0.4504240000000 1.0
C      1  0.5414020000000  0.4711250000000  0.4005300000000 1.0
C      1  0.5377120000000  0.4864740000000  0.6063670000000 1.0
C      1  0.4951710000000  0.4992720000000  0.3898090000000 1.0
C      1  0.4045250000000  0.4378930000000  0.4838880000000 1.0
C      1  0.4417280000000  0.5707390000000  0.5761950000000 1.0
C      1  0.5261230000000  0.5413740000000  0.4832290000000 1.0
C      1  0.4943390000000  0.3713390000000  0.3874490000000 1.0
C      1  0.5027260000000  0.4641010000000  0.5085320000000 1.0
C      1  0.5039860000000  0.5709620000000  0.4227690000000 1.0
C      1  0.5185160000000  0.4026890000000  0.4226010000000 1.0
C      1  0.4983400000000  0.4736750000000  0.4836400000000 1.0
C      1  0.5271680000000  0.5761390000000  0.5486280000000 1.0
C      1  0.4647540000000  0.4817400000000  0.3987410000000 1.0
C      1  0.5253630000000  0.4989280000000  0.4565950000000 1.0
C      1  0.3802240000000  0.4732880000000  0.5029220000000 1.0
C      1  0.4912050000000  0.5169110000000  0.3691190000000 1.0
C      1  0.5091720000000  0.5436940000000  0.5885590000000 1.0
C      1  0.4577430000000  0.5236860000000  0.5758760000000 1.0
C      1  0.5403590000000  0.4594560000000  0.5964590000000 1.0
C      1  0.4881330000000  0.5416150000000  0.3563560000000 1.0
C      1  0.4616800000000  0.4353540000000  0.4139860000000 1.0
C      1  0.4022550000000  0.4369670000000  0.5340820000000 1.0
C      1  0.5563630000000  0.5216340000000  0.5453560000000 1.0
C      1  0.4676240000000  0.3411160000000  0.3537280000000 1.0
C      1  0.4991170000000  0.5690440000000  0.5104690000000 1.0
C      1  0.4434210000000  0.4343410000000  0.5125120000000 1.0
C      1  0.5509100000000  0.4626590000000  0.4783420000000 1.0
C      1  0.4699670000000  0.6042160000000  0.5359680000000 1.0
C      1  0.5344630000000  0.4213500000000  0.5264650000000 1.0
C      1  0.5242050000000  0.4772360000000  0.5206240000000 1.0
C      1  0.5348340000000  0.5561710000000  0.5912430000000 1.0
C      1  0.5990170000000  0.5164200000000  0.4678470000000 1.0
C      1  0.4264370000000  0.4864210000000  0.5397830000000 1.0
C      1  0.5681640000000  0.4338750000000  0.4273030000000 1.0
C      1  0.4710530000000  0.3866840000000  0.5492370000000 1.0
C      1  0.3871750000000  0.4614280000000  0.5296730000000 1.0
C      1  0.4175000000000  0.4299670000000  0.5594220000000 1.0
C      1  0.5471050000000  0.4785890000000  0.5039900000000 1.0
C      1  0.5810070000000  0.4751920000000  0.5666910000000 1.0
C      1  0.5934720000000  0.5210210000000  0.4403520000000 1.0
C      1  0.5617070000000  0.4598960000000  0.4175910000000 1.0
C      1  0.5774180000000  0.5937850000000  0.5125710000000 1.0
C      1  0.4321970000000  0.5928250000000  0.5642470000000 1.0
C      1  0.4959700000000  0.4796590000000  0.4286040000000 1.0
C      1  0.5514590000000  0.5695230000000  0.4415140000000 1.0
C      1  0.5288810000000  0.4116560000000  0.5904750000000 1.0
C      1  0.5519320000000  0.5059510000000  0.4988060000000 1.0
C      1  0.4567380000000  0.4924840000000  0.4661780000000 1.0
C      1  0.4673630000000  0.3837430000000  0.5229020000000 1.0
C      1  0.5723100000000  0.5295850000000  0.6002180000000 1.0
C      1  0.4436710000000  0.6085610000000  0.5454850000000 1.0
C      1  0.4093750000000  0.5235730000000  0.5764900000000 1.0
C      1  0.4808500000000  0.4690710000000  0.5669720000000 1.0
C      1  0.5124090000000  0.4382740000000  0.4567650000000 1.0
C      1  0.4441550000000  0.4345140000000  0.5728890000000 1.0
C      1  0.4629460000000  0.5522550000000  0.5762180000000 1.0
C      1  0.4423770000000  0.4829220000000  0.4203710000000 1.0
C      1  0.5110440000000  0.4972220000000  0.6093570000000 1.0
C      1  0.5510340000000  0.5455890000000  0.4243730000000 1.0
C      1  0.4662030000000  0.5838230000000  0.4694390000000 1.0
C      1  0.4686590000000  0.4217120000000  0.5860280000000 1.0
C      1  0.5158890000000  0.4982710000000  0.5379420000000 1.0
C      1  0.4850320000000  0.5215890000000  0.4950880000000 1.0
C      1  0.4710340000000  0.4109250000000  0.4772370000000 1.0
C      1  0.5362120000000  0.5160550000000  0.4768810000000 1.0
C      1  0.5976360000000  0.4876010000000  0.5491970000000 1.0
C      1  0.4897680000000  0.5096180000000  0.5410530000000 1.0
C      1  0.4843890000000  0.5631500000000  0.4651610000000 1.0
C      1  0.6065400000000  0.4784080000000  0.5017200000000 1.0
C      1  0.5176230000000  0.4270120000000  0.5488190000000 1.0
C      1  0.5264020000000  0.5698120000000  0.5208270000000 1.0
C      1  0.4675870000000  0.3917830000000  0.4973970000000 1.0
C      1  0.5721820000000  0.4794800000000  0.4348650000000 1.0
C      1  0.4389610000000  0.4892140000000  0.4894440000000 1.0
C      1  0.5521860000000  0.6233130000000  0.4790500000000 1.0
C      1  0.5859750000000  0.5435980000000  0.5776440000000 1.0
C      1  0.5278560000000  0.4202390000000  0.4418460000000 1.0
C      1  0.3869940000000  0.5099880000000  0.5329770000000 1.0
C      1  0.5535320000000  0.5486660000000  0.6105980000000 1.0
C      1  0.4381160000000  0.4893370000000  0.5159420000000 1.0
C      1  0.4127670000000  0.5324650000000  0.4715290000000 1.0
C      1  0.4559900000000  0.4563650000000  0.5578460000000 1.0
C      1  0.4152260000000  0.5211020000000  0.4264280000000 1.0
C      1  0.5897810000000  0.4243520000000  0.5511980000000 1.0
C      1  0.5925660000000  0.5355490000000  0.4883530000000 1.0
C      1  0.4739710000000  0.5225990000000  0.5214180000000 1.0
C      1  0.5025910000000  0.5154980000000  0.5890630000000 1.0
C      1  0.4901440000000  0.6068100000000  0.5552750000000 1.0
C      1  0.5741680000000  0.5647340000000  0.5603430000000 1.0
C      1  0.4509950000000  0.5667160000000  0.5113080000000 1.0
C      1  0.4890610000000  0.4891600000000  0.6256020000000 1.0
C      1  0.5296680000000  0.4982010000000  0.4006770000000 1.0
C      1  0.4543560000000  0.4417490000000  0.4409940000000 1.0
C      1  0.4619670000000  0.4908450000000  0.6247190000000 1.0
C      1  0.6015570000000  0.4331490000000  0.5286980000000 1.0
C      1  0.5551200000000  0.4225800000000  0.4503290000000 1.0
C      1  0.4950970000000  0.4248110000000  0.4744770000000 1.0
C      1  0.4298910000000  0.5319450000000  0.4485060000000 1.0
C      1  0.5496020000000  0.5183770000000  0.4142090000000 1.0
C      1  0.4913980000000  0.5644680000000  0.3721490000000 1.0
C      1  0.4160110000000  0.4305830000000  0.5091820000000 1.0
C      1  0.5739180000000  0.5061280000000  0.4259270000000 1.0
C      1  0.5006100000000  0.4508010000000  0.5519020000000 1.0
C      1  0.5566290000000  0.4084680000000  0.5860650000000 1.0
C      1  0.3985030000000  0.4843810000000  0.5427490000000 1.0
C      1  0.4969380000000  0.5744950000000  0.3960970000000 1.0
C      1  0.4425360000000  0.5794370000000  0.4871650000000 1.0
C      1  0.5748410000000  0.4745720000000  0.4628950000000 1.0
C      1  0.4464610000000  0.6244000000000  0.4746910000000 1.0
C      1  0.5666730000000  0.5763370000000  0.4662580000000 1.0
C      1  0.4828650000000  0.4012790000000  0.5701530000000 1.0
C      1  0.3955960000000  0.5104410000000  0.4780170000000 1.0
C      1  0.4151690000000  0.4926250000000  0.4284110000000 1.0
C      1  0.4337630000000  0.5145810000000  0.5884980000000 1.0
C      1  0.4900140000000  0.5612420000000  0.5766060000000 1.0
C      1  0.3830640000000  0.5036730000000  0.5040250000000 1.0
C      1  0.4520490000000  0.4701500000000  0.4454300000000 1.0
C      1  0.4826350000000  0.5255700000000  0.4386340000000 1.0
C      1  0.5272530000000  0.5830380000000  0.4340520000000 1.0
C      1  0.5463810000000  0.5679020000000  0.5672280000000 1.0
END
