TITL C-627106-156-662 -6.34967379236751e-07 125000 -391.403174193455 0 0 65 (C1) n - 1
REM
REM in /home/nfs/bkarasulu/CARBON/AIRSS/Generating-Clusters/LCBOP/Only-C1/SD-CG/FIRE-CG
REM
REM
REM
REM
REM
REM ./C.cell (11c1c37f851c82e70ff6c80c92926a4b)
REM AIRSS Version 0.9.1 bugfix July 2018 build 013d7b7c2542+ Fri, 06 Jul 2018 19:26:36 +0100
REM compiler GCC version 9.2.1 20190827 (Red Hat 9.2.1-1)
REM options -cpp -mtune=generic -march=x86-64 -g -O0 -fpre-include=/usr/include/finclude/math-vector-fortran.h
REM seed 407751662 210243706 2007844162 -405368525 -1117507427 -1682661140 840378233 -1978436527 1402659949 2022114709 2143053562 -1416053657 948901633 486504228 -1510531025 -2030946165 1360673636 -948948691 132430364 1422786891 -1616601843 912485483 1245177840 -714383547 1303873657 272307619 -626277117 1049330897 -234155198 -779478461 -1522994516 507869182 -1571711240
REM
CELL 1.54180   50.00000   50.00000   50.00000   90.00000   90.00000   90.00000
LATT -1
SFAC C  
C      1  0.4971540000000  0.5738250000000  0.4635000000000 1.0
C      1  0.5243420000000  0.5701960000000  0.4578280000000 1.0
C      1  0.5657650000000  0.5819030000000  0.4848560000000 1.0
C      1  0.5445260000000  0.5863250000000  0.4690820000000 1.0
C      1  0.4687890000000  0.4408150000000  0.5495700000000 1.0
C      1  0.4937450000000  0.4319930000000  0.4533550000000 1.0
C      1  0.4745590000000  0.5073570000000  0.4915620000000 1.0
C      1  0.4223880000000  0.4709240000000  0.4573210000000 1.0
C      1  0.4387290000000  0.4415050000000  0.4919820000000 1.0
C      1  0.5414820000000  0.4875170000000  0.5689200000000 1.0
C      1  0.5032390000000  0.4576420000000  0.4980730000000 1.0
C      1  0.5504600000000  0.5256730000000  0.4484750000000 1.0
C      1  0.4867520000000  0.5161500000000  0.4140880000000 1.0
C      1  0.4280270000000  0.4667730000000  0.4843810000000 1.0
C      1  0.5082230000000  0.4866280000000  0.5378690000000 1.0
C      1  0.5371620000000  0.5557740000000  0.5334070000000 1.0
C      1  0.4733680000000  0.5111630000000  0.5194380000000 1.0
C      1  0.4644220000000  0.4563110000000  0.3963190000000 1.0
C      1  0.4847850000000  0.5404000000000  0.5686710000000 1.0
C      1  0.5753200000000  0.4998120000000  0.5111640000000 1.0
C      1  0.5420950000000  0.4582480000000  0.5729630000000 1.0
C      1  0.4693370000000  0.4220960000000  0.5282500000000 1.0
C      1  0.4417100000000  0.5417350000000  0.5013210000000 1.0
C      1  0.4829530000000  0.5093890000000  0.4394330000000 1.0
C      1  0.5182440000000  0.4428500000000  0.5711170000000 1.0
C      1  0.4724190000000  0.5168470000000  0.5800990000000 1.0
C      1  0.4824260000000  0.5659290000000  0.5262230000000 1.0
C      1  0.5775670000000  0.5058520000000  0.4837730000000 1.0
C      1  0.5683810000000  0.5195420000000  0.5305100000000 1.0
C      1  0.4885770000000  0.4459860000000  0.5706670000000 1.0
C      1  0.5675900000000  0.4814380000000  0.4425090000000 1.0
C      1  0.4981740000000  0.4465150000000  0.4745370000000 1.0
C      1  0.4799700000000  0.4668410000000  0.5890790000000 1.0
C      1  0.5121670000000  0.5676170000000  0.5238310000000 1.0
C      1  0.4279220000000  0.4686530000000  0.4314330000000 1.0
C      1  0.5577250000000  0.4646720000000  0.4244080000000 1.0
C      1  0.5125920000000  0.4902290000000  0.5666560000000 1.0
C      1  0.5454220000000  0.4608990000000  0.5198280000000 1.0
C      1  0.5163700000000  0.4510500000000  0.3955420000000 1.0
C      1  0.4797300000000  0.5064670000000  0.4655670000000 1.0
C      1  0.5690850000000  0.4730950000000  0.5173840000000 1.0
C      1  0.4283050000000  0.5174540000000  0.4980810000000 1.0
C      1  0.5622540000000  0.5471010000000  0.5217320000000 1.0
C      1  0.5180590000000  0.4674870000000  0.5195760000000 1.0
C      1  0.4649360000000  0.5599450000000  0.5031460000000 1.0
C      1  0.4426760000000  0.4627510000000  0.4101450000000 1.0
C      1  0.5521490000000  0.5127240000000  0.5549200000000 1.0
C      1  0.4901510000000  0.4519240000000  0.3913950000000 1.0
C      1  0.4894850000000  0.4932450000000  0.5837140000000 1.0
C      1  0.5335580000000  0.5460840000000  0.4468480000000 1.0
C      1  0.4544840000000  0.4244850000000  0.5056310000000 1.0
C      1  0.4378760000000  0.4813820000000  0.5298790000000 1.0
C      1  0.4916690000000  0.5233880000000  0.3895320000000 1.0
C      1  0.5663100000000  0.5046800000000  0.4580720000000 1.0
C      1  0.4755460000000  0.5695330000000  0.4786000000000 1.0
C      1  0.4981100000000  0.5121060000000  0.5316820000000 1.0
C      1  0.5329180000000  0.5357820000000  0.5545880000000 1.0
C      1  0.4465500000000  0.4589830000000  0.5450060000000 1.0
C      1  0.4517990000000  0.5048150000000  0.5376290000000 1.0
C      1  0.5056390000000  0.5304270000000  0.5523210000000 1.0
C      1  0.4491240000000  0.5118890000000  0.5647740000000 1.0
C      1  0.4274360000000  0.4881090000000  0.5034850000000 1.0
C      1  0.4733500000000  0.5619510000000  0.5534860000000 1.0
C      1  0.5741260000000  0.5643300000000  0.5032820000000 1.0
C      1  0.5397950000000  0.4547900000000  0.4074840000000 1.0
END
