TITL C-627110-360-1735 2.92949069523336e-08 125000 -307.873296663124 0 0 52 (C1) n - 1
REM
REM in /home/nfs/bkarasulu/CARBON/AIRSS/Generating-Clusters/LCBOP/Only-C1/SD-CG/FIRE-CG
REM
REM
REM
REM
REM
REM ./C.cell (11c1c37f851c82e70ff6c80c92926a4b)
REM AIRSS Version 0.9.1 bugfix July 2018 build 013d7b7c2542+ Fri, 06 Jul 2018 19:26:36 +0100
REM compiler GCC version 9.2.1 20190827 (Red Hat 9.2.1-1)
REM options -cpp -mtune=generic -march=x86-64 -g -O0 -fpre-include=/usr/include/finclude/math-vector-fortran.h
REM seed -58819459 -978666804 -179960319 -633168707 1938416427 -709231743 368691235 -1527579503 -1727718259 596711210 -573836123 -1007057630 366571689 -1398512996 131056540 1435892832 1160892421 -957380996 -586567067 603470435 -1673996168 292004852 -572436886 -1340972308 492387005 -1834161981 931592547 346654273 -835361359 -511245874 958113801 -882427265 -1470449495
REM
CELL 1.54180   50.00000   50.00000   50.00000   90.00000   90.00000   90.00000
LATT -1
SFAC C  
C      1  0.5735400000000  0.4466300000000  0.4270080000000 1.0
C      1  0.4609930000000  0.4748050000000  0.4536290000000 1.0
C      1  0.5468890000000  0.5092140000000  0.4524260000000 1.0
C      1  0.4573490000000  0.5568550000000  0.5173700000000 1.0
C      1  0.5007590000000  0.4859710000000  0.5775610000000 1.0
C      1  0.5425220000000  0.5512810000000  0.5165910000000 1.0
C      1  0.5527180000000  0.5360570000000  0.4928110000000 1.0
C      1  0.5533550000000  0.5084850000000  0.4816560000000 1.0
C      1  0.5257150000000  0.4606800000000  0.4474590000000 1.0
C      1  0.5298730000000  0.5316640000000  0.5700580000000 1.0
C      1  0.5233690000000  0.5098320000000  0.4382090000000 1.0
C      1  0.4854850000000  0.5585960000000  0.5200440000000 1.0
C      1  0.4813290000000  0.4400770000000  0.5484440000000 1.0
C      1  0.5430850000000  0.4589420000000  0.5083780000000 1.0
C      1  0.4777820000000  0.4507990000000  0.4520430000000 1.0
C      1  0.5015610000000  0.5408620000000  0.5350140000000 1.0
C      1  0.5296900000000  0.5445990000000  0.5430540000000 1.0
C      1  0.4762250000000  0.5015050000000  0.4556920000000 1.0
C      1  0.4298960000000  0.5432770000000  0.4790530000000 1.0
C      1  0.5461270000000  0.4810000000000  0.4893310000000 1.0
C      1  0.5309970000000  0.5562660000000  0.4508400000000 1.0
C      1  0.5031200000000  0.5486850000000  0.4530840000000 1.0
C      1  0.4400090000000  0.4701740000000  0.4737250000000 1.0
C      1  0.5233760000000  0.4759180000000  0.4716300000000 1.0
C      1  0.4401690000000  0.5719620000000  0.5321910000000 1.0
C      1  0.4728850000000  0.4842830000000  0.5665090000000 1.0
C      1  0.4719200000000  0.4108380000000  0.4814260000000 1.0
C      1  0.4978030000000  0.5130580000000  0.5370650000000 1.0
C      1  0.4811410000000  0.4361540000000  0.4773710000000 1.0
C      1  0.5150670000000  0.5116580000000  0.5834840000000 1.0
C      1  0.4957530000000  0.4514760000000  0.4967390000000 1.0
C      1  0.4907610000000  0.5647920000000  0.4727150000000 1.0
C      1  0.5158590000000  0.4723630000000  0.5560700000000 1.0
C      1  0.5473440000000  0.5005820000000  0.5337430000000 1.0
C      1  0.4971010000000  0.5205430000000  0.4449240000000 1.0
C      1  0.4471400000000  0.4706370000000  0.5257880000000 1.0
C      1  0.5012630000000  0.4517530000000  0.4364830000000 1.0
C      1  0.4484960000000  0.5376140000000  0.4981740000000 1.0
C      1  0.5172330000000  0.4465200000000  0.5159130000000 1.0
C      1  0.4374130000000  0.4625900000000  0.5001040000000 1.0
C      1  0.4722350000000  0.5048980000000  0.5459980000000 1.0
C      1  0.5501720000000  0.4531800000000  0.4365030000000 1.0
C      1  0.5083750000000  0.4480470000000  0.5431150000000 1.0
C      1  0.4990730000000  0.4787410000000  0.4873240000000 1.0
C      1  0.4809680000000  0.5008270000000  0.4847860000000 1.0
C      1  0.5209050000000  0.4949400000000  0.5383890000000 1.0
C      1  0.5512760000000  0.5532990000000  0.4688880000000 1.0
C      1  0.4546540000000  0.4986670000000  0.5250630000000 1.0
C      1  0.4603820000000  0.5119920000000  0.5009050000000 1.0
C      1  0.5274360000000  0.5743870000000  0.5056860000000 1.0
C      1  0.4997920000000  0.5712350000000  0.4989000000000 1.0
C      1  0.4616210000000  0.4607900000000  0.5506350000000 1.0
END
