TITL C-627108-131-1023 -64.7109472919655 125000 -431.44107792705 0 0 71 (C1) n - 1
REM
REM in /home/nfs/bkarasulu/CARBON/AIRSS/Generating-Clusters/LCBOP/Only-C1/SD-CG/FIRE-CG
REM
REM
REM
REM
REM
REM ./C.cell (11c1c37f851c82e70ff6c80c92926a4b)
REM AIRSS Version 0.9.1 bugfix July 2018 build 013d7b7c2542+ Fri, 06 Jul 2018 19:26:36 +0100
REM compiler GCC version 9.2.1 20190827 (Red Hat 9.2.1-1)
REM options -cpp -mtune=generic -march=x86-64 -g -O0 -fpre-include=/usr/include/finclude/math-vector-fortran.h
REM seed 951711208 1621782633 581241997 1136718398 1027444155 -1744281821 -1658009622 -1666540838 -1654651754 1277851293 -71425349 -608861798 -2104570554 166687416 837774842 -1579601432 -1242235685 -257346368 -504556295 -489232393 1173650877 1387726492 -1408391996 -1861257686 443046978 791984442 72128662 1020057607 502101962 927521482 1301383892 -295718772 507016373
REM
CELL 1.54180   50.00000   50.00000   50.00000   90.00000   90.00000   90.00000
LATT -1
SFAC C  
C      1  0.6296460000000  0.5129120000000  0.5002350000000 1.0
C      1  0.3418680000000  0.6253370000000  0.4287090000000 1.0
C      1  0.5503230000000  0.4444360000000  0.4529090000000 1.0
C      1  0.3423660000000  0.4839350000000  0.4221230000000 1.0
C      1  0.4787860000000  0.4331590000000  0.5891000000000 1.0
C      1  0.4777540000000  0.4200110000000  0.5652840000000 1.0
C      1  0.3816940000000  0.5928040000000  0.4415560000000 1.0
C      1  0.5645320000000  0.5397800000000  0.4327380000000 1.0
C      1  0.4015040000000  0.5764350000000  0.4479750000000 1.0
C      1  0.6259340000000  0.5018900000000  0.5241260000000 1.0
C      1  0.5815690000000  0.5283780000000  0.5722960000000 1.0
C      1  0.3822800000000  0.4991410000000  0.4527590000000 1.0
C      1  0.5146090000000  0.4464110000000  0.5166930000000 1.0
C      1  0.4950060000000  0.5188030000000  0.5739020000000 1.0
C      1  0.4697330000000  0.5180240000000  0.5014560000000 1.0
C      1  0.5435930000000  0.4076170000000  0.5256300000000 1.0
C      1  0.3617850000000  0.6090700000000  0.4351330000000 1.0
C      1  0.5554130000000  0.4516240000000  0.5435690000000 1.0
C      1  0.5084420000000  0.5660600000000  0.4889810000000 1.0
C      1  0.4943410000000  0.3883880000000  0.4908750000000 1.0
C      1  0.4123900000000  0.4922130000000  0.4899380000000 1.0
C      1  0.3222790000000  0.6413370000000  0.4223900000000 1.0
C      1  0.5031620000000  0.4829610000000  0.4787500000000 1.0
C      1  0.4563430000000  0.5186900000000  0.5475130000000 1.0
C      1  0.6244620000000  0.5239980000000  0.4766440000000 1.0
C      1  0.5609200000000  0.5094660000000  0.4908130000000 1.0
C      1  0.6108690000000  0.5331200000000  0.4557020000000 1.0
C      1  0.6117800000000  0.4928230000000  0.5465200000000 1.0
C      1  0.4903000000000  0.4293700000000  0.5183660000000 1.0
C      1  0.4153530000000  0.5327450000000  0.4633320000000 1.0
C      1  0.5354780000000  0.3838240000000  0.5164140000000 1.0
C      1  0.4930480000000  0.5462340000000  0.5329500000000 1.0
C      1  0.5130560000000  0.5538060000000  0.5132930000000 1.0
C      1  0.6006320000000  0.5115840000000  0.5642450000000 1.0
C      1  0.4485870000000  0.5665100000000  0.4527530000000 1.0
C      1  0.4717900000000  0.5039170000000  0.5663420000000 1.0
C      1  0.5109640000000  0.4583530000000  0.4901880000000 1.0
C      1  0.5674080000000  0.4887660000000  0.4749600000000 1.0
C      1  0.5147460000000  0.4924330000000  0.4549880000000 1.0
C      1  0.4034170000000  0.5080470000000  0.4687240000000 1.0
C      1  0.5381350000000  0.5432510000000  0.5234600000000 1.0
C      1  0.4218710000000  0.5585330000000  0.4547130000000 1.0
C      1  0.5064100000000  0.4339340000000  0.4737920000000 1.0
C      1  0.5147460000000  0.3745940000000  0.5019460000000 1.0
C      1  0.5450910000000  0.4770710000000  0.5487010000000 1.0
C      1  0.4610980000000  0.4599070000000  0.5441960000000 1.0
C      1  0.5272450000000  0.4304780000000  0.4551310000000 1.0
C      1  0.5423010000000  0.4978640000000  0.5326360000000 1.0
C      1  0.5579460000000  0.5404280000000  0.5693210000000 1.0
C      1  0.5261880000000  0.5106260000000  0.4393330000000 1.0
C      1  0.5071780000000  0.5391030000000  0.5581320000000 1.0
C      1  0.4819210000000  0.4980400000000  0.4888660000000 1.0
C      1  0.4404230000000  0.4674900000000  0.5270400000000 1.0
C      1  0.5481690000000  0.5182290000000  0.5142130000000 1.0
C      1  0.6039590000000  0.4658650000000  0.5483430000000 1.0
C      1  0.4748710000000  0.4600550000000  0.5904110000000 1.0
C      1  0.3621660000000  0.4914170000000  0.4373420000000 1.0
C      1  0.4695960000000  0.5315430000000  0.5259630000000 1.0
C      1  0.5203920000000  0.5578050000000  0.4432080000000 1.0
C      1  0.5642720000000  0.4656830000000  0.4616550000000 1.0
C      1  0.5831280000000  0.4490680000000  0.5470110000000 1.0
C      1  0.4240440000000  0.4778390000000  0.5089320000000 1.0
C      1  0.4740510000000  0.4340800000000  0.5408160000000 1.0
C      1  0.4909650000000  0.4163160000000  0.4917580000000 1.0
C      1  0.5383370000000  0.4351000000000  0.5284760000000 1.0
C      1  0.5900460000000  0.5386680000000  0.4401310000000 1.0
C      1  0.4747460000000  0.5704000000000  0.4545950000000 1.0
C      1  0.5370400000000  0.5363220000000  0.4363590000000 1.0
C      1  0.4686290000000  0.4757760000000  0.5675440000000 1.0
C      1  0.5354800000000  0.5436820000000  0.5531950000000 1.0
C      1  0.5013940000000  0.5664210000000  0.4619040000000 1.0
END
