TITL C-627106-156-1145 -16990.0111869177 125000 -944.2145574265 0 0 154 (C1) n - 1
REM
REM in /home/nfs/bkarasulu/CARBON/AIRSS/Generating-Clusters/LCBOP/Only-C1/SD-CG/FIRE-CG
REM
REM
REM
REM
REM
REM ./C.cell (11c1c37f851c82e70ff6c80c92926a4b)
REM AIRSS Version 0.9.1 bugfix July 2018 build 013d7b7c2542+ Fri, 06 Jul 2018 19:26:36 +0100
REM compiler GCC version 9.2.1 20190827 (Red Hat 9.2.1-1)
REM options -cpp -mtune=generic -march=x86-64 -g -O0 -fpre-include=/usr/include/finclude/math-vector-fortran.h
REM seed 1354243635 -1699403612 -2147284468 1644674325 730242174 1236299501 2053923758 -282907487 -79097787 1756583160 -1722924945 636171433 1996505489 -1437833081 -1005994050 -154196099 1064004344 -372240181 -1963186291 1801903157 578164125 -1124266103 1195792279 1862661917 979581073 -1080977398 1225888875 -1480172713 651122592 -1754241366 -1929181245 -574441164 -1346452207
REM
CELL 1.54180   50.00000   50.00000   50.00000   90.00000   90.00000   90.00000
LATT -1
SFAC C  
C      1  0.4758010000000  0.5956420000000  0.4578850000000 1.0
C      1  0.4302740000000  0.4516670000000  0.4900440000000 1.0
C      1  0.5705650000000  0.5511770000000  0.5254310000000 1.0
C      1  0.4496670000000  0.5765900000000  0.5497630000000 1.0
C      1  0.5719400000000  0.5262490000000  0.4390230000000 1.0
C      1  0.4842870000000  0.5051200000000  0.6091260000000 1.0
C      1  0.5410870000000  0.4197440000000  0.5395690000000 1.0
C      1  0.4215250000000  0.5037940000000  0.5803580000000 1.0
C      1  0.4672050000000  0.4193040000000  0.5400850000000 1.0
C      1  0.4842950000000  0.5533650000000  0.4896110000000 1.0
C      1  0.4775620000000  0.5777810000000  0.4325840000000 1.0
C      1  0.4710780000000  0.3756770000000  0.5667310000000 1.0
C      1  0.5034370000000  0.5107280000000  0.4428490000000 1.0
C      1  0.5316230000000  0.4111170000000  0.5670910000000 1.0
C      1  0.5895030000000  0.5312370000000  0.4811490000000 1.0
C      1  0.4812900000000  0.5288600000000  0.4776590000000 1.0
C      1  0.5268040000000  0.3961850000000  0.4612690000000 1.0
C      1  0.4873140000000  0.5072290000000  0.4953200000000 1.0
C      1  0.4273410000000  0.5837960000000  0.4637370000000 1.0
C      1  0.5612790000000  0.4584030000000  0.4895000000000 1.0
C      1  0.4787580000000  0.4014380000000  0.5603850000000 1.0
C      1  0.4716110000000  0.5340360000000  0.5329850000000 1.0
C      1  0.4507430000000  0.5093190000000  0.4483210000000 1.0
C      1  0.3958480000000  0.4864880000000  0.4857680000000 1.0
C      1  0.5694240000000  0.5857550000000  0.4401250000000 1.0
C      1  0.5467680000000  0.5870790000000  0.4966290000000 1.0
C      1  0.5164050000000  0.5047700000000  0.5015480000000 1.0
C      1  0.4460730000000  0.4670940000000  0.5070730000000 1.0
C      1  0.5395370000000  0.3934700000000  0.4872420000000 1.0
C      1  0.4628910000000  0.3517590000000  0.5730510000000 1.0
C      1  0.5166780000000  0.5474760000000  0.4149910000000 1.0
C      1  0.5952480000000  0.4846230000000  0.5331140000000 1.0
C      1  0.4389230000000  0.4891440000000  0.5978400000000 1.0
C      1  0.5068020000000  0.5668720000000  0.4821520000000 1.0
C      1  0.5220460000000  0.4756860000000  0.4063440000000 1.0
C      1  0.4602910000000  0.5609280000000  0.4176470000000 1.0
C      1  0.4902010000000  0.4295030000000  0.6009100000000 1.0
C      1  0.4964980000000  0.4077290000000  0.4900550000000 1.0
C      1  0.5636000000000  0.5024810000000  0.3964050000000 1.0
C      1  0.5021980000000  0.4489260000000  0.5075370000000 1.0
C      1  0.6189330000000  0.4971120000000  0.4906880000000 1.0
C      1  0.4423640000000  0.4336310000000  0.5399820000000 1.0
C      1  0.5345590000000  0.4886340000000  0.5976340000000 1.0
C      1  0.4271280000000  0.4020410000000  0.5059130000000 1.0
C      1  0.5046490000000  0.6060190000000  0.4644050000000 1.0
C      1  0.4664480000000  0.4845310000000  0.4930300000000 1.0
C      1  0.5718380000000  0.5716010000000  0.5046070000000 1.0
C      1  0.4222170000000  0.4180700000000  0.5273030000000 1.0
C      1  0.3922390000000  0.5159180000000  0.5427900000000 1.0
C      1  0.4658620000000  0.4822530000000  0.6065620000000 1.0
C      1  0.5320810000000  0.5611430000000  0.5488270000000 1.0
C      1  0.3865210000000  0.5040110000000  0.4662040000000 1.0
C      1  0.5447970000000  0.5820090000000  0.4506770000000 1.0
C      1  0.5122650000000  0.4996830000000  0.6078400000000 1.0
C      1  0.3948620000000  0.4994590000000  0.5681490000000 1.0
C      1  0.4684730000000  0.5542080000000  0.5917390000000 1.0
C      1  0.4216420000000  0.5661260000000  0.5389860000000 1.0
C      1  0.5412160000000  0.4423020000000  0.4744220000000 1.0
C      1  0.4517720000000  0.5953810000000  0.4746810000000 1.0
C      1  0.5320370000000  0.4517250000000  0.4237630000000 1.0
C      1  0.5476040000000  0.5635330000000  0.5915380000000 1.0
C      1  0.3754250000000  0.4831490000000  0.5779640000000 1.0
C      1  0.5059320000000  0.4099590000000  0.4431030000000 1.0
C      1  0.5102980000000  0.4320490000000  0.4245830000000 1.0
C      1  0.4924610000000  0.4711120000000  0.4042460000000 1.0
C      1  0.4043350000000  0.5237490000000  0.4554560000000 1.0
C      1  0.4630260000000  0.5808840000000  0.5236700000000 1.0
C      1  0.4705990000000  0.4860650000000  0.3939390000000 1.0
C      1  0.5331990000000  0.5290170000000  0.5083100000000 1.0
C      1  0.4337320000000  0.5211810000000  0.4906940000000 1.0
C      1  0.6109330000000  0.5270840000000  0.5455390000000 1.0
C      1  0.5226050000000  0.5707320000000  0.5747510000000 1.0
C      1  0.5777840000000  0.4558530000000  0.4453580000000 1.0
C      1  0.5830700000000  0.4477570000000  0.5035620000000 1.0
C      1  0.5027080000000  0.5011990000000  0.5470380000000 1.0
C      1  0.4969300000000  0.4663640000000  0.4610730000000 1.0
C      1  0.4850760000000  0.4462750000000  0.4181450000000 1.0
C      1  0.5226490000000  0.5304580000000  0.4373730000000 1.0
C      1  0.4856670000000  0.4630820000000  0.4865760000000 1.0
C      1  0.5714870000000  0.5545640000000  0.5745390000000 1.0
C      1  0.5735970000000  0.5107520000000  0.4950290000000 1.0
C      1  0.4107540000000  0.5406340000000  0.5494180000000 1.0
C      1  0.4898910000000  0.4638750000000  0.5720190000000 1.0
C      1  0.5204760000000  0.5932880000000  0.4413620000000 1.0
C      1  0.4483990000000  0.5147300000000  0.5391510000000 1.0
C      1  0.4997000000000  0.4428890000000  0.5569110000000 1.0
C      1  0.4974990000000  0.5281590000000  0.5427390000000 1.0
C      1  0.5963890000000  0.5392830000000  0.5667710000000 1.0
C      1  0.4567830000000  0.4865810000000  0.5470620000000 1.0
C      1  0.5312650000000  0.4931080000000  0.4783600000000 1.0
C      1  0.4884070000000  0.4362710000000  0.5310790000000 1.0
C      1  0.5162020000000  0.4299270000000  0.4890830000000 1.0
C      1  0.5722810000000  0.5250830000000  0.4112010000000 1.0
C      1  0.5235580000000  0.4629490000000  0.5221360000000 1.0
C      1  0.5997500000000  0.4737700000000  0.4417410000000 1.0
C      1  0.5559790000000  0.4445310000000  0.5948280000000 1.0
C      1  0.5212520000000  0.5276340000000  0.3930870000000 1.0
C      1  0.4797580000000  0.4574100000000  0.5982170000000 1.0
C      1  0.5898880000000  0.5592730000000  0.4858800000000 1.0
C      1  0.4729000000000  0.5561220000000  0.5149050000000 1.0
C      1  0.4143810000000  0.5661400000000  0.4827890000000 1.0
C      1  0.5423540000000  0.5399790000000  0.4790890000000 1.0
C      1  0.6078420000000  0.4945500000000  0.4612610000000 1.0
C      1  0.5466470000000  0.5303190000000  0.4522580000000 1.0
C      1  0.4750000000000  0.5315910000000  0.6047060000000 1.0
C      1  0.6034060000000  0.4779970000000  0.4135880000000 1.0
C      1  0.5503830000000  0.4699600000000  0.5834280000000 1.0
C      1  0.4702320000000  0.5740960000000  0.5713840000000 1.0
C      1  0.5843260000000  0.4832470000000  0.3947450000000 1.0
C      1  0.4677260000000  0.5143240000000  0.3932770000000 1.0
C      1  0.4015170000000  0.5022230000000  0.5177940000000 1.0
C      1  0.5584120000000  0.4870520000000  0.4852770000000 1.0
C      1  0.4469580000000  0.5007680000000  0.4756820000000 1.0
C      1  0.5177140000000  0.4894890000000  0.5264720000000 1.0
C      1  0.5615850000000  0.5216660000000  0.5200180000000 1.0
C      1  0.4363240000000  0.4524910000000  0.4390550000000 1.0
C      1  0.5138880000000  0.4880340000000  0.4563840000000 1.0
C      1  0.5020100000000  0.4172610000000  0.5737320000000 1.0
C      1  0.4148550000000  0.4922410000000  0.4202390000000 1.0
C      1  0.5232010000000  0.6068150000000  0.4958750000000 1.0
C      1  0.5346020000000  0.5003450000000  0.3956050000000 1.0
C      1  0.5981560000000  0.4585400000000  0.5230360000000 1.0
C      1  0.5020060000000  0.6046920000000  0.5459420000000 1.0
C      1  0.5430610000000  0.4025400000000  0.5143060000000 1.0
C      1  0.4177920000000  0.4607670000000  0.4680110000000 1.0
C      1  0.4760730000000  0.4132530000000  0.4499390000000 1.0
C      1  0.5359900000000  0.5681230000000  0.4759660000000 1.0
C      1  0.4203210000000  0.5764620000000  0.5098490000000 1.0
C      1  0.5501060000000  0.4483100000000  0.4461390000000 1.0
C      1  0.4282300000000  0.5128190000000  0.5162760000000 1.0
C      1  0.5057470000000  0.5743080000000  0.4241430000000 1.0
C      1  0.4773660000000  0.5199370000000  0.4502600000000 1.0
C      1  0.4976490000000  0.5856240000000  0.5675160000000 1.0
C      1  0.4469420000000  0.3975460000000  0.4882610000000 1.0
C      1  0.5941520000000  0.5201720000000  0.4554570000000 1.0
C      1  0.4460080000000  0.5926750000000  0.5039910000000 1.0
C      1  0.6127590000000  0.5056350000000  0.5244200000000 1.0
C      1  0.4626450000000  0.4366750000000  0.4359860000000 1.0
C      1  0.5193000000000  0.5430130000000  0.5318820000000 1.0
C      1  0.5431820000000  0.4499660000000  0.5383010000000 1.0
C      1  0.4824980000000  0.4860700000000  0.5582850000000 1.0
C      1  0.4456410000000  0.4626330000000  0.5349480000000 1.0
C      1  0.5601120000000  0.5605220000000  0.5487260000000 1.0
C      1  0.5691060000000  0.4929470000000  0.5413910000000 1.0
C      1  0.4162700000000  0.5388860000000  0.4765890000000 1.0
C      1  0.4322820000000  0.5250370000000  0.5632800000000 1.0
C      1  0.5104860000000  0.6116710000000  0.5210400000000 1.0
C      1  0.5549790000000  0.4717250000000  0.5550640000000 1.0
C      1  0.4714380000000  0.4043020000000  0.4766680000000 1.0
C      1  0.4239950000000  0.5129770000000  0.4368930000000 1.0
C      1  0.4465550000000  0.4706860000000  0.3936280000000 1.0
C      1  0.4291010000000  0.4683870000000  0.4157590000000 1.0
C      1  0.5494730000000  0.4191170000000  0.5880660000000 1.0
C      1  0.4606410000000  0.5389600000000  0.4017820000000 1.0
END
