TITL C-627108-131-1936 -4.06970518020433e-07 125000 -421.642734927646 0 0 69 (C1) n - 1
REM
REM in /home/nfs/bkarasulu/CARBON/AIRSS/Generating-Clusters/LCBOP/Only-C1/SD-CG/FIRE-CG
REM
REM
REM
REM
REM
REM ./C.cell (11c1c37f851c82e70ff6c80c92926a4b)
REM AIRSS Version 0.9.1 bugfix July 2018 build 013d7b7c2542+ Fri, 06 Jul 2018 19:26:36 +0100
REM compiler GCC version 9.2.1 20190827 (Red Hat 9.2.1-1)
REM options -cpp -mtune=generic -march=x86-64 -g -O0 -fpre-include=/usr/include/finclude/math-vector-fortran.h
REM seed 654211993 -1774432593 826956598 -1792047299 -1219240371 871389977 -487650496 682141561 625253780 175885699 1668359487 -1434973203 832328681 -341250835 1373915879 -1221342685 659967462 213080943 1630361558 -1105809384 1413644263 -205533180 -996495496 1809902396 935770130 -1860172630 -163321748 1595753213 -85824398 1809325304 1722793085 -1911258757 -1574931248
REM
CELL 1.54180   50.00000   50.00000   50.00000   90.00000   90.00000   90.00000
LATT -1
SFAC C  
C      1  0.5805180000000  0.5241690000000  0.5287020000000 1.0
C      1  0.5347020000000  0.5439120000000  0.4646580000000 1.0
C      1  0.5343070000000  0.4927080000000  0.5186120000000 1.0
C      1  0.4301320000000  0.4633790000000  0.4548160000000 1.0
C      1  0.4824370000000  0.4874700000000  0.5026910000000 1.0
C      1  0.5142060000000  0.5560980000000  0.4480340000000 1.0
C      1  0.4365670000000  0.4521620000000  0.5007770000000 1.0
C      1  0.5579190000000  0.4834040000000  0.5351840000000 1.0
C      1  0.4498160000000  0.5403800000000  0.5461960000000 1.0
C      1  0.4654930000000  0.5747020000000  0.5066120000000 1.0
C      1  0.4986520000000  0.4723690000000  0.5434450000000 1.0
C      1  0.4909350000000  0.4632740000000  0.5174990000000 1.0
C      1  0.5511290000000  0.4413610000000  0.5156580000000 1.0
C      1  0.5832630000000  0.5085840000000  0.5038470000000 1.0
C      1  0.4886770000000  0.4849730000000  0.4732300000000 1.0
C      1  0.4788040000000  0.4339260000000  0.4388920000000 1.0
C      1  0.4802070000000  0.5750690000000  0.4838090000000 1.0
C      1  0.4196870000000  0.5449280000000  0.4708320000000 1.0
C      1  0.5781250000000  0.4802650000000  0.5111140000000 1.0
C      1  0.4984740000000  0.5008550000000  0.5446720000000 1.0
C      1  0.4300860000000  0.4809670000000  0.5058760000000 1.0
C      1  0.6028260000000  0.5730480000000  0.5361510000000 1.0
C      1  0.4724880000000  0.5193480000000  0.4381150000000 1.0
C      1  0.5635750000000  0.5102190000000  0.5486530000000 1.0
C      1  0.5633240000000  0.5396110000000  0.4671380000000 1.0
C      1  0.5053840000000  0.4553040000000  0.5646970000000 1.0
C      1  0.5327770000000  0.4479150000000  0.5632580000000 1.0
C      1  0.5403760000000  0.5200130000000  0.5627250000000 1.0
C      1  0.5181850000000  0.4672060000000  0.4320990000000 1.0
C      1  0.5132360000000  0.4958190000000  0.4331490000000 1.0
C      1  0.4619440000000  0.4297090000000  0.4599090000000 1.0
C      1  0.5653580000000  0.4580240000000  0.4959980000000 1.0
C      1  0.4817340000000  0.4500000000000  0.5794690000000 1.0
C      1  0.4129480000000  0.5293470000000  0.5179000000000 1.0
C      1  0.4659130000000  0.5456770000000  0.4480810000000 1.0
C      1  0.5044390000000  0.4452140000000  0.5002880000000 1.0
C      1  0.4652630000000  0.4965190000000  0.4552990000000 1.0
C      1  0.4864970000000  0.5099140000000  0.5198390000000 1.0
C      1  0.5687790000000  0.4909060000000  0.4613170000000 1.0
C      1  0.4379940000000  0.4899490000000  0.4602250000000 1.0
C      1  0.4972260000000  0.4486960000000  0.4252400000000 1.0
C      1  0.4875300000000  0.5617190000000  0.4597180000000 1.0
C      1  0.5110690000000  0.5020120000000  0.4620180000000 1.0
C      1  0.4406600000000  0.4428850000000  0.5277450000000 1.0
C      1  0.4410550000000  0.4440250000000  0.4730640000000 1.0
C      1  0.5511950000000  0.4544010000000  0.5423540000000 1.0
C      1  0.4319250000000  0.5191480000000  0.5372230000000 1.0
C      1  0.4568060000000  0.4580110000000  0.5715770000000 1.0
C      1  0.4669860000000  0.5395550000000  0.5686490000000 1.0
C      1  0.4350900000000  0.4899210000000  0.5343190000000 1.0
C      1  0.5559240000000  0.4662940000000  0.4695710000000 1.0
C      1  0.5756880000000  0.5148620000000  0.4763130000000 1.0
C      1  0.5301930000000  0.5138100000000  0.5032150000000 1.0
C      1  0.6131600000000  0.5967820000000  0.5392380000000 1.0
C      1  0.4424560000000  0.4643290000000  0.5479530000000 1.0
C      1  0.4928130000000  0.5352850000000  0.5756000000000 1.0
C      1  0.5113910000000  0.5428700000000  0.4222480000000 1.0
C      1  0.4975530000000  0.5175260000000  0.4225510000000 1.0
C      1  0.4391190000000  0.5519900000000  0.4537770000000 1.0
C      1  0.5922780000000  0.5489600000000  0.5329380000000 1.0
C      1  0.4539970000000  0.5624870000000  0.5279130000000 1.0
C      1  0.5116600000000  0.5185260000000  0.5627710000000 1.0
C      1  0.5236640000000  0.5210190000000  0.4776060000000 1.0
C      1  0.5302260000000  0.4591210000000  0.4581070000000 1.0
C      1  0.5264700000000  0.4297160000000  0.5082230000000 1.0
C      1  0.4263660000000  0.4992280000000  0.4843410000000 1.0
C      1  0.4161490000000  0.5249650000000  0.4901290000000 1.0
C      1  0.4883100000000  0.5353640000000  0.5112970000000 1.0
C      1  0.5058630000000  0.4577920000000  0.4748360000000 1.0
END
