TITL C-627113-6568-1031 -9.51567607983497e-07 125000 -816.926781363969 0 0 134 (C1) n - 1
REM
REM in /home/nfs/bkarasulu/CARBON/AIRSS/Generating-Clusters/LCBOP/Only-C1/SD-CG/FIRE-CG
REM
REM
REM
REM
REM
REM ./C.cell (11c1c37f851c82e70ff6c80c92926a4b)
REM AIRSS Version 0.9.1 bugfix July 2018 build 013d7b7c2542+ Fri, 06 Jul 2018 19:26:36 +0100
REM compiler GCC version 9.2.1 20190827 (Red Hat 9.2.1-1)
REM options -cpp -mtune=generic -march=x86-64 -g -O0 -fpre-include=/usr/include/finclude/math-vector-fortran.h
REM seed 539483957 1530878217 -1142430150 -1079443806 -114876237 -104896296 -1251150658 -31019209 2075264339 -442895352 1773718863 138400934 -1998578634 195603864 -443747516 -960401031 361587665 2008534643 -1704089045 1052208832 1186482844 -512807675 -1537420349 1672524050 -374620564 -2102730900 2143456481 1943791125 -1558465147 -340780136 1182684876 1210362905 -2106211379
REM
CELL 1.54180   50.00000   50.00000   50.00000   90.00000   90.00000   90.00000
LATT -1
SFAC C  
C      1  0.5043600000000  0.3578020000000  0.5767180000000 1.0
C      1  0.4612510000000  0.4718420000000  0.5026780000000 1.0
C      1  0.5806040000000  0.4380720000000  0.5245480000000 1.0
C      1  0.4465530000000  0.5326210000000  0.4055620000000 1.0
C      1  0.4677870000000  0.4872050000000  0.5466940000000 1.0
C      1  0.5111050000000  0.5071330000000  0.4511860000000 1.0
C      1  0.5051550000000  0.5630440000000  0.5724940000000 1.0
C      1  0.4215130000000  0.6023080000000  0.4795400000000 1.0
C      1  0.4550890000000  0.5193890000000  0.4914610000000 1.0
C      1  0.5017950000000  0.4450010000000  0.5404420000000 1.0
C      1  0.5242840000000  0.5979250000000  0.5034560000000 1.0
C      1  0.4734050000000  0.5760760000000  0.4881770000000 1.0
C      1  0.5067890000000  0.5503360000000  0.5185770000000 1.0
C      1  0.5465060000000  0.5736350000000  0.5379580000000 1.0
C      1  0.4110770000000  0.5118150000000  0.5094720000000 1.0
C      1  0.5641820000000  0.5749160000000  0.4866060000000 1.0
C      1  0.4233000000000  0.4741610000000  0.5500700000000 1.0
C      1  0.5191760000000  0.4746310000000  0.6317270000000 1.0
C      1  0.4654850000000  0.5424610000000  0.5513500000000 1.0
C      1  0.5096250000000  0.5113410000000  0.3979320000000 1.0
C      1  0.5147660000000  0.5376540000000  0.5829240000000 1.0
C      1  0.4302040000000  0.5627000000000  0.5079640000000 1.0
C      1  0.5379240000000  0.4601500000000  0.4112570000000 1.0
C      1  0.5668070000000  0.4825180000000  0.5863640000000 1.0
C      1  0.5466640000000  0.5977160000000  0.4852680000000 1.0
C      1  0.4975380000000  0.4974550000000  0.4957160000000 1.0
C      1  0.4190800000000  0.5478510000000  0.5680600000000 1.0
C      1  0.4943050000000  0.4862910000000  0.3988530000000 1.0
C      1  0.5060840000000  0.6194170000000  0.5031490000000 1.0
C      1  0.4450550000000  0.5040750000000  0.4121780000000 1.0
C      1  0.5734670000000  0.5347160000000  0.5361420000000 1.0
C      1  0.4898590000000  0.4337400000000  0.4917890000000 1.0
C      1  0.5080810000000  0.4594260000000  0.4087520000000 1.0
C      1  0.4700230000000  0.4975930000000  0.4981550000000 1.0
C      1  0.5422780000000  0.4526730000000  0.4600460000000 1.0
C      1  0.4379160000000  0.6234320000000  0.4799450000000 1.0
C      1  0.5144400000000  0.4936190000000  0.5424300000000 1.0
C      1  0.4604970000000  0.6341420000000  0.4897250000000 1.0
C      1  0.6092000000000  0.5810830000000  0.5049710000000 1.0
C      1  0.5252350000000  0.4787710000000  0.5634680000000 1.0
C      1  0.5227390000000  0.5753460000000  0.5223060000000 1.0
C      1  0.4803250000000  0.4262470000000  0.4426900000000 1.0
C      1  0.4162490000000  0.4887430000000  0.4597910000000 1.0
C      1  0.4901050000000  0.5229700000000  0.4391620000000 1.0
C      1  0.5674120000000  0.4763720000000  0.6141000000000 1.0
C      1  0.4797850000000  0.6275290000000  0.5091270000000 1.0
C      1  0.5115450000000  0.3745630000000  0.5581030000000 1.0
C      1  0.5196540000000  0.4509110000000  0.5620770000000 1.0
C      1  0.4048500000000  0.5448330000000  0.5454100000000 1.0
C      1  0.5120710000000  0.5392000000000  0.4926940000000 1.0
C      1  0.5371870000000  0.5069360000000  0.4056420000000 1.0
C      1  0.4458390000000  0.5463900000000  0.5690700000000 1.0
C      1  0.5539190000000  0.4275160000000  0.5235210000000 1.0
C      1  0.5655620000000  0.4388580000000  0.5740510000000 1.0
C      1  0.4988500000000  0.4801570000000  0.4500750000000 1.0
C      1  0.4613300000000  0.4558990000000  0.4073380000000 1.0
C      1  0.5687730000000  0.3996940000000  0.4751580000000 1.0
C      1  0.4989930000000  0.5330820000000  0.4126730000000 1.0
C      1  0.5548750000000  0.4544420000000  0.4341190000000 1.0
C      1  0.4610820000000  0.4650380000000  0.5292870000000 1.0
C      1  0.5768780000000  0.4645140000000  0.5656190000000 1.0
C      1  0.3951750000000  0.5321420000000  0.4686050000000 1.0
C      1  0.5419620000000  0.4945470000000  0.5794050000000 1.0
C      1  0.4320510000000  0.4425390000000  0.4481660000000 1.0
C      1  0.4706610000000  0.4547050000000  0.4834820000000 1.0
C      1  0.4065330000000  0.5083820000000  0.4800120000000 1.0
C      1  0.5085560000000  0.4446720000000  0.5126550000000 1.0
C      1  0.4774170000000  0.4675600000000  0.4594390000000 1.0
C      1  0.4951900000000  0.4822910000000  0.6223800000000 1.0
C      1  0.4804910000000  0.4084030000000  0.5070140000000 1.0
C      1  0.5792300000000  0.4742510000000  0.4867050000000 1.0
C      1  0.4576620000000  0.5734250000000  0.5127300000000 1.0
C      1  0.5913950000000  0.4076740000000  0.4873080000000 1.0
C      1  0.5159610000000  0.5126700000000  0.4798820000000 1.0
C      1  0.5983460000000  0.4240360000000  0.5076990000000 1.0
C      1  0.5826580000000  0.4654310000000  0.5361500000000 1.0
C      1  0.5469690000000  0.6090020000000  0.4592680000000 1.0
C      1  0.4518550000000  0.5340200000000  0.4697600000000 1.0
C      1  0.5830770000000  0.4591570000000  0.4389990000000 1.0
C      1  0.5006410000000  0.4263050000000  0.4639950000000 1.0
C      1  0.5569640000000  0.5933810000000  0.4133420000000 1.0
C      1  0.5189500000000  0.3930690000000  0.5385440000000 1.0
C      1  0.5465690000000  0.5898900000000  0.4381870000000 1.0
C      1  0.4559120000000  0.4927580000000  0.5925490000000 1.0
C      1  0.4878550000000  0.5337410000000  0.5359810000000 1.0
C      1  0.4655500000000  0.5362280000000  0.4464150000000 1.0
C      1  0.4375050000000  0.4507780000000  0.5370970000000 1.0
C      1  0.4807160000000  0.4995510000000  0.6052450000000 1.0
C      1  0.4603170000000  0.5524720000000  0.4220220000000 1.0
C      1  0.4104200000000  0.4915240000000  0.5303140000000 1.0
C      1  0.5715660000000  0.5624600000000  0.5302620000000 1.0
C      1  0.5402080000000  0.4118710000000  0.5438350000000 1.0
C      1  0.4072020000000  0.4320840000000  0.5051090000000 1.0
C      1  0.5832930000000  0.5732740000000  0.5071620000000 1.0
C      1  0.4460210000000  0.4873160000000  0.5665500000000 1.0
C      1  0.5509780000000  0.4753890000000  0.4778190000000 1.0
C      1  0.4463190000000  0.4063850000000  0.4758970000000 1.0
C      1  0.4009820000000  0.4478630000000  0.4842070000000 1.0
C      1  0.5051750000000  0.3930210000000  0.5129640000000 1.0
C      1  0.4512150000000  0.4102660000000  0.5046310000000 1.0
C      1  0.5408830000000  0.4031600000000  0.4743870000000 1.0
C      1  0.4878100000000  0.5788500000000  0.5580520000000 1.0
C      1  0.5941940000000  0.4664720000000  0.4633260000000 1.0
C      1  0.4893740000000  0.5051600000000  0.5408590000000 1.0
C      1  0.5620010000000  0.5305240000000  0.5614100000000 1.0
C      1  0.5823110000000  0.4864040000000  0.5141600000000 1.0
C      1  0.4520610000000  0.4223400000000  0.4524990000000 1.0
C      1  0.5753550000000  0.5161030000000  0.5138190000000 1.0
C      1  0.5459800000000  0.4731130000000  0.6303590000000 1.0
C      1  0.4849320000000  0.4418960000000  0.4182310000000 1.0
C      1  0.4695330000000  0.6158980000000  0.5328580000000 1.0
C      1  0.5290710000000  0.4271710000000  0.4637130000000 1.0
C      1  0.4316850000000  0.4280740000000  0.5193330000000 1.0
C      1  0.5396140000000  0.4303480000000  0.5662890000000 1.0
C      1  0.3991540000000  0.5586570000000  0.4710120000000 1.0
C      1  0.5229300000000  0.3879720000000  0.4907880000000 1.0
C      1  0.4646030000000  0.4844890000000  0.4027880000000 1.0
C      1  0.5546220000000  0.5511170000000  0.4732000000000 1.0
C      1  0.5433100000000  0.5028870000000  0.4821120000000 1.0
C      1  0.4890800000000  0.5603020000000  0.4165120000000 1.0
C      1  0.4149650000000  0.4601370000000  0.4630170000000 1.0
C      1  0.5395680000000  0.5232000000000  0.5768640000000 1.0
C      1  0.5482310000000  0.4826820000000  0.3967440000000 1.0
C      1  0.5334700000000  0.5657130000000  0.4474220000000 1.0
C      1  0.4876980000000  0.5770130000000  0.4651460000000 1.0
C      1  0.4158430000000  0.5756410000000  0.4861600000000 1.0
C      1  0.4950740000000  0.5226930000000  0.5972370000000 1.0
C      1  0.4694540000000  0.5875990000000  0.5367090000000 1.0
C      1  0.4156250000000  0.5396960000000  0.5195510000000 1.0
C      1  0.5612460000000  0.5248960000000  0.4880900000000 1.0
C      1  0.5365740000000  0.5102170000000  0.4344740000000 1.0
C      1  0.5359900000000  0.4427040000000  0.5082640000000 1.0
C      1  0.4278250000000  0.4973970000000  0.4345830000000 1.0
C      1  0.5039040000000  0.5689690000000  0.4424300000000 1.0
END
