TITL C-627110-360-1852 0.000285921199319908 125000 -241.258019057795 0 0 41 (C1) n - 1
REM
REM in /home/nfs/bkarasulu/CARBON/AIRSS/Generating-Clusters/LCBOP/Only-C1/SD-CG/FIRE-CG
REM
REM
REM
REM
REM
REM ./C.cell (11c1c37f851c82e70ff6c80c92926a4b)
REM AIRSS Version 0.9.1 bugfix July 2018 build 013d7b7c2542+ Fri, 06 Jul 2018 19:26:36 +0100
REM compiler GCC version 9.2.1 20190827 (Red Hat 9.2.1-1)
REM options -cpp -mtune=generic -march=x86-64 -g -O0 -fpre-include=/usr/include/finclude/math-vector-fortran.h
REM seed -1214484626 1247181019 -160753534 -704451599 1351593798 236505803 509502225 1885615785 1735062153 201480150 -1567445146 -1879723219 895606148 497833376 -1152913457 920374680 1824566585 -2025094041 -1846646367 -1477683841 2139379810 549276731 -1241876108 -1547181849 150781484 1732402179 652973993 -499994589 -711831790 -748772069 715329805 1909562590 -785031242
REM
CELL 1.54180   50.00000   50.00000   50.00000   90.00000   90.00000   90.00000
LATT -1
SFAC C  
C      1  0.5026790000000  0.5793920000000  0.5128730000000 1.0
C      1  0.4401570000000  0.5213930000000  0.5264810000000 1.0
C      1  0.5498360000000  0.4208460000000  0.5176920000000 1.0
C      1  0.5297670000000  0.4330370000000  0.5025150000000 1.0
C      1  0.5024550000000  0.4566410000000  0.4714030000000 1.0
C      1  0.6078170000000  0.3814990000000  0.5874660000000 1.0
C      1  0.5257520000000  0.5113730000000  0.4301840000000 1.0
C      1  0.4496490000000  0.5431370000000  0.5141430000000 1.0
C      1  0.4945670000000  0.5559520000000  0.5001790000000 1.0
C      1  0.5888510000000  0.3931960000000  0.5739340000000 1.0
C      1  0.5186180000000  0.5297640000000  0.4121900000000 1.0
C      1  0.4759260000000  0.5493380000000  0.4207970000000 1.0
C      1  0.4620740000000  0.4685750000000  0.5615210000000 1.0
C      1  0.4450720000000  0.4476470000000  0.5222360000000 1.0
C      1  0.5260460000000  0.4283320000000  0.5575030000000 1.0
C      1  0.4736010000000  0.4863580000000  0.4445650000000 1.0
C      1  0.5242710000000  0.6465590000000  0.5495000000000 1.0
C      1  0.4594630000000  0.4564420000000  0.4985700000000 1.0
C      1  0.4595930000000  0.5495370000000  0.4668420000000 1.0
C      1  0.5313350000000  0.6685890000000  0.5615160000000 1.0
C      1  0.4860740000000  0.4564780000000  0.5602010000000 1.0
C      1  0.5130510000000  0.5360950000000  0.4930500000000 1.0
C      1  0.5494120000000  0.4175160000000  0.5457930000000 1.0
C      1  0.5216340000000  0.5159180000000  0.4779650000000 1.0
C      1  0.4503010000000  0.4839350000000  0.4969540000000 1.0
C      1  0.5273590000000  0.4426050000000  0.4756520000000 1.0
C      1  0.4986260000000  0.4793600000000  0.4554420000000 1.0
C      1  0.4416030000000  0.4938750000000  0.5229930000000 1.0
C      1  0.5044810000000  0.4418150000000  0.5449200000000 1.0
C      1  0.4991510000000  0.5487230000000  0.4049090000000 1.0
C      1  0.5045620000000  0.4408460000000  0.5162440000000 1.0
C      1  0.5025730000000  0.5655250000000  0.3837060000000 1.0
C      1  0.4625060000000  0.5367880000000  0.4420250000000 1.0
C      1  0.5695770000000  0.4050830000000  0.5601800000000 1.0
C      1  0.5170880000000  0.6241590000000  0.5372830000000 1.0
C      1  0.5099060000000  0.6017660000000  0.5250690000000 1.0
C      1  0.5181580000000  0.5003270000000  0.4548720000000 1.0
C      1  0.4595010000000  0.5087960000000  0.4406150000000 1.0
C      1  0.4431480000000  0.4704210000000  0.5407950000000 1.0
C      1  0.4866610000000  0.4508080000000  0.4953770000000 1.0
C      1  0.4670990000000  0.5515550000000  0.4938410000000 1.0
END
