TITL C-627107-135-392 0.0320342128498235 125000 -743.264317119785 0 0 121 (C1) n - 1
REM
REM in /home/nfs/bkarasulu/CARBON/AIRSS/Generating-Clusters/LCBOP/Only-C1/SD-CG/FIRE-CG
REM
REM
REM
REM
REM
REM ./C.cell (11c1c37f851c82e70ff6c80c92926a4b)
REM AIRSS Version 0.9.1 bugfix July 2018 build 013d7b7c2542+ Fri, 06 Jul 2018 19:26:36 +0100
REM compiler GCC version 9.2.1 20190827 (Red Hat 9.2.1-1)
REM options -cpp -mtune=generic -march=x86-64 -g -O0 -fpre-include=/usr/include/finclude/math-vector-fortran.h
REM seed 318848060 -846694666 335447632 -1648629324 -824548353 1186677281 1828388295 1847499542 -85640355 -1515599065 -805686414 1713024242 1621244096 -2084582222 -1395508971 1648330914 1945017576 -67608176 232876307 91812868 1731366463 1923369066 899320713 1978320330 -1842213850 -2129687525 248361579 66084798 1104530598 -32740669 1250633645 -197708017 328072401
REM
CELL 1.54180   50.00000   50.00000   50.00000   90.00000   90.00000   90.00000
LATT -1
SFAC C  
C      1  0.4419930000000  0.4077830000000  0.4566370000000 1.0
C      1  0.4527860000000  0.5043430000000  0.4402400000000 1.0
C      1  0.4097260000000  0.4674790000000  0.4861060000000 1.0
C      1  0.5168820000000  0.4739330000000  0.5372550000000 1.0
C      1  0.5250050000000  0.5590560000000  0.4532530000000 1.0
C      1  0.4885750000000  0.4007260000000  0.5107440000000 1.0
C      1  0.4253750000000  0.4501330000000  0.5518400000000 1.0
C      1  0.5873470000000  0.5817500000000  0.5309650000000 1.0
C      1  0.4794100000000  0.4909600000000  0.5573370000000 1.0
C      1  0.4398890000000  0.5058560000000  0.4829970000000 1.0
C      1  0.5566300000000  0.5275480000000  0.4053870000000 1.0
C      1  0.4125810000000  0.5209080000000  0.5232910000000 1.0
C      1  0.5026650000000  0.4985240000000  0.4569460000000 1.0
C      1  0.4637390000000  0.5826090000000  0.5703680000000 1.0
C      1  0.5055020000000  0.4228460000000  0.5535620000000 1.0
C      1  0.5369840000000  0.4924190000000  0.5434500000000 1.0
C      1  0.5353200000000  0.5050740000000  0.5691240000000 1.0
C      1  0.5697550000000  0.5413520000000  0.4912090000000 1.0
C      1  0.5384510000000  0.5372140000000  0.5249780000000 1.0
C      1  0.5807580000000  0.4775670000000  0.5359690000000 1.0
C      1  0.5328440000000  0.5202450000000  0.4177940000000 1.0
C      1  0.5417340000000  0.4469430000000  0.4718360000000 1.0
C      1  0.4139650000000  0.4394350000000  0.4795840000000 1.0
C      1  0.5524960000000  0.4939090000000  0.4958500000000 1.0
C      1  0.4465410000000  0.4340590000000  0.5619810000000 1.0
C      1  0.4380950000000  0.4899500000000  0.5798030000000 1.0
C      1  0.4865960000000  0.5808410000000  0.5873550000000 1.0
C      1  0.4616410000000  0.3956060000000  0.4700340000000 1.0
C      1  0.4242270000000  0.4852030000000  0.4708580000000 1.0
C      1  0.4284330000000  0.4323840000000  0.4559310000000 1.0
C      1  0.4850200000000  0.4085640000000  0.5377460000000 1.0
C      1  0.5365050000000  0.5883010000000  0.5828270000000 1.0
C      1  0.4681230000000  0.4727120000000  0.5038990000000 1.0
C      1  0.4241920000000  0.4792800000000  0.5570860000000 1.0
C      1  0.5786160000000  0.4493620000000  0.5318240000000 1.0
C      1  0.5009230000000  0.4684070000000  0.4683390000000 1.0
C      1  0.4595760000000  0.4471190000000  0.4181520000000 1.0
C      1  0.4411010000000  0.5187520000000  0.5805400000000 1.0
C      1  0.5522210000000  0.4345350000000  0.4948330000000 1.0
C      1  0.5139010000000  0.4579200000000  0.5142120000000 1.0
C      1  0.5021440000000  0.4987850000000  0.6056120000000 1.0
C      1  0.5206190000000  0.5152140000000  0.5916080000000 1.0
C      1  0.4129830000000  0.4262360000000  0.5054380000000 1.0
C      1  0.6039850000000  0.5403460000000  0.3865410000000 1.0
C      1  0.4922550000000  0.5014740000000  0.4094330000000 1.0
C      1  0.3904770000000  0.4495670000000  0.3974950000000 1.0
C      1  0.4066830000000  0.4714740000000  0.5144500000000 1.0
C      1  0.5109410000000  0.5605150000000  0.5540640000000 1.0
C      1  0.4351840000000  0.4807750000000  0.4443270000000 1.0
C      1  0.4654540000000  0.4470180000000  0.5793580000000 1.0
C      1  0.6194670000000  0.5024520000000  0.5637510000000 1.0
C      1  0.4803740000000  0.5011280000000  0.4355710000000 1.0
C      1  0.4790790000000  0.4849950000000  0.6076490000000 1.0
C      1  0.4336290000000  0.4526660000000  0.4329070000000 1.0
C      1  0.5299720000000  0.5769020000000  0.5035780000000 1.0
C      1  0.5787450000000  0.5022120000000  0.4593170000000 1.0
C      1  0.5090430000000  0.5483380000000  0.4738880000000 1.0
C      1  0.5022050000000  0.5684220000000  0.4945830000000 1.0
C      1  0.4820020000000  0.4546000000000  0.4053810000000 1.0
C      1  0.4472600000000  0.6043870000000  0.5712740000000 1.0
C      1  0.5029120000000  0.4184830000000  0.4665620000000 1.0
C      1  0.5520930000000  0.4692050000000  0.4227850000000 1.0
C      1  0.4118250000000  0.4448610000000  0.5272870000000 1.0
C      1  0.4913480000000  0.5252730000000  0.5275950000000 1.0
C      1  0.5482930000000  0.5537540000000  0.5044880000000 1.0
C      1  0.5205310000000  0.5660580000000  0.4276040000000 1.0
C      1  0.5608480000000  0.4326900000000  0.5484750000000 1.0
C      1  0.4928260000000  0.4451420000000  0.5683380000000 1.0
C      1  0.4718750000000  0.5693410000000  0.4982190000000 1.0
C      1  0.5966550000000  0.5400210000000  0.5017510000000 1.0
C      1  0.5066630000000  0.5263440000000  0.4065970000000 1.0
C      1  0.4108020000000  0.4508800000000  0.4137240000000 1.0
C      1  0.5803060000000  0.5341420000000  0.3955070000000 1.0
C      1  0.4997920000000  0.5213830000000  0.4779120000000 1.0
C      1  0.4579360000000  0.5690940000000  0.4713340000000 1.0
C      1  0.4743760000000  0.5639830000000  0.4243790000000 1.0
C      1  0.5785500000000  0.4447810000000  0.5029420000000 1.0
C      1  0.4976270000000  0.4704480000000  0.5565870000000 1.0
C      1  0.5995570000000  0.4902650000000  0.4780210000000 1.0
C      1  0.6384610000000  0.4307880000000  0.4650920000000 1.0
C      1  0.4582650000000  0.4723900000000  0.5926480000000 1.0
C      1  0.5981340000000  0.4609450000000  0.4858950000000 1.0
C      1  0.4710330000000  0.6080300000000  0.4450340000000 1.0
C      1  0.4580170000000  0.5339330000000  0.5632910000000 1.0
C      1  0.4842760000000  0.5167760000000  0.5016060000000 1.0
C      1  0.5152340000000  0.4432630000000  0.4620150000000 1.0
C      1  0.5420290000000  0.5979660000000  0.5183180000000 1.0
C      1  0.4449020000000  0.5239230000000  0.4607660000000 1.0
C      1  0.4586150000000  0.5609980000000  0.5525150000000 1.0
C      1  0.4679940000000  0.5808620000000  0.4469320000000 1.0
C      1  0.6015380000000  0.5615050000000  0.5196620000000 1.0
C      1  0.5137680000000  0.5691800000000  0.5826510000000 1.0
C      1  0.3901190000000  0.5452840000000  0.4864290000000 1.0
C      1  0.4096470000000  0.5551540000000  0.4707090000000 1.0
C      1  0.4550970000000  0.5604410000000  0.5228350000000 1.0
C      1  0.5297750000000  0.4677240000000  0.4066160000000 1.0
C      1  0.4582670000000  0.4124060000000  0.5475300000000 1.0
C      1  0.4341400000000  0.5398560000000  0.5201210000000 1.0
C      1  0.6192730000000  0.4452900000000  0.4751210000000 1.0
C      1  0.5310500000000  0.5050610000000  0.4424070000000 1.0
C      1  0.4370320000000  0.5503980000000  0.4659290000000 1.0
C      1  0.4615480000000  0.4995990000000  0.4994600000000 1.0
C      1  0.4856130000000  0.4030040000000  0.4826610000000 1.0
C      1  0.6091970000000  0.5139550000000  0.4946240000000 1.0
C      1  0.5474390000000  0.4742180000000  0.4735910000000 1.0
C      1  0.5582870000000  0.4915650000000  0.5246600000000 1.0
C      1  0.4934530000000  0.4643140000000  0.4959720000000 1.0
C      1  0.5554280000000  0.4864320000000  0.4472720000000 1.0
C      1  0.5548430000000  0.5968340000000  0.5650430000000 1.0
C      1  0.3898200000000  0.5294110000000  0.5083440000000 1.0
C      1  0.6011860000000  0.4897510000000  0.5502020000000 1.0
C      1  0.4987040000000  0.5531970000000  0.4141220000000 1.0
C      1  0.5133250000000  0.5402660000000  0.5356190000000 1.0
C      1  0.5331310000000  0.4252460000000  0.5420000000000 1.0
C      1  0.5196740000000  0.5432030000000  0.5965740000000 1.0
C      1  0.4137280000000  0.4934710000000  0.5327920000000 1.0
C      1  0.5310770000000  0.4349030000000  0.5146750000000 1.0
C      1  0.4754750000000  0.5167570000000  0.5490680000000 1.0
C      1  0.5630180000000  0.5169100000000  0.4799850000000 1.0
C      1  0.5020320000000  0.4746560000000  0.4027190000000 1.0
C      1  0.5629120000000  0.5948760000000  0.5380180000000 1.0
END
