TITL C-627112-676-552 -9.59191243306163 125000 -903.119718021823 0 0 147 (C1) n - 1
REM
REM in /home/nfs/bkarasulu/CARBON/AIRSS/Generating-Clusters/LCBOP/Only-C1/SD-CG/FIRE-CG
REM
REM
REM
REM
REM
REM ./C.cell (11c1c37f851c82e70ff6c80c92926a4b)
REM AIRSS Version 0.9.1 bugfix July 2018 build 013d7b7c2542+ Fri, 06 Jul 2018 19:26:36 +0100
REM compiler GCC version 9.2.1 20190827 (Red Hat 9.2.1-1)
REM options -cpp -mtune=generic -march=x86-64 -g -O0 -fpre-include=/usr/include/finclude/math-vector-fortran.h
REM seed 1655853730 -765488472 -526503623 1411933946 891947512 -1531099924 861900517 114791514 1213379418 577637419 -1636527190 -1265841772 661344552 1879330491 1857917248 631238199 -1487982870 949085369 326696011 2111334082 388309135 570746275 -756352792 1828292195 -288527361 -1873537017 1991915709 -25022992 1027564396 1741265184 -24181156 1468272595 -1543080558
REM
CELL 1.54180   50.00000   50.00000   50.00000   90.00000   90.00000   90.00000
LATT -1
SFAC C  
C      1  0.4362510000000  0.4171230000000  0.6043670000000 1.0
C      1  0.4924030000000  0.5636890000000  0.4589760000000 1.0
C      1  0.3831510000000  0.5233350000000  0.4842170000000 1.0
C      1  0.5948730000000  0.5527000000000  0.4838780000000 1.0
C      1  0.4951550000000  0.5180050000000  0.4487670000000 1.0
C      1  0.5089090000000  0.5427750000000  0.4479120000000 1.0
C      1  0.4390910000000  0.5532410000000  0.4473320000000 1.0
C      1  0.6176850000000  0.5670710000000  0.4910770000000 1.0
C      1  0.4803480000000  0.3975310000000  0.5105680000000 1.0
C      1  0.3819400000000  0.4583380000000  0.5127320000000 1.0
C      1  0.5365610000000  0.5422250000000  0.4419150000000 1.0
C      1  0.5372750000000  0.4719430000000  0.5358960000000 1.0
C      1  0.4671980000000  0.5482280000000  0.5926010000000 1.0
C      1  0.5614500000000  0.5330150000000  0.4373800000000 1.0
C      1  0.5075090000000  0.3562060000000  0.4829040000000 1.0
C      1  0.5356330000000  0.4711420000000  0.4530530000000 1.0
C      1  0.4919860000000  0.4269490000000  0.4190160000000 1.0
C      1  0.4457490000000  0.5025210000000  0.4025570000000 1.0
C      1  0.5079290000000  0.4728630000000  0.4457670000000 1.0
C      1  0.5483410000000  0.4620540000000  0.4289380000000 1.0
C      1  0.3671220000000  0.4122160000000  0.5329850000000 1.0
C      1  0.5235720000000  0.6115310000000  0.4534620000000 1.0
C      1  0.4866000000000  0.6268200000000  0.5162190000000 1.0
C      1  0.4701250000000  0.5133120000000  0.5506080000000 1.0
C      1  0.5440440000000  0.4318810000000  0.6071070000000 1.0
C      1  0.5187830000000  0.5912020000000  0.5261040000000 1.0
C      1  0.5359150000000  0.4599140000000  0.4044820000000 1.0
C      1  0.4300850000000  0.3949780000000  0.5898220000000 1.0
C      1  0.5015130000000  0.4967230000000  0.4319030000000 1.0
C      1  0.6127260000000  0.5808490000000  0.5367910000000 1.0
C      1  0.6535990000000  0.5920230000000  0.5126610000000 1.0
C      1  0.5192140000000  0.5135030000000  0.5478210000000 1.0
C      1  0.4953820000000  0.4675820000000  0.5006290000000 1.0
C      1  0.4759860000000  0.4234630000000  0.5772880000000 1.0
C      1  0.4451520000000  0.5270150000000  0.5038960000000 1.0
C      1  0.4396140000000  0.5001240000000  0.4912700000000 1.0
C      1  0.5829310000000  0.4199410000000  0.5031370000000 1.0
C      1  0.5465670000000  0.5644610000000  0.5668240000000 1.0
C      1  0.4610760000000  0.4479110000000  0.3904210000000 1.0
C      1  0.4626980000000  0.4896040000000  0.5649400000000 1.0
C      1  0.4620380000000  0.5130580000000  0.3822080000000 1.0
C      1  0.5693620000000  0.3972110000000  0.4998110000000 1.0
C      1  0.5962750000000  0.4659810000000  0.5192160000000 1.0
C      1  0.5237600000000  0.4474030000000  0.5352390000000 1.0
C      1  0.5085610000000  0.5140810000000  0.6099140000000 1.0
C      1  0.5065570000000  0.3876710000000  0.5191220000000 1.0
C      1  0.5717380000000  0.4756900000000  0.5667720000000 1.0
C      1  0.5028110000000  0.4303990000000  0.5821540000000 1.0
C      1  0.5930490000000  0.4457150000000  0.4987070000000 1.0
C      1  0.6775480000000  0.6033280000000  0.5118710000000 1.0
C      1  0.3924580000000  0.5426710000000  0.4654980000000 1.0
C      1  0.4180750000000  0.5427740000000  0.6102600000000 1.0
C      1  0.4037590000000  0.4887330000000  0.4539290000000 1.0
C      1  0.5194770000000  0.5827390000000  0.4091310000000 1.0
C      1  0.5091140000000  0.4669010000000  0.3959000000000 1.0
C      1  0.5232320000000  0.6003420000000  0.4290550000000 1.0
C      1  0.4701720000000  0.5398010000000  0.3425710000000 1.0
C      1  0.5252640000000  0.5766060000000  0.5515700000000 1.0
C      1  0.5277620000000  0.4982280000000  0.5235810000000 1.0
C      1  0.4942700000000  0.5475940000000  0.3525190000000 1.0
C      1  0.4209350000000  0.4520900000000  0.4238230000000 1.0
C      1  0.4930640000000  0.5471650000000  0.5784540000000 1.0
C      1  0.3919770000000  0.4831110000000  0.5052220000000 1.0
C      1  0.5258510000000  0.4734070000000  0.5900230000000 1.0
C      1  0.5024590000000  0.4888770000000  0.5978520000000 1.0
C      1  0.5948150000000  0.5269700000000  0.4717960000000 1.0
C      1  0.4642940000000  0.5636850000000  0.4502410000000 1.0
C      1  0.4735010000000  0.4100430000000  0.4625250000000 1.0
C      1  0.4369090000000  0.4470530000000  0.4026780000000 1.0
C      1  0.6036880000000  0.4911670000000  0.5080690000000 1.0
C      1  0.4755860000000  0.4814020000000  0.5892680000000 1.0
C      1  0.4617360000000  0.4901400000000  0.4761970000000 1.0
C      1  0.4575500000000  0.4342170000000  0.5971290000000 1.0
C      1  0.5403740000000  0.5397490000000  0.5811580000000 1.0
C      1  0.4742740000000  0.3909020000000  0.4829470000000 1.0
C      1  0.4276210000000  0.5515140000000  0.5029810000000 1.0
C      1  0.4144900000000  0.4619550000000  0.4497570000000 1.0
C      1  0.5171450000000  0.4858000000000  0.4973670000000 1.0
C      1  0.3733010000000  0.4353430000000  0.5226640000000 1.0
C      1  0.4911450000000  0.6035530000000  0.5316990000000 1.0
C      1  0.5921990000000  0.5776600000000  0.5533610000000 1.0
C      1  0.5709050000000  0.5589350000000  0.4977280000000 1.0
C      1  0.5534930000000  0.5435560000000  0.5112420000000 1.0
C      1  0.4780240000000  0.5808950000000  0.5450410000000 1.0
C      1  0.3894180000000  0.4950760000000  0.4784080000000 1.0
C      1  0.4883150000000  0.4556750000000  0.4563870000000 1.0
C      1  0.5709950000000  0.5780960000000  0.5716130000000 1.0
C      1  0.5856330000000  0.5204680000000  0.4453240000000 1.0
C      1  0.5155280000000  0.5384030000000  0.5966350000000 1.0
C      1  0.4775800000000  0.5140080000000  0.4705540000000 1.0
C      1  0.4631460000000  0.4125910000000  0.5283200000000 1.0
C      1  0.5019330000000  0.4943440000000  0.4033900000000 1.0
C      1  0.4386840000000  0.4545690000000  0.5387180000000 1.0
C      1  0.5867190000000  0.4664080000000  0.5461070000000 1.0
C      1  0.4906110000000  0.5156050000000  0.3881930000000 1.0
C      1  0.4389360000000  0.4799660000000  0.5509890000000 1.0
C      1  0.5983820000000  0.4703920000000  0.4502700000000 1.0
C      1  0.4993900000000  0.4490960000000  0.5210260000000 1.0
C      1  0.4985510000000  0.5696900000000  0.4867880000000 1.0
C      1  0.4986330000000  0.5719400000000  0.5633230000000 1.0
C      1  0.7011090000000  0.6144590000000  0.5110910000000 1.0
C      1  0.4196180000000  0.5094090000000  0.4097780000000 1.0
C      1  0.5005780000000  0.6324410000000  0.4933480000000 1.0
C      1  0.4329380000000  0.4356760000000  0.4944300000000 1.0
C      1  0.5738100000000  0.5925630000000  0.5954100000000 1.0
C      1  0.4821500000000  0.5546980000000  0.5041800000000 1.0
C      1  0.4251390000000  0.5037300000000  0.5392870000000 1.0
C      1  0.5482160000000  0.4880850000000  0.5775780000000 1.0
C      1  0.5979510000000  0.4539150000000  0.4716250000000 1.0
C      1  0.4884560000000  0.4460920000000  0.3979860000000 1.0
C      1  0.5407390000000  0.5143190000000  0.5676060000000 1.0
C      1  0.6284130000000  0.5801780000000  0.5135040000000 1.0
C      1  0.4713840000000  0.5325700000000  0.4911240000000 1.0
C      1  0.5403000000000  0.4836110000000  0.4781960000000 1.0
C      1  0.5934290000000  0.4940160000000  0.4379150000000 1.0
C      1  0.4001410000000  0.5039780000000  0.5245750000000 1.0
C      1  0.5322140000000  0.4224410000000  0.5439760000000 1.0
C      1  0.4768680000000  0.4667530000000  0.4795530000000 1.0
C      1  0.5757200000000  0.6057140000000  0.6178280000000 1.0
C      1  0.4035160000000  0.5523380000000  0.5154530000000 1.0
C      1  0.4118000000000  0.5113790000000  0.4367870000000 1.0
C      1  0.5494710000000  0.3794990000000  0.4977470000000 1.0
C      1  0.4828320000000  0.3647550000000  0.4753500000000 1.0
C      1  0.4637390000000  0.4069480000000  0.5566430000000 1.0
C      1  0.5483820000000  0.5161950000000  0.5111910000000 1.0
C      1  0.4577520000000  0.4867360000000  0.4214320000000 1.0
C      1  0.4438080000000  0.3892390000000  0.5670220000000 1.0
C      1  0.4489820000000  0.5245210000000  0.5335780000000 1.0
C      1  0.4945350000000  0.5250820000000  0.5562240000000 1.0
C      1  0.5176440000000  0.5885260000000  0.4966540000000 1.0
C      1  0.4448510000000  0.4337980000000  0.5201230000000 1.0
C      1  0.5225900000000  0.3720380000000  0.5008010000000 1.0
C      1  0.5605550000000  0.5004460000000  0.4902460000000 1.0
C      1  0.3886590000000  0.5285930000000  0.5124970000000 1.0
C      1  0.5026790000000  0.5404320000000  0.3789250000000 1.0
C      1  0.4685620000000  0.5595550000000  0.5288770000000 1.0
C      1  0.5884840000000  0.5054210000000  0.4893710000000 1.0
C      1  0.5141660000000  0.5606090000000  0.3948970000000 1.0
C      1  0.5206910000000  0.3985230000000  0.5406980000000 1.0
C      1  0.4147840000000  0.5376420000000  0.4486500000000 1.0
C      1  0.5173730000000  0.6129650000000  0.4809110000000 1.0
C      1  0.4426640000000  0.5464290000000  0.6024150000000 1.0
C      1  0.4219430000000  0.4459600000000  0.4721570000000 1.0
C      1  0.4844930000000  0.4297590000000  0.4461230000000 1.0
C      1  0.4540550000000  0.5234350000000  0.3571180000000 1.0
C      1  0.5245750000000  0.4449960000000  0.5929880000000 1.0
C      1  0.4620280000000  0.4610840000000  0.6036180000000 1.0
END
