TITL C-627112-676-609 2845.16070471058 125000 -974.726718234006 0 0 158 (C1) n - 1
REM
REM in /home/nfs/bkarasulu/CARBON/AIRSS/Generating-Clusters/LCBOP/Only-C1/SD-CG/FIRE-CG
REM
REM
REM
REM
REM
REM ./C.cell (11c1c37f851c82e70ff6c80c92926a4b)
REM AIRSS Version 0.9.1 bugfix July 2018 build 013d7b7c2542+ Fri, 06 Jul 2018 19:26:36 +0100
REM compiler GCC version 9.2.1 20190827 (Red Hat 9.2.1-1)
REM options -cpp -mtune=generic -march=x86-64 -g -O0 -fpre-include=/usr/include/finclude/math-vector-fortran.h
REM seed 522880735 300719747 1584881159 381694381 -58514488 1641376104 1385837224 -138993414 -2142201975 -713451228 1057975520 -799818674 -621664502 1804101574 2127269062 -1120529607 378809932 1972782214 -1214971996 868301416 230635599 406843062 -864059830 1924984492 -872317089 -2101336075 141617849 -2083162106 -1859983063 2129037678 954936148 -1912836484 1683548205
REM
CELL 1.54180   50.00000   50.00000   50.00000   90.00000   90.00000   90.00000
LATT -1
SFAC C  
C      1  0.4881000000000  0.3693740000000  0.4650510000000 1.0
C      1  0.5279160000000  0.5253060000000  0.4598430000000 1.0
C      1  0.6325630000000  0.4601310000000  0.5367920000000 1.0
C      1  0.5683900000000  0.5499850000000  0.5607530000000 1.0
C      1  0.4338140000000  0.4689590000000  0.4360330000000 1.0
C      1  0.3495130000000  0.5021020000000  0.5419760000000 1.0
C      1  0.4833070000000  0.4244270000000  0.4053620000000 1.0
C      1  0.5121710000000  0.6445910000000  0.5077980000000 1.0
C      1  0.4147860000000  0.5595440000000  0.4890500000000 1.0
C      1  0.6558970000000  0.4717190000000  0.5374420000000 1.0
C      1  0.4746930000000  0.4261860000000  0.4941680000000 1.0
C      1  0.5498190000000  0.5991540000000  0.4739690000000 1.0
C      1  0.5265580000000  0.4230970000000  0.4288620000000 1.0
C      1  0.5530190000000  0.4883470000000  0.4461390000000 1.0
C      1  0.4677080000000  0.4685890000000  0.5466860000000 1.0
C      1  0.5729810000000  0.4333160000000  0.4211700000000 1.0
C      1  0.5735530000000  0.4150670000000  0.5171790000000 1.0
C      1  0.4810150000000  0.4605130000000  0.5935650000000 1.0
C      1  0.3766310000000  0.4312770000000  0.5150600000000 1.0
C      1  0.4741840000000  0.4940850000000  0.4769490000000 1.0
C      1  0.4290380000000  0.5394840000000  0.5705870000000 1.0
C      1  0.5016730000000  0.4236220000000  0.5035560000000 1.0
C      1  0.4619110000000  0.4705750000000  0.4853740000000 1.0
C      1  0.4294940000000  0.6023360000000  0.5028960000000 1.0
C      1  0.4076780000000  0.5123390000000  0.5014160000000 1.0
C      1  0.5077320000000  0.5111730000000  0.5240190000000 1.0
C      1  0.5215130000000  0.5798740000000  0.5917180000000 1.0
C      1  0.5531630000000  0.5435970000000  0.5852040000000 1.0
C      1  0.4369090000000  0.5589760000000  0.5889760000000 1.0
C      1  0.3636860000000  0.4541690000000  0.5245840000000 1.0
C      1  0.4592850000000  0.4208730000000  0.4211180000000 1.0
C      1  0.4825610000000  0.5247350000000  0.6370720000000 1.0
C      1  0.5759750000000  0.4558460000000  0.4069920000000 1.0
C      1  0.5849290000000  0.4771560000000  0.5767590000000 1.0
C      1  0.4908100000000  0.4576210000000  0.5350120000000 1.0
C      1  0.5025490000000  0.5213380000000  0.4484700000000 1.0
C      1  0.5082090000000  0.5098890000000  0.5527940000000 1.0
C      1  0.5651450000000  0.4367260000000  0.5909150000000 1.0
C      1  0.5685840000000  0.4337910000000  0.5623770000000 1.0
C      1  0.5491850000000  0.4608160000000  0.4866870000000 1.0
C      1  0.4672360000000  0.4997120000000  0.3755020000000 1.0
C      1  0.5796840000000  0.5268140000000  0.4146400000000 1.0
C      1  0.5257560000000  0.4694660000000  0.5802980000000 1.0
C      1  0.5041870000000  0.5512430000000  0.4922360000000 1.0
C      1  0.4957290000000  0.5008880000000  0.3342070000000 1.0
C      1  0.4783660000000  0.5930460000000  0.4955070000000 1.0
C      1  0.5052850000000  0.5341200000000  0.5946490000000 1.0
C      1  0.5076170000000  0.4565320000000  0.5953550000000 1.0
C      1  0.4988570000000  0.5714050000000  0.4499070000000 1.0
C      1  0.4179190000000  0.4872810000000  0.4882840000000 1.0
C      1  0.5369140000000  0.4728450000000  0.3843440000000 1.0
C      1  0.4933560000000  0.4729630000000  0.4391650000000 1.0
C      1  0.5295310000000  0.6020140000000  0.5272030000000 1.0
C      1  0.5091270000000  0.4277970000000  0.4506170000000 1.0
C      1  0.4593130000000  0.5571740000000  0.5179270000000 1.0
C      1  0.3553090000000  0.4776630000000  0.5335060000000 1.0
C      1  0.5513720000000  0.5158320000000  0.4490050000000 1.0
C      1  0.4918050000000  0.5281970000000  0.5059580000000 1.0
C      1  0.5060320000000  0.3773840000000  0.4831870000000 1.0
C      1  0.6008430000000  0.4703020000000  0.4862990000000 1.0
C      1  0.5636460000000  0.5189400000000  0.5964690000000 1.0
C      1  0.4145760000000  0.5453750000000  0.5455680000000 1.0
C      1  0.4749320000000  0.5047440000000  0.3505380000000 1.0
C      1  0.5656930000000  0.4086920000000  0.4902290000000 1.0
C      1  0.4515600000000  0.5814440000000  0.5892630000000 1.0
C      1  0.5083770000000  0.5858890000000  0.4276150000000 1.0
C      1  0.4909350000000  0.4486260000000  0.4540030000000 1.0
C      1  0.5326800000000  0.4045720000000  0.5466510000000 1.0
C      1  0.5199030000000  0.4898960000000  0.3373590000000 1.0
C      1  0.4383220000000  0.4695140000000  0.5044080000000 1.0
C      1  0.4692990000000  0.4879620000000  0.4006770000000 1.0
C      1  0.4539620000000  0.5367890000000  0.4762050000000 1.0
C      1  0.4325000000000  0.5018680000000  0.5430570000000 1.0
C      1  0.5591060000000  0.5935200000000  0.5252760000000 1.0
C      1  0.4421670000000  0.5146760000000  0.5672080000000 1.0
C      1  0.4692390000000  0.4769500000000  0.5741650000000 1.0
C      1  0.4319270000000  0.5949100000000  0.5309640000000 1.0
C      1  0.6224350000000  0.4799460000000  0.4753220000000 1.0
C      1  0.4412760000000  0.4415890000000  0.4302170000000 1.0
C      1  0.5482760000000  0.5474910000000  0.5009180000000 1.0
C      1  0.4612580000000  0.5820810000000  0.4158750000000 1.0
C      1  0.4145110000000  0.5196550000000  0.5289690000000 1.0
C      1  0.4911520000000  0.6089480000000  0.3878770000000 1.0
C      1  0.4785310000000  0.5804860000000  0.5241270000000 1.0
C      1  0.4621350000000  0.5971520000000  0.5701660000000 1.0
C      1  0.5809440000000  0.5055510000000  0.5764530000000 1.0
C      1  0.5552180000000  0.5843760000000  0.4492670000000 1.0
C      1  0.5145870000000  0.4607850000000  0.3980790000000 1.0
C      1  0.5701880000000  0.5595700000000  0.4566250000000 1.0
C      1  0.4419990000000  0.5532660000000  0.4952110000000 1.0
C      1  0.5703510000000  0.5610910000000  0.4875270000000 1.0
C      1  0.5535820000000  0.5043310000000  0.6187150000000 1.0
C      1  0.4871490000000  0.5929320000000  0.4096120000000 1.0
C      1  0.5047000000000  0.5234150000000  0.6212290000000 1.0
C      1  0.4457800000000  0.4797270000000  0.5317710000000 1.0
C      1  0.5772150000000  0.5134400000000  0.5285980000000 1.0
C      1  0.4595190000000  0.3729170000000  0.5988230000000 1.0
C      1  0.3881470000000  0.5989040000000  0.4760900000000 1.0
C      1  0.4544670000000  0.6073780000000  0.4898470000000 1.0
C      1  0.5097870000000  0.4481400000000  0.5161280000000 1.0
C      1  0.4786530000000  0.3971410000000  0.5544620000000 1.0
C      1  0.4690230000000  0.3765450000000  0.4478160000000 1.0
C      1  0.4094270000000  0.5874460000000  0.4885680000000 1.0
C      1  0.5289490000000  0.5118410000000  0.6297720000000 1.0
C      1  0.5608850000000  0.4102670000000  0.4634250000000 1.0
C      1  0.4533050000000  0.4219030000000  0.5124660000000 1.0
C      1  0.4902900000000  0.4963510000000  0.4538860000000 1.0
C      1  0.4571290000000  0.3953760000000  0.4331130000000 1.0
C      1  0.4593590000000  0.5962200000000  0.5422050000000 1.0
C      1  0.5114590000000  0.4326570000000  0.4053730000000 1.0
C      1  0.4935390000000  0.4760070000000  0.4107870000000 1.0
C      1  0.5265640000000  0.5530120000000  0.5898410000000 1.0
C      1  0.6072920000000  0.4486630000000  0.5374260000000 1.0
C      1  0.5626220000000  0.4784040000000  0.3963930000000 1.0
C      1  0.5006010000000  0.5806090000000  0.4788050000000 1.0
C      1  0.5204130000000  0.6188400000000  0.5059450000000 1.0
C      1  0.5540460000000  0.4194480000000  0.4368250000000 1.0
C      1  0.5449140000000  0.4669860000000  0.4597790000000 1.0
C      1  0.5285390000000  0.5399610000000  0.4830960000000 1.0
C      1  0.5225800000000  0.6029660000000  0.4818110000000 1.0
C      1  0.5764650000000  0.4622060000000  0.4933100000000 1.0
C      1  0.4309160000000  0.4399370000000  0.5093160000000 1.0
C      1  0.5736290000000  0.5046390000000  0.3998310000000 1.0
C      1  0.4042960000000  0.4320870000000  0.5111790000000 1.0
C      1  0.4668570000000  0.5055210000000  0.5768020000000 1.0
C      1  0.4705750000000  0.5179830000000  0.4898850000000 1.0
C      1  0.3624780000000  0.4085280000000  0.5096270000000 1.0
C      1  0.4724700000000  0.4466740000000  0.4751940000000 1.0
C      1  0.4479360000000  0.5641040000000  0.4315560000000 1.0
C      1  0.4601260000000  0.4070240000000  0.5354360000000 1.0
C      1  0.3993780000000  0.5356940000000  0.4867990000000 1.0
C      1  0.5643490000000  0.4783440000000  0.6214900000000 1.0
C      1  0.4195970000000  0.4795990000000  0.4594690000000 1.0
C      1  0.4877870000000  0.5452430000000  0.4453230000000 1.0
C      1  0.5586710000000  0.5680090000000  0.5410890000000 1.0
C      1  0.5291460000000  0.4943540000000  0.5133200000000 1.0
C      1  0.5260280000000  0.4901690000000  0.5633340000000 1.0
C      1  0.5341210000000  0.4790060000000  0.3570850000000 1.0
C      1  0.5131790000000  0.3988130000000  0.4976430000000 1.0
C      1  0.5669050000000  0.5895830000000  0.4965000000000 1.0
C      1  0.5738460000000  0.4625270000000  0.6003500000000 1.0
C      1  0.5130160000000  0.5769700000000  0.5301980000000 1.0
C      1  0.4147470000000  0.5732270000000  0.5393390000000 1.0
C      1  0.5576540000000  0.4168180000000  0.5418140000000 1.0
C      1  0.4463620000000  0.4868210000000  0.4176520000000 1.0
C      1  0.3452940000000  0.5265890000000  0.5498640000000 1.0
C      1  0.5873290000000  0.4562280000000  0.5561470000000 1.0
C      1  0.5556270000000  0.5040390000000  0.5160840000000 1.0
C      1  0.4596540000000  0.5455390000000  0.4496980000000 1.0
C      1  0.5357200000000  0.5559550000000  0.5268140000000 1.0
C      1  0.5067500000000  0.3998560000000  0.5517230000000 1.0
C      1  0.5284220000000  0.4667630000000  0.5053300000000 1.0
C      1  0.5995160000000  0.4268150000000  0.5208220000000 1.0
C      1  0.4687160000000  0.3842960000000  0.5772570000000 1.0
C      1  0.5817240000000  0.5242700000000  0.5540060000000 1.0
C      1  0.4913830000000  0.5203850000000  0.5735460000000 1.0
C      1  0.5367310000000  0.5883800000000  0.4279200000000 1.0
C      1  0.5700920000000  0.5354470000000  0.4401880000000 1.0
END
