TITL C-627109-622-1302 -1.80888747003565e-07 125000 -1220.62913722777 0 0 200 (C1) n - 1
REM
REM in /home/nfs/bkarasulu/CARBON/AIRSS/Generating-Clusters/LCBOP/Only-C1/SD-CG/FIRE-CG
REM
REM
REM
REM
REM
REM ./C.cell (11c1c37f851c82e70ff6c80c92926a4b)
REM AIRSS Version 0.9.1 bugfix July 2018 build 013d7b7c2542+ Fri, 06 Jul 2018 19:26:36 +0100
REM compiler GCC version 9.2.1 20190827 (Red Hat 9.2.1-1)
REM options -cpp -mtune=generic -march=x86-64 -g -O0 -fpre-include=/usr/include/finclude/math-vector-fortran.h
REM seed 1556729873 -404443449 516464326 -438022037 -1327308940 -1001600249 -2086656519 2017328103 64901154 198350628 409602443 -151821290 630754072 -1718188228 -1928616359 1861160349 -785206106 -1749920071 -1911963411 133756630 -589769534 -1432436491 1185388709 558085140 -1229588597 1972393736 -240193434 -1586935020 -1570288418 -1830368034 -474561057 1428731237 -870491132
REM
CELL 1.54180   50.00000   50.00000   50.00000   90.00000   90.00000   90.00000
LATT -1
SFAC C  
C      1  0.5443390000000  0.4276740000000  0.5737010000000 1.0
C      1  0.4050970000000  0.5816300000000  0.6483710000000 1.0
C      1  0.4582710000000  0.4876240000000  0.4714810000000 1.0
C      1  0.5697080000000  0.5099850000000  0.5013680000000 1.0
C      1  0.5731920000000  0.6188910000000  0.4570710000000 1.0
C      1  0.5735040000000  0.5865840000000  0.4085820000000 1.0
C      1  0.5284500000000  0.4776790000000  0.4271490000000 1.0
C      1  0.6317270000000  0.5035130000000  0.5344900000000 1.0
C      1  0.5572500000000  0.4717420000000  0.4224580000000 1.0
C      1  0.4424000000000  0.5465860000000  0.5483790000000 1.0
C      1  0.3919420000000  0.4694060000000  0.4712320000000 1.0
C      1  0.5845500000000  0.4343300000000  0.4586670000000 1.0
C      1  0.3563530000000  0.4693770000000  0.5337100000000 1.0
C      1  0.4920160000000  0.4767450000000  0.5668230000000 1.0
C      1  0.5238330000000  0.6269380000000  0.4554090000000 1.0
C      1  0.4289860000000  0.5034010000000  0.5316380000000 1.0
C      1  0.3996760000000  0.5742940000000  0.5463310000000 1.0
C      1  0.5134640000000  0.3961750000000  0.5017520000000 1.0
C      1  0.6371600000000  0.5205520000000  0.4615640000000 1.0
C      1  0.4945940000000  0.4047460000000  0.5669360000000 1.0
C      1  0.5828170000000  0.5990100000000  0.5324630000000 1.0
C      1  0.4198220000000  0.4799810000000  0.5157030000000 1.0
C      1  0.6182040000000  0.5930640000000  0.4666890000000 1.0
C      1  0.4642210000000  0.4747180000000  0.5578590000000 1.0
C      1  0.4672670000000  0.4131730000000  0.5737330000000 1.0
C      1  0.5539850000000  0.5198420000000  0.5824420000000 1.0
C      1  0.5985350000000  0.5049400000000  0.5703890000000 1.0
C      1  0.5325210000000  0.4022350000000  0.4473350000000 1.0
C      1  0.4775360000000  0.3857710000000  0.4647000000000 1.0
C      1  0.4883040000000  0.5106290000000  0.4092370000000 1.0
C      1  0.4166230000000  0.4108310000000  0.4882860000000 1.0
C      1  0.4989610000000  0.5067780000000  0.6316850000000 1.0
C      1  0.4614280000000  0.5998810000000  0.4695220000000 1.0
C      1  0.4882450000000  0.4394170000000  0.5098960000000 1.0
C      1  0.4847900000000  0.4932390000000  0.5155580000000 1.0
C      1  0.3981250000000  0.4606250000000  0.4439710000000 1.0
C      1  0.5775040000000  0.4991710000000  0.5484830000000 1.0
C      1  0.5309750000000  0.4845210000000  0.4863340000000 1.0
C      1  0.4164870000000  0.5920480000000  0.5613960000000 1.0
C      1  0.4283840000000  0.5316930000000  0.5281100000000 1.0
C      1  0.4327970000000  0.5431900000000  0.6225990000000 1.0
C      1  0.4215410000000  0.4314420000000  0.5934270000000 1.0
C      1  0.5452870000000  0.4651560000000  0.5336040000000 1.0
C      1  0.4940100000000  0.5440120000000  0.5569540000000 1.0
C      1  0.6237400000000  0.4312650000000  0.4918540000000 1.0
C      1  0.5090990000000  0.5214520000000  0.5460480000000 1.0
C      1  0.5083700000000  0.4929720000000  0.4716060000000 1.0
C      1  0.5112310000000  0.4243550000000  0.5036340000000 1.0
C      1  0.5684680000000  0.4536830000000  0.4707480000000 1.0
C      1  0.5611890000000  0.4234990000000  0.5167300000000 1.0
C      1  0.4829650000000  0.4895250000000  0.4553380000000 1.0
C      1  0.5698500000000  0.4907040000000  0.4439390000000 1.0
C      1  0.4390790000000  0.4678810000000  0.4719960000000 1.0
C      1  0.6215200000000  0.4170490000000  0.5159920000000 1.0
C      1  0.6341480000000  0.5711230000000  0.4747350000000 1.0
C      1  0.4990580000000  0.5651070000000  0.4566300000000 1.0
C      1  0.5168060000000  0.5757320000000  0.4775170000000 1.0
C      1  0.5572760000000  0.4540840000000  0.5762580000000 1.0
C      1  0.4784200000000  0.6039650000000  0.4923170000000 1.0
C      1  0.4126390000000  0.5177250000000  0.4570460000000 1.0
C      1  0.6072420000000  0.4236030000000  0.4705490000000 1.0
C      1  0.5748940000000  0.5658680000000  0.4283780000000 1.0
C      1  0.4038760000000  0.5352570000000  0.5832090000000 1.0
C      1  0.5972410000000  0.5411360000000  0.4633600000000 1.0
C      1  0.4552120000000  0.5331550000000  0.4413050000000 1.0
C      1  0.5488600000000  0.4481750000000  0.5121270000000 1.0
C      1  0.4694270000000  0.4330770000000  0.4698850000000 1.0
C      1  0.5286490000000  0.5071200000000  0.5879400000000 1.0
C      1  0.4732300000000  0.5165180000000  0.5044790000000 1.0
C      1  0.4449210000000  0.5927360000000  0.5613910000000 1.0
C      1  0.3765270000000  0.5020240000000  0.5633240000000 1.0
C      1  0.5001200000000  0.5866000000000  0.4989020000000 1.0
C      1  0.5921920000000  0.5201010000000  0.4181730000000 1.0
C      1  0.4990370000000  0.6220380000000  0.4456820000000 1.0
C      1  0.5689000000000  0.5136730000000  0.3980320000000 1.0
C      1  0.5249910000000  0.5221680000000  0.5201840000000 1.0
C      1  0.4022360000000  0.4157770000000  0.4656330000000 1.0
C      1  0.5612730000000  0.4416460000000  0.4174530000000 1.0
C      1  0.4379130000000  0.5778110000000  0.4711100000000 1.0
C      1  0.4707160000000  0.4911140000000  0.3939950000000 1.0
C      1  0.5134060000000  0.4643500000000  0.3767950000000 1.0
C      1  0.5229290000000  0.5460320000000  0.3971270000000 1.0
C      1  0.3669630000000  0.4693990000000  0.4835660000000 1.0
C      1  0.5466030000000  0.5308030000000  0.3900650000000 1.0
C      1  0.5707150000000  0.3743100000000  0.4351740000000 1.0
C      1  0.4919530000000  0.5645300000000  0.5147350000000 1.0
C      1  0.5206450000000  0.3853110000000  0.5278930000000 1.0
C      1  0.5874860000000  0.4996370000000  0.5202470000000 1.0
C      1  0.6146860000000  0.4956860000000  0.5130370000000 1.0
C      1  0.5185610000000  0.4222200000000  0.3937250000000 1.0
C      1  0.3729710000000  0.5278700000000  0.5499420000000 1.0
C      1  0.3361540000000  0.4004540000000  0.5494960000000 1.0
C      1  0.5104890000000  0.5000240000000  0.5658110000000 1.0
C      1  0.4774180000000  0.6030310000000  0.4442520000000 1.0
C      1  0.4462070000000  0.5471750000000  0.4161620000000 1.0
C      1  0.4984480000000  0.4417780000000  0.3889040000000 1.0
C      1  0.5314500000000  0.5683720000000  0.4126110000000 1.0
C      1  0.5978850000000  0.6087290000000  0.4592430000000 1.0
C      1  0.4397590000000  0.4156650000000  0.5017510000000 1.0
C      1  0.6577780000000  0.5751800000000  0.4878540000000 1.0
C      1  0.3783990000000  0.4250370000000  0.5716550000000 1.0
C      1  0.5612900000000  0.4083070000000  0.5616720000000 1.0
C      1  0.4219370000000  0.5823850000000  0.4455070000000 1.0
C      1  0.6163780000000  0.5635770000000  0.5537020000000 1.0
C      1  0.4184290000000  0.5625290000000  0.6366880000000 1.0
C      1  0.5133180000000  0.4966450000000  0.4162820000000 1.0
C      1  0.4745920000000  0.5143760000000  0.6391390000000 1.0
C      1  0.4472960000000  0.4965790000000  0.5527190000000 1.0
C      1  0.4027730000000  0.5792900000000  0.5175880000000 1.0
C      1  0.5139660000000  0.4209520000000  0.4514030000000 1.0
C      1  0.4564410000000  0.4254970000000  0.5506860000000 1.0
C      1  0.6198320000000  0.4970440000000  0.4607670000000 1.0
C      1  0.5637080000000  0.6113850000000  0.5184860000000 1.0
C      1  0.5884630000000  0.5139180000000  0.6191110000000 1.0
C      1  0.3566440000000  0.4120130000000  0.5607060000000 1.0
C      1  0.4358730000000  0.4313150000000  0.4361500000000 1.0
C      1  0.4651300000000  0.4279370000000  0.4974090000000 1.0
C      1  0.5368610000000  0.5556270000000  0.4845940000000 1.0
C      1  0.4809490000000  0.5498270000000  0.4725470000000 1.0
C      1  0.4268270000000  0.5225550000000  0.4814830000000 1.0
C      1  0.4783650000000  0.5430090000000  0.5813470000000 1.0
C      1  0.4483480000000  0.4206030000000  0.5945980000000 1.0
C      1  0.4764030000000  0.5887770000000  0.6004330000000 1.0
C      1  0.5468440000000  0.4604870000000  0.4868050000000 1.0
C      1  0.5600170000000  0.4856790000000  0.3948680000000 1.0
C      1  0.4501570000000  0.5388740000000  0.5759330000000 1.0
C      1  0.6229360000000  0.5153650000000  0.5591960000000 1.0
C      1  0.6326790000000  0.4577230000000  0.4897880000000 1.0
C      1  0.3907090000000  0.5493810000000  0.5597780000000 1.0
C      1  0.5920670000000  0.5447500000000  0.4345080000000 1.0
C      1  0.5810090000000  0.5129480000000  0.5929540000000 1.0
C      1  0.4892480000000  0.4667900000000  0.5158340000000 1.0
C      1  0.4748580000000  0.5123480000000  0.4367090000000 1.0
C      1  0.3959550000000  0.5073060000000  0.5843850000000 1.0
C      1  0.5392910000000  0.5475500000000  0.5135310000000 1.0
C      1  0.4549100000000  0.5511670000000  0.4631870000000 1.0
C      1  0.5032370000000  0.4521540000000  0.5754450000000 1.0
C      1  0.5580890000000  0.5160100000000  0.4576230000000 1.0
C      1  0.5494860000000  0.6204780000000  0.4977040000000 1.0
C      1  0.6215310000000  0.4835460000000  0.4873550000000 1.0
C      1  0.5575270000000  0.5478920000000  0.5360980000000 1.0
C      1  0.5443650000000  0.4282990000000  0.3988160000000 1.0
C      1  0.5753420000000  0.4101570000000  0.5371900000000 1.0
C      1  0.4566670000000  0.5718610000000  0.5454930000000 1.0
C      1  0.4927590000000  0.4385200000000  0.4550400000000 1.0
C      1  0.4520190000000  0.5098970000000  0.4865610000000 1.0
C      1  0.4589900000000  0.4197610000000  0.4213970000000 1.0
C      1  0.6030050000000  0.4076940000000  0.5330560000000 1.0
C      1  0.4288110000000  0.5714500000000  0.4216600000000 1.0
C      1  0.4291200000000  0.5403030000000  0.5946830000000 1.0
C      1  0.4960420000000  0.3857000000000  0.5439450000000 1.0
C      1  0.4292020000000  0.4692590000000  0.4059740000000 1.0
C      1  0.6010870000000  0.5828370000000  0.5433300000000 1.0
C      1  0.5472600000000  0.5892080000000  0.4001080000000 1.0
C      1  0.4125990000000  0.5082300000000  0.4297260000000 1.0
C      1  0.4100930000000  0.4852570000000  0.5954130000000 1.0
C      1  0.3836680000000  0.4534020000000  0.5715040000000 1.0
C      1  0.5432480000000  0.5415000000000  0.4582710000000 1.0
C      1  0.4267430000000  0.4571740000000  0.5313940000000 1.0
C      1  0.3546250000000  0.4684810000000  0.5071680000000 1.0
C      1  0.4714750000000  0.4406150000000  0.4012860000000 1.0
C      1  0.4498100000000  0.4518960000000  0.5468020000000 1.0
C      1  0.4241260000000  0.5260920000000  0.4090390000000 1.0
C      1  0.6248550000000  0.5450650000000  0.4692360000000 1.0
C      1  0.5381610000000  0.4768810000000  0.3771010000000 1.0
C      1  0.5470020000000  0.5594100000000  0.4361050000000 1.0
C      1  0.5980960000000  0.4978530000000  0.4385730000000 1.0
C      1  0.5482040000000  0.6232220000000  0.4695540000000 1.0
C      1  0.4467640000000  0.4447930000000  0.4588360000000 1.0
C      1  0.4080030000000  0.4579860000000  0.5881760000000 1.0
C      1  0.5410640000000  0.5038260000000  0.5044710000000 1.0
C      1  0.6306260000000  0.5421520000000  0.5653070000000 1.0
C      1  0.4856120000000  0.5771320000000  0.4329960000000 1.0
C      1  0.4155090000000  0.4733150000000  0.4874400000000 1.0
C      1  0.4761120000000  0.3782970000000  0.5214840000000 1.0
C      1  0.4513930000000  0.5269100000000  0.6358050000000 1.0
C      1  0.4105520000000  0.4795910000000  0.4250350000000 1.0
C      1  0.4600010000000  0.6018920000000  0.5834210000000 1.0
C      1  0.5729860000000  0.4234100000000  0.4358690000000 1.0
C      1  0.5611180000000  0.4735640000000  0.5552470000000 1.0
C      1  0.4947860000000  0.5391410000000  0.4000890000000 1.0
C      1  0.4199290000000  0.5694010000000  0.4962680000000 1.0
C      1  0.4216150000000  0.5410700000000  0.5019490000000 1.0
C      1  0.4003480000000  0.4126590000000  0.5855380000000 1.0
C      1  0.4842790000000  0.5419980000000  0.4992330000000 1.0
C      1  0.4841090000000  0.5653640000000  0.5407960000000 1.0
C      1  0.6515120000000  0.5469300000000  0.5823120000000 1.0
C      1  0.4845150000000  0.5629440000000  0.6006470000000 1.0
C      1  0.4753370000000  0.5593970000000  0.4101500000000 1.0
C      1  0.4704930000000  0.3969250000000  0.4392510000000 1.0
C      1  0.5150410000000  0.4261180000000  0.5729050000000 1.0
C      1  0.5591990000000  0.3986070000000  0.4393060000000 1.0
C      1  0.5791320000000  0.5230640000000  0.4776690000000 1.0
C      1  0.4875220000000  0.3835190000000  0.4931510000000 1.0
C      1  0.4075970000000  0.4324510000000  0.4426800000000 1.0
C      1  0.5187300000000  0.5046500000000  0.6140250000000 1.0
C      1  0.3709220000000  0.4747660000000  0.5570380000000 1.0
C      1  0.5601760000000  0.5250900000000  0.5538680000000 1.0
C      1  0.4564920000000  0.4664070000000  0.3985190000000 1.0
C      1  0.4896790000000  0.4634620000000  0.4423530000000 1.0
END
