TITL C-627107-135-229 8.79121722756162e-07 125000 -1223.12571269221 0 0 199 (C1) n - 1
REM
REM in /home/nfs/bkarasulu/CARBON/AIRSS/Generating-Clusters/LCBOP/Only-C1/SD-CG/FIRE-CG
REM
REM
REM
REM
REM
REM ./C.cell (11c1c37f851c82e70ff6c80c92926a4b)
REM AIRSS Version 0.9.1 bugfix July 2018 build 013d7b7c2542+ Fri, 06 Jul 2018 19:26:36 +0100
REM compiler GCC version 9.2.1 20190827 (Red Hat 9.2.1-1)
REM options -cpp -mtune=generic -march=x86-64 -g -O0 -fpre-include=/usr/include/finclude/math-vector-fortran.h
REM seed 1350742075 -1985440119 2059116265 1860371660 96659678 1975774912 353435021 1032173386 2004036112 1655742292 1012962042 -956011353 -1541059980 -427316432 1734234144 -1955538942 -2056894967 -581070227 843758942 -110937371 913041748 1557349822 185553182 -962172524 -1109140231 977071077 1731089954 -1037032075 655666004 1741366608 1485039147 -991623603 -1628786882
REM
CELL 1.54180   50.00000   50.00000   50.00000   90.00000   90.00000   90.00000
LATT -1
SFAC C  
C      1  0.4266280000000  0.5390510000000  0.5059690000000 1.0
C      1  0.4550810000000  0.4676130000000  0.4389620000000 1.0
C      1  0.3874120000000  0.5373750000000  0.4854720000000 1.0
C      1  0.4308980000000  0.4606120000000  0.5813560000000 1.0
C      1  0.5295950000000  0.5393250000000  0.4551030000000 1.0
C      1  0.4138500000000  0.5850120000000  0.4956310000000 1.0
C      1  0.5819620000000  0.5931920000000  0.4803610000000 1.0
C      1  0.4307490000000  0.5243950000000  0.3349200000000 1.0
C      1  0.4709360000000  0.4695790000000  0.6351600000000 1.0
C      1  0.5624050000000  0.4897930000000  0.4879740000000 1.0
C      1  0.5400400000000  0.5138200000000  0.5899760000000 1.0
C      1  0.4345450000000  0.3485310000000  0.4827380000000 1.0
C      1  0.5289310000000  0.6190980000000  0.5177410000000 1.0
C      1  0.4620680000000  0.6261930000000  0.4351520000000 1.0
C      1  0.5709160000000  0.4414740000000  0.5027330000000 1.0
C      1  0.4064630000000  0.3934820000000  0.5361540000000 1.0
C      1  0.5705740000000  0.6056760000000  0.4579490000000 1.0
C      1  0.4260380000000  0.5116240000000  0.5034970000000 1.0
C      1  0.4729810000000  0.3988430000000  0.4074810000000 1.0
C      1  0.5009610000000  0.4650450000000  0.3768540000000 1.0
C      1  0.5836170000000  0.3912100000000  0.4648850000000 1.0
C      1  0.5431970000000  0.5802430000000  0.5833700000000 1.0
C      1  0.4786010000000  0.4769510000000  0.3643030000000 1.0
C      1  0.3811360000000  0.5009370000000  0.5569410000000 1.0
C      1  0.5349490000000  0.4283440000000  0.4667990000000 1.0
C      1  0.3457520000000  0.5174310000000  0.5023010000000 1.0
C      1  0.5497620000000  0.5342720000000  0.4731700000000 1.0
C      1  0.4802780000000  0.4858460000000  0.5727590000000 1.0
C      1  0.4722140000000  0.4507190000000  0.6142620000000 1.0
C      1  0.4541170000000  0.5105000000000  0.4622800000000 1.0
C      1  0.6687640000000  0.5057200000000  0.4969190000000 1.0
C      1  0.5748500000000  0.5217320000000  0.4233090000000 1.0
C      1  0.5762910000000  0.5410340000000  0.5898210000000 1.0
C      1  0.5579800000000  0.4864580000000  0.5178630000000 1.0
C      1  0.4965760000000  0.5030860000000  0.4827390000000 1.0
C      1  0.5701330000000  0.5478360000000  0.4864830000000 1.0
C      1  0.4409680000000  0.4671850000000  0.5548850000000 1.0
C      1  0.5246340000000  0.6074700000000  0.4428490000000 1.0
C      1  0.4405800000000  0.4056960000000  0.5634660000000 1.0
C      1  0.5655620000000  0.3796360000000  0.4813700000000 1.0
C      1  0.4689870000000  0.4947140000000  0.5202520000000 1.0
C      1  0.4744860000000  0.5208460000000  0.4791920000000 1.0
C      1  0.5188750000000  0.4074170000000  0.4242670000000 1.0
C      1  0.5283030000000  0.5199050000000  0.6160120000000 1.0
C      1  0.4979130000000  0.5670340000000  0.5262250000000 1.0
C      1  0.5434320000000  0.5103890000000  0.4842540000000 1.0
C      1  0.6091530000000  0.5844080000000  0.4762920000000 1.0
C      1  0.5315810000000  0.4061130000000  0.4497710000000 1.0
C      1  0.3922910000000  0.4875110000000  0.5801440000000 1.0
C      1  0.3840090000000  0.5004460000000  0.5278690000000 1.0
C      1  0.5973580000000  0.5414120000000  0.4901490000000 1.0
C      1  0.5121900000000  0.5627450000000  0.4227370000000 1.0
C      1  0.4419970000000  0.4694110000000  0.4850360000000 1.0
C      1  0.4652840000000  0.5549230000000  0.5972080000000 1.0
C      1  0.4804210000000  0.6219150000000  0.5036190000000 1.0
C      1  0.5941240000000  0.5436820000000  0.5459440000000 1.0
C      1  0.6223070000000  0.4923040000000  0.4726650000000 1.0
C      1  0.4569890000000  0.4257320000000  0.4620700000000 1.0
C      1  0.4729170000000  0.6093230000000  0.5288000000000 1.0
C      1  0.4980120000000  0.5401030000000  0.5353690000000 1.0
C      1  0.4930760000000  0.3933410000000  0.4271030000000 1.0
C      1  0.5691190000000  0.4372420000000  0.5627540000000 1.0
C      1  0.5821140000000  0.4445350000000  0.4132300000000 1.0
C      1  0.5546330000000  0.5585770000000  0.5997820000000 1.0
C      1  0.4768720000000  0.4220870000000  0.3910550000000 1.0
C      1  0.4880520000000  0.4174080000000  0.4931150000000 1.0
C      1  0.4507320000000  0.5142300000000  0.3482040000000 1.0
C      1  0.5526590000000  0.5938200000000  0.5595850000000 1.0
C      1  0.5201150000000  0.5164060000000  0.5700800000000 1.0
C      1  0.5139940000000  0.6067630000000  0.4710050000000 1.0
C      1  0.5676750000000  0.4635100000000  0.5783260000000 1.0
C      1  0.5223510000000  0.4842340000000  0.3824900000000 1.0
C      1  0.5904480000000  0.4598090000000  0.4581890000000 1.0
C      1  0.3731580000000  0.4354690000000  0.4966980000000 1.0
C      1  0.4774970000000  0.5364750000000  0.4018020000000 1.0
C      1  0.4490340000000  0.5599730000000  0.5398320000000 1.0
C      1  0.4968340000000  0.5379300000000  0.4219470000000 1.0
C      1  0.5098890000000  0.4678580000000  0.5218280000000 1.0
C      1  0.4935630000000  0.5094120000000  0.5838870000000 1.0
C      1  0.5419020000000  0.4742240000000  0.4008170000000 1.0
C      1  0.4417920000000  0.4874170000000  0.5095270000000 1.0
C      1  0.5334260000000  0.4782980000000  0.4271430000000 1.0
C      1  0.5715400000000  0.5293320000000  0.5363860000000 1.0
C      1  0.5651900000000  0.4587710000000  0.3979120000000 1.0
C      1  0.5343760000000  0.3843740000000  0.5202290000000 1.0
C      1  0.6091780000000  0.4659360000000  0.4793610000000 1.0
C      1  0.4891850000000  0.5897720000000  0.5415820000000 1.0
C      1  0.5009780000000  0.4829550000000  0.4627860000000 1.0
C      1  0.5277390000000  0.4894830000000  0.5197560000000 1.0
C      1  0.4563590000000  0.4233800000000  0.5776860000000 1.0
C      1  0.4311790000000  0.3625740000000  0.5049510000000 1.0
C      1  0.4450910000000  0.4838660000000  0.4599120000000 1.0
C      1  0.4585980000000  0.5810730000000  0.4168100000000 1.0
C      1  0.4116790000000  0.4111140000000  0.5585360000000 1.0
C      1  0.5467250000000  0.5435710000000  0.5347200000000 1.0
C      1  0.4915360000000  0.3860980000000  0.4560140000000 1.0
C      1  0.4521730000000  0.5114630000000  0.6246450000000 1.0
C      1  0.5717290000000  0.4999300000000  0.5391430000000 1.0
C      1  0.5445590000000  0.5734600000000  0.5157270000000 1.0
C      1  0.5195870000000  0.3849060000000  0.4671750000000 1.0
C      1  0.5035590000000  0.5009000000000  0.6141700000000 1.0
C      1  0.5167370000000  0.5140290000000  0.3820560000000 1.0
C      1  0.4493940000000  0.5928710000000  0.6299430000000 1.0
C      1  0.5576140000000  0.3923550000000  0.5387750000000 1.0
C      1  0.5900380000000  0.4382840000000  0.4396500000000 1.0
C      1  0.6147820000000  0.4487010000000  0.5253760000000 1.0
C      1  0.5086840000000  0.6210920000000  0.4961120000000 1.0
C      1  0.4544130000000  0.5530330000000  0.4072980000000 1.0
C      1  0.6087580000000  0.5424010000000  0.4473510000000 1.0
C      1  0.4554900000000  0.5796570000000  0.4645740000000 1.0
C      1  0.4656320000000  0.4305080000000  0.5065700000000 1.0
C      1  0.3964860000000  0.4330070000000  0.5695580000000 1.0
C      1  0.5174220000000  0.5644340000000  0.4516960000000 1.0
C      1  0.5744280000000  0.4084850000000  0.5559780000000 1.0
C      1  0.4964330000000  0.5914750000000  0.5686530000000 1.0
C      1  0.4297320000000  0.5408880000000  0.4176070000000 1.0
C      1  0.4363930000000  0.5841060000000  0.5471280000000 1.0
C      1  0.3852980000000  0.4537760000000  0.5107150000000 1.0
C      1  0.6137170000000  0.5568050000000  0.4719830000000 1.0
C      1  0.3199030000000  0.5158670000000  0.4993990000000 1.0
C      1  0.6098680000000  0.5118910000000  0.4532150000000 1.0
C      1  0.4021230000000  0.4596880000000  0.5799220000000 1.0
C      1  0.4511210000000  0.3827700000000  0.4043840000000 1.0
C      1  0.5986310000000  0.4521770000000  0.5034640000000 1.0
C      1  0.5963290000000  0.5501820000000  0.5721770000000 1.0
C      1  0.5832920000000  0.5494620000000  0.4304530000000 1.0
C      1  0.4746200000000  0.4037030000000  0.4706170000000 1.0
C      1  0.5458840000000  0.4652280000000  0.5987790000000 1.0
C      1  0.5185820000000  0.4697780000000  0.6078340000000 1.0
C      1  0.4807650000000  0.3832270000000  0.5380630000000 1.0
C      1  0.4770760000000  0.5691710000000  0.4782490000000 1.0
C      1  0.5151000000000  0.4934390000000  0.4410230000000 1.0
C      1  0.5730100000000  0.4826990000000  0.4606990000000 1.0
C      1  0.4271720000000  0.5111340000000  0.6143140000000 1.0
C      1  0.4762980000000  0.5334560000000  0.5861550000000 1.0
C      1  0.5378500000000  0.5329380000000  0.3921230000000 1.0
C      1  0.5368280000000  0.5589800000000  0.4074700000000 1.0
C      1  0.5472420000000  0.4405870000000  0.5199140000000 1.0
C      1  0.5622530000000  0.5195480000000  0.3985320000000 1.0
C      1  0.5216390000000  0.4462410000000  0.5085680000000 1.0
C      1  0.5677150000000  0.5132370000000  0.5852110000000 1.0
C      1  0.4776770000000  0.4363920000000  0.5640050000000 1.0
C      1  0.4793360000000  0.5193540000000  0.5300780000000 1.0
C      1  0.4443720000000  0.6046780000000  0.5295420000000 1.0
C      1  0.4257740000000  0.4740500000000  0.5314700000000 1.0
C      1  0.5521630000000  0.5960650000000  0.4384970000000 1.0
C      1  0.5919770000000  0.4114650000000  0.4490940000000 1.0
C      1  0.5017250000000  0.4354270000000  0.5781070000000 1.0
C      1  0.4756080000000  0.6056850000000  0.4197580000000 1.0
C      1  0.4764670000000  0.4970230000000  0.6291720000000 1.0
C      1  0.4300720000000  0.3797190000000  0.5266370000000 1.0
C      1  0.5832920000000  0.5033230000000  0.4433750000000 1.0
C      1  0.5154690000000  0.5856970000000  0.5866900000000 1.0
C      1  0.5450090000000  0.4395570000000  0.5475810000000 1.0
C      1  0.4063790000000  0.5567380000000  0.4967710000000 1.0
C      1  0.5059460000000  0.5772440000000  0.4760630000000 1.0
C      1  0.5000740000000  0.4386510000000  0.3886090000000 1.0
C      1  0.4548100000000  0.6308990000000  0.4607530000000 1.0
C      1  0.4717740000000  0.4465210000000  0.4479960000000 1.0
C      1  0.4879510000000  0.5210760000000  0.3799710000000 1.0
C      1  0.4835170000000  0.4719820000000  0.5290650000000 1.0
C      1  0.5742540000000  0.4908750000000  0.5671110000000 1.0
C      1  0.4566740000000  0.5740710000000  0.6134190000000 1.0
C      1  0.5164500000000  0.5712330000000  0.5045160000000 1.0
C      1  0.5651480000000  0.5744080000000  0.4948360000000 1.0
C      1  0.3980550000000  0.4751310000000  0.5232500000000 1.0
C      1  0.4528390000000  0.3876750000000  0.5432240000000 1.0
C      1  0.4705350000000  0.5458390000000  0.4927300000000 1.0
C      1  0.4491020000000  0.4436830000000  0.5973900000000 1.0
C      1  0.3740520000000  0.5184600000000  0.5054620000000 1.0
C      1  0.4549860000000  0.6218560000000  0.4875440000000 1.0
C      1  0.5598850000000  0.4344840000000  0.4775050000000 1.0
C      1  0.4710040000000  0.4635870000000  0.5541970000000 1.0
C      1  0.4056040000000  0.5037510000000  0.5998570000000 1.0
C      1  0.4096980000000  0.5355530000000  0.4355210000000 1.0
C      1  0.4951620000000  0.4553790000000  0.4633170000000 1.0
C      1  0.4388980000000  0.3359290000000  0.4603360000000 1.0
C      1  0.5103590000000  0.4365170000000  0.4827920000000 1.0
C      1  0.5333000000000  0.5596650000000  0.6451880000000 1.0
C      1  0.4180320000000  0.5868800000000  0.5669160000000 1.0
C      1  0.3932620000000  0.5329020000000  0.4572910000000 1.0
C      1  0.5229080000000  0.5328940000000  0.5471880000000 1.0
C      1  0.5382220000000  0.5465930000000  0.6217180000000 1.0
C      1  0.5380470000000  0.3801320000000  0.4904970000000 1.0
C      1  0.5071880000000  0.3824600000000  0.5309410000000 1.0
C      1  0.4471100000000  0.4410270000000  0.4866670000000 1.0
C      1  0.5041130000000  0.6080640000000  0.4224670000000 1.0
C      1  0.5194500000000  0.5069710000000  0.4984670000000 1.0
C      1  0.4511390000000  0.5491270000000  0.5138450000000 1.0
C      1  0.4430640000000  0.5820320000000  0.4411810000000 1.0
C      1  0.6468290000000  0.4987100000000  0.4847250000000 1.0
C      1  0.4995410000000  0.4488940000000  0.6030930000000 1.0
C      1  0.5212120000000  0.4265120000000  0.4036200000000 1.0
C      1  0.4333240000000  0.6060740000000  0.5022060000000 1.0
C      1  0.5135030000000  0.5210920000000  0.4385920000000 1.0
C      1  0.5603670000000  0.5703930000000  0.4235070000000 1.0
C      1  0.4716450000000  0.5043730000000  0.3635930000000 1.0
C      1  0.5440080000000  0.5986330000000  0.5324910000000 1.0
C      1  0.5233680000000  0.4309400000000  0.5622430000000 1.0
END
