TITL C-627107-135-716 24.4290786963221 125000 -616.405512028046 0 0 100 (C1) n - 1
REM
REM in /home/nfs/bkarasulu/CARBON/AIRSS/Generating-Clusters/LCBOP/Only-C1/SD-CG/FIRE-CG
REM
REM
REM
REM
REM
REM ./C.cell (11c1c37f851c82e70ff6c80c92926a4b)
REM AIRSS Version 0.9.1 bugfix July 2018 build 013d7b7c2542+ Fri, 06 Jul 2018 19:26:36 +0100
REM compiler GCC version 9.2.1 20190827 (Red Hat 9.2.1-1)
REM options -cpp -mtune=generic -march=x86-64 -g -O0 -fpre-include=/usr/include/finclude/math-vector-fortran.h
REM seed -1537602292 537803152 -870194218 -2113463788 -1420048767 -1861187977 -1481494146 -1930556947 -508543706 -1650620532 -20411401 1721151830 -1266493055 -1405327717 525906135 -515575537 1136357454 1776515943 712335728 -270654041 -1919560015 583808275 -87696873 1702329609 -862621277 242335645 -641961047 -2065943305 -507207692 -678869718 -1961805517 240703358 -1714440169
REM
CELL 1.54180   50.00000   50.00000   50.00000   90.00000   90.00000   90.00000
LATT -1
SFAC C  
C      1  0.4503710000000  0.5119440000000  0.4998740000000 1.0
C      1  0.5338520000000  0.5874940000000  0.4834430000000 1.0
C      1  0.5764370000000  0.4920150000000  0.4872490000000 1.0
C      1  0.4248650000000  0.5530160000000  0.5084400000000 1.0
C      1  0.5522760000000  0.4671500000000  0.4455870000000 1.0
C      1  0.4995620000000  0.4750010000000  0.5598630000000 1.0
C      1  0.5300950000000  0.4538150000000  0.4604540000000 1.0
C      1  0.5344140000000  0.4962470000000  0.4724020000000 1.0
C      1  0.6101390000000  0.4678670000000  0.5466650000000 1.0
C      1  0.4647550000000  0.3948060000000  0.4169150000000 1.0
C      1  0.3712910000000  0.4525310000000  0.4786700000000 1.0
C      1  0.4942270000000  0.4150470000000  0.4984710000000 1.0
C      1  0.5603340000000  0.5432070000000  0.4800840000000 1.0
C      1  0.4533530000000  0.4635620000000  0.5241940000000 1.0
C      1  0.4893590000000  0.5114000000000  0.4180080000000 1.0
C      1  0.4291450000000  0.4545160000000  0.5348110000000 1.0
C      1  0.5478970000000  0.4197670000000  0.5058720000000 1.0
C      1  0.3912050000000  0.4823230000000  0.5108300000000 1.0
C      1  0.4924060000000  0.5591250000000  0.5324450000000 1.0
C      1  0.6151720000000  0.4767320000000  0.5711810000000 1.0
C      1  0.4763810000000  0.4469140000000  0.5290550000000 1.0
C      1  0.5161560000000  0.5198450000000  0.4223220000000 1.0
C      1  0.5337420000000  0.5043160000000  0.5443930000000 1.0
C      1  0.5401050000000  0.6019230000000  0.5499030000000 1.0
C      1  0.5557870000000  0.4472530000000  0.5014810000000 1.0
C      1  0.5105110000000  0.5190190000000  0.5026050000000 1.0
C      1  0.5667210000000  0.5069620000000  0.6167830000000 1.0
C      1  0.5054300000000  0.5828990000000  0.4808110000000 1.0
C      1  0.4903680000000  0.4628690000000  0.4283590000000 1.0
C      1  0.4631770000000  0.4485590000000  0.4751750000000 1.0
C      1  0.4519570000000  0.4886550000000  0.5725100000000 1.0
C      1  0.5135050000000  0.5999910000000  0.5496000000000 1.0
C      1  0.4808710000000  0.4252740000000  0.4749170000000 1.0
C      1  0.4383930000000  0.5163480000000  0.4509770000000 1.0
C      1  0.5162910000000  0.4718130000000  0.5130640000000 1.0
C      1  0.5304840000000  0.4580530000000  0.4908450000000 1.0
C      1  0.5968190000000  0.4646690000000  0.5239460000000 1.0
C      1  0.4735740000000  0.4447240000000  0.4131870000000 1.0
C      1  0.5916490000000  0.4999630000000  0.6107380000000 1.0
C      1  0.6225180000000  0.5202580000000  0.5137050000000 1.0
C      1  0.4792920000000  0.4194450000000  0.5223870000000 1.0
C      1  0.4996390000000  0.4616430000000  0.5347040000000 1.0
C      1  0.4793590000000  0.6034520000000  0.5147690000000 1.0
C      1  0.5222390000000  0.4922190000000  0.5669460000000 1.0
C      1  0.5197420000000  0.4993980000000  0.5948120000000 1.0
C      1  0.5363320000000  0.5020310000000  0.4124410000000 1.0
C      1  0.4566350000000  0.5346900000000  0.5634230000000 1.0
C      1  0.4221870000000  0.5126220000000  0.5384510000000 1.0
C      1  0.4331290000000  0.5736920000000  0.4932580000000 1.0
C      1  0.4759530000000  0.4185050000000  0.4256580000000 1.0
C      1  0.5626330000000  0.6599240000000  0.4629590000000 1.0
C      1  0.5532360000000  0.6363190000000  0.4688010000000 1.0
C      1  0.4969050000000  0.5558840000000  0.4836020000000 1.0
C      1  0.4935740000000  0.5880340000000  0.5340440000000 1.0
C      1  0.4794320000000  0.5959910000000  0.4872600000000 1.0
C      1  0.5598050000000  0.4870040000000  0.4649130000000 1.0
C      1  0.4002060000000  0.4962690000000  0.5319750000000 1.0
C      1  0.5482100000000  0.4786660000000  0.4198690000000 1.0
C      1  0.4206850000000  0.4087840000000  0.5523700000000 1.0
C      1  0.5782890000000  0.5215070000000  0.4919390000000 1.0
C      1  0.4660730000000  0.3991470000000  0.5362850000000 1.0
C      1  0.4584440000000  0.4510850000000  0.3915670000000 1.0
C      1  0.5014100000000  0.5445460000000  0.5093890000000 1.0
C      1  0.4780610000000  0.4805520000000  0.5792780000000 1.0
C      1  0.4353170000000  0.4494200000000  0.4690840000000 1.0
C      1  0.4574880000000  0.5767090000000  0.4793310000000 1.0
C      1  0.5201800000000  0.5309610000000  0.4490070000000 1.0
C      1  0.4156690000000  0.4344200000000  0.5461930000000 1.0
C      1  0.5771280000000  0.4676530000000  0.5043070000000 1.0
C      1  0.4831290000000  0.4986520000000  0.4649350000000 1.0
C      1  0.5536720000000  0.5682400000000  0.4940850000000 1.0
C      1  0.5407850000000  0.5070850000000  0.6109770000000 1.0
C      1  0.4663670000000  0.5257040000000  0.4106450000000 1.0
C      1  0.4924540000000  0.4221250000000  0.4492080000000 1.0
C      1  0.5081880000000  0.4463680000000  0.4447700000000 1.0
C      1  0.6090380000000  0.4886310000000  0.5941300000000 1.0
C      1  0.4728250000000  0.4749460000000  0.4822940000000 1.0
C      1  0.4405240000000  0.5116520000000  0.5605200000000 1.0
C      1  0.5610980000000  0.5921720000000  0.5367300000000 1.0
C      1  0.4435550000000  0.5269130000000  0.4251850000000 1.0
C      1  0.4538690000000  0.3725880000000  0.4087340000000 1.0
C      1  0.5981540000000  0.5318550000000  0.5099500000000 1.0
C      1  0.4426460000000  0.3938760000000  0.5481620000000 1.0
C      1  0.5910560000000  0.5563890000000  0.5218480000000 1.0
C      1  0.4844140000000  0.4894160000000  0.4358600000000 1.0
C      1  0.4778710000000  0.5466790000000  0.5528390000000 1.0
C      1  0.4210400000000  0.4945450000000  0.4562430000000 1.0
C      1  0.4601770000000  0.5215640000000  0.4718560000000 1.0
C      1  0.4322580000000  0.5269090000000  0.5156760000000 1.0
C      1  0.5437180000000  0.6123830000000  0.4749790000000 1.0
C      1  0.3924110000000  0.4681940000000  0.4863680000000 1.0
C      1  0.4926130000000  0.4921730000000  0.6017610000000 1.0
C      1  0.4704350000000  0.5507140000000  0.4729990000000 1.0
C      1  0.5692440000000  0.5736630000000  0.5175760000000 1.0
C      1  0.5103700000000  0.5126200000000  0.4722630000000 1.0
C      1  0.5225050000000  0.4098020000000  0.5014600000000 1.0
C      1  0.5229010000000  0.4995690000000  0.5186480000000 1.0
C      1  0.4154640000000  0.4700490000000  0.4694540000000 1.0
C      1  0.5460860000000  0.5412810000000  0.4555160000000 1.0
C      1  0.4582890000000  0.4848050000000  0.5054740000000 1.0
END
