TITL C-627108-131-553 -0.202641477819976 125000 -352.636965130487 0 0 62 (C1) n - 1
REM
REM in /home/nfs/bkarasulu/CARBON/AIRSS/Generating-Clusters/LCBOP/Only-C1/SD-CG/FIRE-CG
REM
REM
REM
REM
REM
REM ./C.cell (11c1c37f851c82e70ff6c80c92926a4b)
REM AIRSS Version 0.9.1 bugfix July 2018 build 013d7b7c2542+ Fri, 06 Jul 2018 19:26:36 +0100
REM compiler GCC version 9.2.1 20190827 (Red Hat 9.2.1-1)
REM options -cpp -mtune=generic -march=x86-64 -g -O0 -fpre-include=/usr/include/finclude/math-vector-fortran.h
REM seed -2081860033 -1915263754 1214517718 -277723328 -35969765 1344054503 -1060463818 513899145 -944473059 1358252705 -1599034382 -1022457423 1396509224 1945116717 -1174860439 -507380846 1755747746 1516649595 907038087 -960377531 -609090630 -1040048799 -1339972108 1643601168 1109646394 -1340746761 60477133 480342488 -1708659131 1702458083 742867702 1486992529 499323714
REM
CELL 1.54180   50.00000   50.00000   50.00000   90.00000   90.00000   90.00000
LATT -1
SFAC C  
C      1  0.4290260000000  0.4722510000000  0.4777040000000 1.0
C      1  0.4839970000000  0.4405320000000  0.5210350000000 1.0
C      1  0.4277190000000  0.4909180000000  0.4580420000000 1.0
C      1  0.4859520000000  0.4929050000000  0.4383980000000 1.0
C      1  0.5061040000000  0.5341540000000  0.5618990000000 1.0
C      1  0.5087100000000  0.4252030000000  0.5082660000000 1.0
C      1  0.4570130000000  0.4863090000000  0.5566540000000 1.0
C      1  0.5062740000000  0.5238850000000  0.5095870000000 1.0
C      1  0.6006330000000  0.4840940000000  0.4948990000000 1.0
C      1  0.4705830000000  0.5569380000000  0.4580490000000 1.0
C      1  0.5416790000000  0.4966520000000  0.5269370000000 1.0
C      1  0.4507920000000  0.5341760000000  0.4576060000000 1.0
C      1  0.5011000000000  0.5051690000000  0.5616210000000 1.0
C      1  0.4590910000000  0.5916600000000  0.5531420000000 1.0
C      1  0.5208140000000  0.4349120000000  0.4484730000000 1.0
C      1  0.4620520000000  0.5002240000000  0.4257990000000 1.0
C      1  0.5214220000000  0.4785870000000  0.5182150000000 1.0
C      1  0.5791770000000  0.4731930000000  0.5083030000000 1.0
C      1  0.4925350000000  0.4579390000000  0.4808820000000 1.0
C      1  0.4505390000000  0.5273380000000  0.4867830000000 1.0
C      1  0.5142680000000  0.4870030000000  0.4318020000000 1.0
C      1  0.5042820000000  0.6306980000000  0.4759340000000 1.0
C      1  0.4753390000000  0.4448990000000  0.4650310000000 1.0
C      1  0.4419990000000  0.5109840000000  0.4427920000000 1.0
C      1  0.4831570000000  0.5507220000000  0.5627530000000 1.0
C      1  0.5302660000000  0.5485700000000  0.5534010000000 1.0
C      1  0.4624760000000  0.5703340000000  0.4835930000000 1.0
C      1  0.5659000000000  0.4827380000000  0.5328670000000 1.0
C      1  0.4988510000000  0.5583140000000  0.4530660000000 1.0
C      1  0.5285930000000  0.4264690000000  0.5307990000000 1.0
C      1  0.5248960000000  0.4292900000000  0.4772510000000 1.0
C      1  0.4613960000000  0.4299370000000  0.4488050000000 1.0
C      1  0.4328920000000  0.4556950000000  0.5007650000000 1.0
C      1  0.5419200000000  0.5471460000000  0.5268700000000 1.0
C      1  0.5462720000000  0.5620380000000  0.5027060000000 1.0
C      1  0.4517000000000  0.5513780000000  0.5026850000000 1.0
C      1  0.4332840000000  0.5282210000000  0.5409200000000 1.0
C      1  0.5273670000000  0.5069700000000  0.4505150000000 1.0
C      1  0.5632410000000  0.4496500000000  0.5020150000000 1.0
C      1  0.4866890000000  0.4987910000000  0.4679660000000 1.0
C      1  0.5208560000000  0.4584370000000  0.4333510000000 1.0
C      1  0.4632190000000  0.5650080000000  0.5489590000000 1.0
C      1  0.5154550000000  0.4970570000000  0.4748100000000 1.0
C      1  0.4377640000000  0.5038630000000  0.5509190000000 1.0
C      1  0.6203260000000  0.4950080000000  0.4817780000000 1.0
C      1  0.4848740000000  0.4812920000000  0.5557820000000 1.0
C      1  0.5322460000000  0.5217550000000  0.5187480000000 1.0
C      1  0.5139100000000  0.5785650000000  0.4683150000000 1.0
C      1  0.4926570000000  0.4545540000000  0.5464650000000 1.0
C      1  0.5410900000000  0.4521070000000  0.4846700000000 1.0
C      1  0.4678510000000  0.5049620000000  0.4880590000000 1.0
C      1  0.5612720000000  0.4581490000000  0.5488680000000 1.0
C      1  0.5265760000000  0.5351440000000  0.4514760000000 1.0
C      1  0.5092060000000  0.6054290000000  0.4718920000000 1.0
C      1  0.5393470000000  0.4545700000000  0.5672570000000 1.0
C      1  0.5172330000000  0.4415040000000  0.5544030000000 1.0
C      1  0.5187420000000  0.4722140000000  0.4898090000000 1.0
C      1  0.5559000000000  0.4368210000000  0.5273640000000 1.0
C      1  0.5358080000000  0.5621190000000  0.4763510000000 1.0
C      1  0.4578710000000  0.4457330000000  0.5106470000000 1.0
C      1  0.4103080000000  0.4486230000000  0.5148530000000 1.0
C      1  0.4474900000000  0.5502020000000  0.5303930000000 1.0
END
