TITL C-627113-6568-291 -6.42343026716501e-07 125000 -220.727197694105 0 0 38 (C1) n - 1
REM
REM in /home/nfs/bkarasulu/CARBON/AIRSS/Generating-Clusters/LCBOP/Only-C1/SD-CG/FIRE-CG
REM
REM
REM
REM
REM
REM ./C.cell (11c1c37f851c82e70ff6c80c92926a4b)
REM AIRSS Version 0.9.1 bugfix July 2018 build 013d7b7c2542+ Fri, 06 Jul 2018 19:26:36 +0100
REM compiler GCC version 9.2.1 20190827 (Red Hat 9.2.1-1)
REM options -cpp -mtune=generic -march=x86-64 -g -O0 -fpre-include=/usr/include/finclude/math-vector-fortran.h
REM seed 1860877369 806946951 137979635 -92109597 497343181 2038988543 1458913031 1791501950 -1439745021 184887455 -355725664 367932198 1177889166 508763886 1601163081 1006758831 630036506 695881543 -1620905159 -357993965 1923018875 653437898 2118519522 -1970344453 2076655052 -2015941608 1104539609 -465252116 -1187713265 1688385600 -229717083 -1524362169 1416426782
REM
CELL 1.54180   50.00000   50.00000   50.00000   90.00000   90.00000   90.00000
LATT -1
SFAC C  
C      1  0.5106330000000  0.4635640000000  0.5081460000000 1.0
C      1  0.5044400000000  0.5174140000000  0.4492780000000 1.0
C      1  0.4146900000000  0.5108980000000  0.4994760000000 1.0
C      1  0.5775810000000  0.5048500000000  0.4941040000000 1.0
C      1  0.5263110000000  0.5256220000000  0.4333580000000 1.0
C      1  0.4576140000000  0.5162970000000  0.4842700000000 1.0
C      1  0.5087990000000  0.5235100000000  0.4770160000000 1.0
C      1  0.5639190000000  0.4889450000000  0.5146290000000 1.0
C      1  0.4870980000000  0.4957540000000  0.5660770000000 1.0
C      1  0.4432670000000  0.4571540000000  0.5085970000000 1.0
C      1  0.4517050000000  0.4687880000000  0.4841480000000 1.0
C      1  0.5185610000000  0.5410890000000  0.5399840000000 1.0
C      1  0.5749950000000  0.4596420000000  0.4818710000000 1.0
C      1  0.4494500000000  0.4986490000000  0.5354220000000 1.0
C      1  0.4261020000000  0.5108370000000  0.5243920000000 1.0
C      1  0.5861630000000  0.4842740000000  0.4754010000000 1.0
C      1  0.5607040000000  0.5466170000000  0.5108930000000 1.0
C      1  0.4625290000000  0.5425520000000  0.4926180000000 1.0
C      1  0.4303300000000  0.5076300000000  0.4757730000000 1.0
C      1  0.5705050000000  0.5316410000000  0.4890950000000 1.0
C      1  0.4963150000000  0.4863830000000  0.5020420000000 1.0
C      1  0.4806190000000  0.4697510000000  0.5709770000000 1.0
C      1  0.4771200000000  0.5497330000000  0.5141610000000 1.0
C      1  0.4577190000000  0.4891300000000  0.4405910000000 1.0
C      1  0.5657850000000  0.5391730000000  0.4623440000000 1.0
C      1  0.4755630000000  0.5104550000000  0.5442710000000 1.0
C      1  0.4942350000000  0.5290480000000  0.5275870000000 1.0
C      1  0.5427320000000  0.5483890000000  0.5306790000000 1.0
C      1  0.5060600000000  0.5131500000000  0.5033120000000 1.0
C      1  0.4623130000000  0.4564870000000  0.5558080000000 1.0
C      1  0.4816160000000  0.5027540000000  0.4395370000000 1.0
C      1  0.4710500000000  0.4897100000000  0.4902900000000 1.0
C      1  0.5582300000000  0.4617020000000  0.5055410000000 1.0
C      1  0.5503680000000  0.5352950000000  0.4407360000000 1.0
C      1  0.4382480000000  0.4826950000000  0.4614430000000 1.0
C      1  0.5341560000000  0.4486110000000  0.5115620000000 1.0
C      1  0.5335610000000  0.4228150000000  0.5204170000000 1.0
C      1  0.4489150000000  0.4689900000000  0.5341520000000 1.0
END
