TITL C-627110-360-429 6.60006690399306 125000 -1215.57409329569 0 0 195 (C1) n - 1
REM
REM in /home/nfs/bkarasulu/CARBON/AIRSS/Generating-Clusters/LCBOP/Only-C1/SD-CG/FIRE-CG
REM
REM
REM
REM
REM
REM ./C.cell (11c1c37f851c82e70ff6c80c92926a4b)
REM AIRSS Version 0.9.1 bugfix July 2018 build 013d7b7c2542+ Fri, 06 Jul 2018 19:26:36 +0100
REM compiler GCC version 9.2.1 20190827 (Red Hat 9.2.1-1)
REM options -cpp -mtune=generic -march=x86-64 -g -O0 -fpre-include=/usr/include/finclude/math-vector-fortran.h
REM seed 857865499 -1758811908 -381825060 1149756303 -1740093779 2103582994 638288773 -91847700 1428185910 -247077097 1291790225 -128436580 511964610 487368764 1031759560 1054283534 396138223 -778212745 490185137 1601285205 -783323891 593694944 1255202264 1535772574 467165441 2121191840 -1888567365 803292462 -1270773149 1250520517 943907107 -1134979553 -529612006
REM
CELL 1.54180   50.00000   50.00000   50.00000   90.00000   90.00000   90.00000
LATT -1
SFAC C  
C      1  0.5583070000000  0.5554510000000  0.6162110000000 1.0
C      1  0.4719940000000  0.5688220000000  0.4496870000000 1.0
C      1  0.4693310000000  0.5599200000000  0.3905120000000 1.0
C      1  0.4911690000000  0.4497080000000  0.4196140000000 1.0
C      1  0.4744010000000  0.4345050000000  0.5872060000000 1.0
C      1  0.6109740000000  0.5437340000000  0.5352900000000 1.0
C      1  0.5299780000000  0.5665750000000  0.4700350000000 1.0
C      1  0.4938420000000  0.3896530000000  0.5764100000000 1.0
C      1  0.5333110000000  0.4599410000000  0.5087880000000 1.0
C      1  0.4211730000000  0.5702220000000  0.5364320000000 1.0
C      1  0.5450070000000  0.4707980000000  0.4872710000000 1.0
C      1  0.4463070000000  0.4094510000000  0.5542180000000 1.0
C      1  0.3856020000000  0.5538440000000  0.4521290000000 1.0
C      1  0.5056770000000  0.3847070000000  0.4789010000000 1.0
C      1  0.4122800000000  0.5289750000000  0.5667790000000 1.0
C      1  0.3836510000000  0.5761700000000  0.4364200000000 1.0
C      1  0.4838190000000  0.5164880000000  0.5025760000000 1.0
C      1  0.4333530000000  0.5915410000000  0.4866120000000 1.0
C      1  0.4945590000000  0.5757710000000  0.5203960000000 1.0
C      1  0.4214420000000  0.5019440000000  0.5649770000000 1.0
C      1  0.5616910000000  0.5098970000000  0.5242750000000 1.0
C      1  0.4982250000000  0.4828630000000  0.4672820000000 1.0
C      1  0.5417680000000  0.4118520000000  0.4550540000000 1.0
C      1  0.6200670000000  0.5144030000000  0.5390160000000 1.0
C      1  0.5551860000000  0.5394460000000  0.6653030000000 1.0
C      1  0.5158750000000  0.4779190000000  0.6674640000000 1.0
C      1  0.4644800000000  0.5014570000000  0.4892690000000 1.0
C      1  0.5024930000000  0.6055150000000  0.4609690000000 1.0
C      1  0.4452640000000  0.4296300000000  0.4243270000000 1.0
C      1  0.4655400000000  0.4756510000000  0.5552070000000 1.0
C      1  0.5059800000000  0.4647370000000  0.6466840000000 1.0
C      1  0.5561540000000  0.4534140000000  0.5612380000000 1.0
C      1  0.5096330000000  0.4540290000000  0.5547940000000 1.0
C      1  0.6209140000000  0.5448790000000  0.4822300000000 1.0
C      1  0.5028110000000  0.4925670000000  0.4406670000000 1.0
C      1  0.4640730000000  0.4730620000000  0.5271690000000 1.0
C      1  0.5602960000000  0.5519770000000  0.6424470000000 1.0
C      1  0.4437920000000  0.4437480000000  0.4680430000000 1.0
C      1  0.5340830000000  0.5108540000000  0.5196230000000 1.0
C      1  0.3600300000000  0.5058180000000  0.4838830000000 1.0
C      1  0.4893690000000  0.4100580000000  0.5932320000000 1.0
C      1  0.4288470000000  0.4491710000000  0.5835340000000 1.0
C      1  0.4510050000000  0.4813450000000  0.4262360000000 1.0
C      1  0.6134210000000  0.5433990000000  0.4542680000000 1.0
C      1  0.4835210000000  0.4554960000000  0.5660770000000 1.0
C      1  0.3956240000000  0.4811640000000  0.5032860000000 1.0
C      1  0.6271960000000  0.4883630000000  0.4931150000000 1.0
C      1  0.5637820000000  0.4551360000000  0.4468580000000 1.0
C      1  0.5708500000000  0.4000160000000  0.5461590000000 1.0
C      1  0.3950320000000  0.4968070000000  0.5276020000000 1.0
C      1  0.6116610000000  0.4692450000000  0.4825950000000 1.0
C      1  0.5461620000000  0.5402160000000  0.3890680000000 1.0
C      1  0.4937240000000  0.5148650000000  0.6094110000000 1.0
C      1  0.4786940000000  0.3799720000000  0.4761870000000 1.0
C      1  0.5369550000000  0.5552790000000  0.4973100000000 1.0
C      1  0.5509070000000  0.3954230000000  0.5010180000000 1.0
C      1  0.4393100000000  0.4635070000000  0.5157550000000 1.0
C      1  0.5648220000000  0.4291590000000  0.4582540000000 1.0
C      1  0.5755170000000  0.5269150000000  0.5073650000000 1.0
C      1  0.5275490000000  0.5429140000000  0.4538190000000 1.0
C      1  0.4884190000000  0.5171710000000  0.5310930000000 1.0
C      1  0.4660450000000  0.5181390000000  0.6054780000000 1.0
C      1  0.5897950000000  0.4516360000000  0.5210690000000 1.0
C      1  0.4830830000000  0.6130940000000  0.5504670000000 1.0
C      1  0.5695480000000  0.6040430000000  0.4604870000000 1.0
C      1  0.5912290000000  0.4057540000000  0.5243720000000 1.0
C      1  0.5530990000000  0.4919970000000  0.3884300000000 1.0
C      1  0.4368380000000  0.5027550000000  0.4913160000000 1.0
C      1  0.4467710000000  0.4274530000000  0.5770120000000 1.0
C      1  0.4212550000000  0.4075930000000  0.5391630000000 1.0
C      1  0.4472570000000  0.5330580000000  0.4265520000000 1.0
C      1  0.4526460000000  0.4940610000000  0.5984780000000 1.0
C      1  0.6113510000000  0.5564580000000  0.5071510000000 1.0
C      1  0.5438740000000  0.5196270000000  0.6789170000000 1.0
C      1  0.4642140000000  0.5346290000000  0.4021310000000 1.0
C      1  0.5355850000000  0.5199640000000  0.4674840000000 1.0
C      1  0.4734840000000  0.4526690000000  0.6114240000000 1.0
C      1  0.4704040000000  0.4276390000000  0.5177110000000 1.0
C      1  0.4236330000000  0.4790970000000  0.4987500000000 1.0
C      1  0.5306210000000  0.5241170000000  0.4948550000000 1.0
C      1  0.5743870000000  0.5983200000000  0.5078610000000 1.0
C      1  0.5240690000000  0.5893660000000  0.4537720000000 1.0
C      1  0.4875950000000  0.4609440000000  0.4826980000000 1.0
C      1  0.5722950000000  0.4641130000000  0.5403630000000 1.0
C      1  0.4939240000000  0.3934980000000  0.5484340000000 1.0
C      1  0.4276580000000  0.5267610000000  0.5030290000000 1.0
C      1  0.5080040000000  0.4714200000000  0.4230590000000 1.0
C      1  0.5121940000000  0.5416160000000  0.4308090000000 1.0
C      1  0.4874550000000  0.5415410000000  0.4901000000000 1.0
C      1  0.5308710000000  0.4535860000000  0.5735550000000 1.0
C      1  0.5752270000000  0.5818640000000  0.5517490000000 1.0
C      1  0.4774370000000  0.6246620000000  0.4938840000000 1.0
C      1  0.5294560000000  0.4973160000000  0.6794820000000 1.0
C      1  0.4083380000000  0.5053160000000  0.4351530000000 1.0
C      1  0.4581930000000  0.5509040000000  0.5647290000000 1.0
C      1  0.4221160000000  0.3917930000000  0.5139940000000 1.0
C      1  0.5501270000000  0.5513060000000  0.5913360000000 1.0
C      1  0.4590220000000  0.5987320000000  0.5541650000000 1.0
C      1  0.5064830000000  0.5064610000000  0.3806780000000 1.0
C      1  0.5614300000000  0.5175770000000  0.4281170000000 1.0
C      1  0.5222450000000  0.4554940000000  0.6009350000000 1.0
C      1  0.4089780000000  0.4547220000000  0.5617050000000 1.0
C      1  0.4428110000000  0.4361850000000  0.5111030000000 1.0
C      1  0.5006360000000  0.4255890000000  0.4318670000000 1.0
C      1  0.4922900000000  0.5730270000000  0.3961010000000 1.0
C      1  0.5315340000000  0.5833550000000  0.4266160000000 1.0
C      1  0.5667460000000  0.5528690000000  0.5004280000000 1.0
C      1  0.5777030000000  0.5829260000000  0.4424310000000 1.0
C      1  0.5117730000000  0.5662060000000  0.4149520000000 1.0
C      1  0.4873270000000  0.5164060000000  0.4002440000000 1.0
C      1  0.5349010000000  0.5152570000000  0.3819240000000 1.0
C      1  0.4578870000000  0.4548820000000  0.3702520000000 1.0
C      1  0.5023330000000  0.6012430000000  0.5333000000000 1.0
C      1  0.5590720000000  0.6108960000000  0.4864090000000 1.0
C      1  0.5529850000000  0.5043310000000  0.4523870000000 1.0
C      1  0.5271640000000  0.4164370000000  0.4306220000000 1.0
C      1  0.4627210000000  0.4547070000000  0.4226100000000 1.0
C      1  0.4321690000000  0.3980030000000  0.4867120000000 1.0
C      1  0.5191730000000  0.3903020000000  0.5370370000000 1.0
C      1  0.5126970000000  0.5089890000000  0.5914080000000 1.0
C      1  0.4010140000000  0.4483410000000  0.4197050000000 1.0
C      1  0.4489040000000  0.4672320000000  0.6069900000000 1.0
C      1  0.5323830000000  0.3962310000000  0.4783350000000 1.0
C      1  0.4835750000000  0.4636690000000  0.3682920000000 1.0
C      1  0.5835800000000  0.4148880000000  0.5696750000000 1.0
C      1  0.4996290000000  0.5169850000000  0.4263290000000 1.0
C      1  0.5362310000000  0.5431830000000  0.5686690000000 1.0
C      1  0.6022040000000  0.5038300000000  0.4163910000000 1.0
C      1  0.5118900000000  0.4554400000000  0.5264130000000 1.0
C      1  0.4042430000000  0.4826570000000  0.5521950000000 1.0
C      1  0.6044890000000  0.4356060000000  0.5617680000000 1.0
C      1  0.5306150000000  0.6092380000000  0.5264450000000 1.0
C      1  0.3808880000000  0.4688950000000  0.4581730000000 1.0
C      1  0.4814730000000  0.4208800000000  0.4514710000000 1.0
C      1  0.5821420000000  0.4270840000000  0.4806480000000 1.0
C      1  0.4063710000000  0.5244070000000  0.5222580000000 1.0
C      1  0.4576770000000  0.6070680000000  0.4803020000000 1.0
C      1  0.4720200000000  0.5599340000000  0.5068120000000 1.0
C      1  0.5227060000000  0.5181840000000  0.5670730000000 1.0
C      1  0.4560200000000  0.4079410000000  0.4430480000000 1.0
C      1  0.5146740000000  0.5111190000000  0.5403120000000 1.0
C      1  0.3765620000000  0.4828130000000  0.4823960000000 1.0
C      1  0.4451370000000  0.5742940000000  0.5528340000000 1.0
C      1  0.5423390000000  0.4422780000000  0.3882310000000 1.0
C      1  0.4579330000000  0.5423470000000  0.5920610000000 1.0
C      1  0.4714360000000  0.5327780000000  0.5473410000000 1.0
C      1  0.5593210000000  0.5989550000000  0.5337270000000 1.0
C      1  0.5205370000000  0.5624100000000  0.5210020000000 1.0
C      1  0.4460270000000  0.5560770000000  0.4471470000000 1.0
C      1  0.4751530000000  0.5957320000000  0.4582940000000 1.0
C      1  0.5078370000000  0.4776140000000  0.3741160000000 1.0
C      1  0.4344880000000  0.4461810000000  0.3814410000000 1.0
C      1  0.6312240000000  0.5038830000000  0.5145110000000 1.0
C      1  0.4138090000000  0.5841420000000  0.5098230000000 1.0
C      1  0.4039790000000  0.4304150000000  0.5458180000000 1.0
C      1  0.5939520000000  0.5612420000000  0.5521240000000 1.0
C      1  0.6132220000000  0.4643810000000  0.5668440000000 1.0
C      1  0.3888010000000  0.5737220000000  0.4980120000000 1.0
C      1  0.3815750000000  0.4411570000000  0.4476620000000 1.0
C      1  0.4439210000000  0.5498300000000  0.4979080000000 1.0
C      1  0.5742250000000  0.4996110000000  0.4086110000000 1.0
C      1  0.6169680000000  0.4915480000000  0.5589940000000 1.0
C      1  0.3960020000000  0.4805740000000  0.4363170000000 1.0
C      1  0.5058810000000  0.6216280000000  0.4848750000000 1.0
C      1  0.6045620000000  0.4301560000000  0.5328950000000 1.0
C      1  0.4723700000000  0.4428800000000  0.4672840000000 1.0
C      1  0.4855530000000  0.4548470000000  0.5128170000000 1.0
C      1  0.5580410000000  0.5716390000000  0.4249710000000 1.0
C      1  0.4350950000000  0.5642760000000  0.4738510000000 1.0
C      1  0.4318510000000  0.4267140000000  0.4869900000000 1.0
C      1  0.4364230000000  0.5062480000000  0.4302810000000 1.0
C      1  0.5403970000000  0.4224520000000  0.4062620000000 1.0
C      1  0.5729020000000  0.4916920000000  0.5407220000000 1.0
C      1  0.3775330000000  0.5546850000000  0.4797760000000 1.0
C      1  0.6011450000000  0.5675280000000  0.4452290000000 1.0
C      1  0.3617250000000  0.5324710000000  0.4873630000000 1.0
C      1  0.5005400000000  0.4579670000000  0.6201820000000 1.0
C      1  0.4875150000000  0.6370290000000  0.5627910000000 1.0
C      1  0.5358680000000  0.4687450000000  0.3811450000000 1.0
C      1  0.5580230000000  0.5442630000000  0.4151190000000 1.0
C      1  0.3945880000000  0.5292650000000  0.4412490000000 1.0
C      1  0.6130750000000  0.5207090000000  0.4357990000000 1.0
C      1  0.5867990000000  0.5729920000000  0.5030020000000 1.0
C      1  0.5318280000000  0.5592260000000  0.5465010000000 1.0
C      1  0.4234370000000  0.4375850000000  0.4068310000000 1.0
C      1  0.4081610000000  0.5444120000000  0.5429340000000 1.0
C      1  0.4521990000000  0.3892540000000  0.4668440000000 1.0
C      1  0.5930670000000  0.4509420000000  0.4927550000000 1.0
C      1  0.5551810000000  0.4775610000000  0.4614400000000 1.0
C      1  0.4712130000000  0.4079640000000  0.5383600000000 1.0
C      1  0.5320000000000  0.6186040000000  0.4976720000000 1.0
C      1  0.5460220000000  0.3936750000000  0.5301310000000 1.0
C      1  0.4475940000000  0.4927860000000  0.5702410000000 1.0
C      1  0.5782760000000  0.4051750000000  0.4984460000000 1.0
C      1  0.4868930000000  0.5495640000000  0.4638220000000 1.0
END
