TITL C-627110-360-1641 0.00205919600975819 125000 -221.166588449525 0 0 39 (C1) n - 1
REM
REM in /home/nfs/bkarasulu/CARBON/AIRSS/Generating-Clusters/LCBOP/Only-C1/SD-CG/FIRE-CG
REM
REM
REM
REM
REM
REM ./C.cell (11c1c37f851c82e70ff6c80c92926a4b)
REM AIRSS Version 0.9.1 bugfix July 2018 build 013d7b7c2542+ Fri, 06 Jul 2018 19:26:36 +0100
REM compiler GCC version 9.2.1 20190827 (Red Hat 9.2.1-1)
REM options -cpp -mtune=generic -march=x86-64 -g -O0 -fpre-include=/usr/include/finclude/math-vector-fortran.h
REM seed -1660629673 507834904 699418008 -1691660625 944726433 324577466 921373502 141302184 -38738026 -1135448970 -1796028870 -988694 2007826469 -1848612576 -1072616751 -2121550404 1674953001 -1564330414 1306855806 -1577792317 -398423955 1987444860 -1533024372 -519104583 1308613867 -2099686597 -652202598 277337910 -349114309 446257565 -636801149 1371802127 -909511172
REM
CELL 1.54180   50.00000   50.00000   50.00000   90.00000   90.00000   90.00000
LATT -1
SFAC C  
C      1  0.4731820000000  0.5337920000000  0.4119020000000 1.0
C      1  0.5380870000000  0.4757420000000  0.4637630000000 1.0
C      1  0.4785980000000  0.5127160000000  0.5571850000000 1.0
C      1  0.5300370000000  0.4664400000000  0.5690730000000 1.0
C      1  0.4382750000000  0.5536500000000  0.5410420000000 1.0
C      1  0.5056640000000  0.5085630000000  0.4380260000000 1.0
C      1  0.4874490000000  0.4357400000000  0.5021350000000 1.0
C      1  0.5699380000000  0.4436790000000  0.4816750000000 1.0
C      1  0.4818430000000  0.4608470000000  0.4979640000000 1.0
C      1  0.4750650000000  0.4877390000000  0.4942740000000 1.0
C      1  0.4348160000000  0.4969990000000  0.4597090000000 1.0
C      1  0.5968400000000  0.4085050000000  0.4998040000000 1.0
C      1  0.5224890000000  0.4905860000000  0.4481260000000 1.0
C      1  0.5158710000000  0.5105710000000  0.5114280000000 1.0
C      1  0.5293780000000  0.4905680000000  0.5264050000000 1.0
C      1  0.5137760000000  0.5608960000000  0.4637430000000 1.0
C      1  0.5884060000000  0.4229640000000  0.4781360000000 1.0
C      1  0.4890830000000  0.5310200000000  0.4346200000000 1.0
C      1  0.4549790000000  0.4942380000000  0.4759960000000 1.0
C      1  0.5220650000000  0.4883850000000  0.5538040000000 1.0
C      1  0.5165290000000  0.5254980000000  0.5844970000000 1.0
C      1  0.4729980000000  0.5211660000000  0.5304840000000 1.0
C      1  0.4568670000000  0.5360500000000  0.3911510000000 1.0
C      1  0.4567960000000  0.5520840000000  0.4966550000000 1.0
C      1  0.5295010000000  0.5325230000000  0.5009860000000 1.0
C      1  0.4670560000000  0.5545670000000  0.4721760000000 1.0
C      1  0.4406540000000  0.5382000000000  0.3708500000000 1.0
C      1  0.5452200000000  0.4729500000000  0.5115730000000 1.0
C      1  0.4889330000000  0.5509160000000  0.4549700000000 1.0
C      1  0.4183470000000  0.4959460000000  0.6078280000000 1.0
C      1  0.5512650000000  0.4639800000000  0.4856330000000 1.0
C      1  0.5978370000000  0.4173780000000  0.4530460000000 1.0
C      1  0.5300590000000  0.5523980000000  0.4832370000000 1.0
C      1  0.4379800000000  0.5012110000000  0.5915060000000 1.0
C      1  0.4578020000000  0.5067630000000  0.5748310000000 1.0
C      1  0.4556580000000  0.5425160000000  0.5231160000000 1.0
C      1  0.5372740000000  0.4456590000000  0.5830320000000 1.0
C      1  0.4876140000000  0.5076530000000  0.5101240000000 1.0
C      1  0.5057660000000  0.5089010000000  0.5654960000000 1.0
END
