TITL C-627112-676-1547 5208.13346427177 125000 -692.912891246472 0 0 114 (C1) n - 1
REM
REM in /home/nfs/bkarasulu/CARBON/AIRSS/Generating-Clusters/LCBOP/Only-C1/SD-CG/FIRE-CG
REM
REM
REM
REM
REM
REM ./C.cell (11c1c37f851c82e70ff6c80c92926a4b)
REM AIRSS Version 0.9.1 bugfix July 2018 build 013d7b7c2542+ Fri, 06 Jul 2018 19:26:36 +0100
REM compiler GCC version 9.2.1 20190827 (Red Hat 9.2.1-1)
REM options -cpp -mtune=generic -march=x86-64 -g -O0 -fpre-include=/usr/include/finclude/math-vector-fortran.h
REM seed 1880176798 -1435254458 -910340605 -1116169666 -930169799 -757549059 240901498 439407342 -686098784 1617155777 -22199849 1508278352 -72193360 1562390130 -1560019433 224996141 -976922395 -836470075 1500645856 -698695183 492937807 1581431221 -147450131 -1791601243 -711940776 46173096 -248468756 -9563571 164269909 -656237865 1659293577 719844884 834344733
REM
CELL 1.54180   50.00000   50.00000   50.00000   90.00000   90.00000   90.00000
LATT -1
SFAC C  
C      1  0.5388510000000  0.6204800000000  0.5658480000000 1.0
C      1  0.3946780000000  0.4912080000000  0.5239760000000 1.0
C      1  0.5357150000000  0.5840540000000  0.4313820000000 1.0
C      1  0.5036090000000  0.5207510000000  0.4944460000000 1.0
C      1  0.5004190000000  0.4163950000000  0.5367640000000 1.0
C      1  0.5136420000000  0.5185730000000  0.5508400000000 1.0
C      1  0.5379080000000  0.4756690000000  0.4332760000000 1.0
C      1  0.4066510000000  0.4566940000000  0.4801300000000 1.0
C      1  0.5029780000000  0.4974290000000  0.3981880000000 1.0
C      1  0.6427660000000  0.4694030000000  0.5477820000000 1.0
C      1  0.5524450000000  0.5401940000000  0.5139760000000 1.0
C      1  0.4785990000000  0.5268970000000  0.4825120000000 1.0
C      1  0.5150130000000  0.5228060000000  0.4073290000000 1.0
C      1  0.5505540000000  0.4434620000000  0.5685090000000 1.0
C      1  0.4468140000000  0.5671020000000  0.5001910000000 1.0
C      1  0.4012830000000  0.5398870000000  0.5422750000000 1.0
C      1  0.4576690000000  0.4699010000000  0.4750180000000 1.0
C      1  0.6241180000000  0.5162650000000  0.4506360000000 1.0
C      1  0.6180790000000  0.4668850000000  0.5384680000000 1.0
C      1  0.5042580000000  0.5006390000000  0.5722860000000 1.0
C      1  0.5153670000000  0.4125870000000  0.5126900000000 1.0
C      1  0.4631090000000  0.5754570000000  0.5239260000000 1.0
C      1  0.5984450000000  0.5098370000000  0.4516720000000 1.0
C      1  0.4075200000000  0.4790860000000  0.5461170000000 1.0
C      1  0.3906860000000  0.5201680000000  0.5237030000000 1.0
C      1  0.4513200000000  0.5329830000000  0.5336910000000 1.0
C      1  0.4482580000000  0.5595510000000  0.5451430000000 1.0
C      1  0.4790150000000  0.4391680000000  0.5832070000000 1.0
C      1  0.4246050000000  0.4206610000000  0.4527820000000 1.0
C      1  0.4679360000000  0.4424480000000  0.5571270000000 1.0
C      1  0.4537350000000  0.5162450000000  0.4899120000000 1.0
C      1  0.4768530000000  0.5094610000000  0.4348730000000 1.0
C      1  0.3962140000000  0.4730060000000  0.5014700000000 1.0
C      1  0.5277090000000  0.5389560000000  0.4500780000000 1.0
C      1  0.5245150000000  0.4831660000000  0.5844780000000 1.0
C      1  0.4196190000000  0.5587950000000  0.5510320000000 1.0
C      1  0.4674490000000  0.6030590000000  0.4393550000000 1.0
C      1  0.5511220000000  0.5495970000000  0.5407570000000 1.0
C      1  0.5713860000000  0.5046190000000  0.4543830000000 1.0
C      1  0.4811390000000  0.5060060000000  0.5872390000000 1.0
C      1  0.4734040000000  0.5354500000000  0.4250840000000 1.0
C      1  0.4458070000000  0.4228900000000  0.4963270000000 1.0
C      1  0.4359970000000  0.4224560000000  0.4286450000000 1.0
C      1  0.5426670000000  0.4206250000000  0.5219360000000 1.0
C      1  0.4576550000000  0.4721060000000  0.6144690000000 1.0
C      1  0.4975630000000  0.5449020000000  0.4143640000000 1.0
C      1  0.4898010000000  0.5924250000000  0.4286230000000 1.0
C      1  0.5243160000000  0.5343510000000  0.4776550000000 1.0
C      1  0.4518560000000  0.4882630000000  0.4963310000000 1.0
C      1  0.5382900000000  0.5321340000000  0.5585660000000 1.0
C      1  0.4430160000000  0.5377240000000  0.5055770000000 1.0
C      1  0.5093650000000  0.5105680000000  0.5221110000000 1.0
C      1  0.3780290000000  0.5130390000000  0.4524150000000 1.0
C      1  0.4907620000000  0.4890420000000  0.4483990000000 1.0
C      1  0.5592540000000  0.5115960000000  0.5067930000000 1.0
C      1  0.5531550000000  0.5006950000000  0.4320160000000 1.0
C      1  0.4718500000000  0.4676200000000  0.4504010000000 1.0
C      1  0.5466340000000  0.4986910000000  0.5934260000000 1.0
C      1  0.4871280000000  0.4751730000000  0.4034600000000 1.0
C      1  0.4542020000000  0.4373760000000  0.4159090000000 1.0
C      1  0.4491790000000  0.6000900000000  0.4589030000000 1.0
C      1  0.5589430000000  0.5950580000000  0.4271480000000 1.0
C      1  0.4247440000000  0.4331570000000  0.4783920000000 1.0
C      1  0.5518430000000  0.5224090000000  0.5814530000000 1.0
C      1  0.5440290000000  0.4482470000000  0.4346230000000 1.0
C      1  0.5097030000000  0.5727070000000  0.4970030000000 1.0
C      1  0.5148410000000  0.4212910000000  0.4651750000000 1.0
C      1  0.5103840000000  0.5704120000000  0.4373030000000 1.0
C      1  0.4651210000000  0.3835980000000  0.4761230000000 1.0
C      1  0.4614560000000  0.5514040000000  0.4446230000000 1.0
C      1  0.4996010000000  0.4147260000000  0.4883670000000 1.0
C      1  0.4324760000000  0.4676500000000  0.5404060000000 1.0
C      1  0.3783200000000  0.5302650000000  0.5003920000000 1.0
C      1  0.5356030000000  0.5230210000000  0.4277370000000 1.0
C      1  0.5504160000000  0.4863440000000  0.5208970000000 1.0
C      1  0.4765970000000  0.5517810000000  0.4684900000000 1.0
C      1  0.4709560000000  0.4589000000000  0.4221160000000 1.0
C      1  0.4580860000000  0.5070280000000  0.5400010000000 1.0
C      1  0.5321890000000  0.5976450000000  0.5514110000000 1.0
C      1  0.4922490000000  0.5807630000000  0.5198580000000 1.0
C      1  0.4408280000000  0.5855690000000  0.4799420000000 1.0
C      1  0.5276250000000  0.4550390000000  0.5826440000000 1.0
C      1  0.6670710000000  0.4718720000000  0.5568820000000 1.0
C      1  0.5587210000000  0.4346710000000  0.4788790000000 1.0
C      1  0.4394460000000  0.4236900000000  0.5239880000000 1.0
C      1  0.5215080000000  0.4840380000000  0.5223820000000 1.0
C      1  0.5507870000000  0.5769360000000  0.5470680000000 1.0
C      1  0.5159900000000  0.4143250000000  0.5613080000000 1.0
C      1  0.6997580000000  0.5392700000000  0.4494350000000 1.0
C      1  0.6495850000000  0.5235700000000  0.4501130000000 1.0
C      1  0.5173840000000  0.4826900000000  0.4530270000000 1.0
C      1  0.5032890000000  0.4630780000000  0.5263240000000 1.0
C      1  0.3743580000000  0.5281650000000  0.4741070000000 1.0
C      1  0.4496040000000  0.4845350000000  0.5250430000000 1.0
C      1  0.4424800000000  0.4420870000000  0.5452840000000 1.0
C      1  0.4651750000000  0.4478210000000  0.6058560000000 1.0
C      1  0.5581970000000  0.4389150000000  0.5066900000000 1.0
C      1  0.4881340000000  0.4420660000000  0.5372260000000 1.0
C      1  0.3986860000000  0.4672080000000  0.4547870000000 1.0
C      1  0.6749080000000  0.5313970000000  0.4497450000000 1.0
C      1  0.4638900000000  0.4965440000000  0.6053250000000 1.0
C      1  0.5337300000000  0.5544130000000  0.4966850000000 1.0
C      1  0.5326680000000  0.4877950000000  0.4760500000000 1.0
C      1  0.5065280000000  0.5940550000000  0.5404040000000 1.0
C      1  0.5072230000000  0.4337850000000  0.5820860000000 1.0
C      1  0.4976070000000  0.5699610000000  0.4709770000000 1.0
C      1  0.5934720000000  0.4645280000000  0.5289670000000 1.0
C      1  0.5451110000000  0.6418610000000  0.5793710000000 1.0
C      1  0.5673670000000  0.4631890000000  0.5190940000000 1.0
C      1  0.3876330000000  0.4893480000000  0.4446030000000 1.0
C      1  0.4704600000000  0.4086970000000  0.4871890000000 1.0
C      1  0.5575220000000  0.5024160000000  0.4792240000000 1.0
C      1  0.5435720000000  0.4213120000000  0.5512370000000 1.0
C      1  0.5401390000000  0.4319800000000  0.4576630000000 1.0
END
