TITL C-627110-360-1317 0.0365669157669727 125000 -738.065465580791 0 0 120 (C1) n - 1
REM
REM in /home/nfs/bkarasulu/CARBON/AIRSS/Generating-Clusters/LCBOP/Only-C1/SD-CG/FIRE-CG
REM
REM
REM
REM
REM
REM ./C.cell (11c1c37f851c82e70ff6c80c92926a4b)
REM AIRSS Version 0.9.1 bugfix July 2018 build 013d7b7c2542+ Fri, 06 Jul 2018 19:26:36 +0100
REM compiler GCC version 9.2.1 20190827 (Red Hat 9.2.1-1)
REM options -cpp -mtune=generic -march=x86-64 -g -O0 -fpre-include=/usr/include/finclude/math-vector-fortran.h
REM seed -1975860609 1070394069 1191021121 -1157836972 1044366780 1668351818 746533582 1158768405 -1061496306 -947109024 1176147287 -1038579214 -41332320 -1454949717 1571246145 -356232898 553829110 318698980 -796908885 412978596 -1962233143 2129098670 -1270914209 166141843 -1557766359 -34214232 -1201086432 805404332 2056312795 353700844 -1358732572 -1581759716 17242926
REM
CELL 1.54180   50.00000   50.00000   50.00000   90.00000   90.00000   90.00000
LATT -1
SFAC C  
C      1  0.4709810000000  0.4999570000000  0.4073670000000 1.0
C      1  0.5174200000000  0.5463040000000  0.4630480000000 1.0
C      1  0.4165810000000  0.5510860000000  0.5129990000000 1.0
C      1  0.4161780000000  0.4936240000000  0.4622650000000 1.0
C      1  0.4902630000000  0.4209080000000  0.5798480000000 1.0
C      1  0.5319110000000  0.4888820000000  0.6035300000000 1.0
C      1  0.4346440000000  0.5651150000000  0.6055120000000 1.0
C      1  0.4781480000000  0.5475450000000  0.4073410000000 1.0
C      1  0.4023730000000  0.5143050000000  0.4762090000000 1.0
C      1  0.4649400000000  0.4788870000000  0.5416000000000 1.0
C      1  0.4764170000000  0.5792290000000  0.4497670000000 1.0
C      1  0.4934880000000  0.6223890000000  0.5542800000000 1.0
C      1  0.4562380000000  0.5345020000000  0.4621410000000 1.0
C      1  0.4353610000000  0.5582610000000  0.5791100000000 1.0
C      1  0.4744190000000  0.4419030000000  0.5710670000000 1.0
C      1  0.4840590000000  0.5396460000000  0.5612140000000 1.0
C      1  0.4890200000000  0.5216740000000  0.4023670000000 1.0
C      1  0.5523780000000  0.5321860000000  0.5221020000000 1.0
C      1  0.5334870000000  0.4762450000000  0.4006210000000 1.0
C      1  0.6921960000000  0.5220180000000  0.4779260000000 1.0
C      1  0.4049940000000  0.4402110000000  0.5523580000000 1.0
C      1  0.5101720000000  0.5012100000000  0.5435140000000 1.0
C      1  0.4369970000000  0.4776920000000  0.5033740000000 1.0
C      1  0.4487890000000  0.4871200000000  0.4205700000000 1.0
C      1  0.5236630000000  0.5894560000000  0.4443550000000 1.0
C      1  0.4660210000000  0.5661830000000  0.4956390000000 1.0
C      1  0.4380830000000  0.5296080000000  0.4408390000000 1.0
C      1  0.5914650000000  0.5331760000000  0.5492180000000 1.0
C      1  0.4455080000000  0.4590850000000  0.4210030000000 1.0
C      1  0.4663970000000  0.5049380000000  0.5293490000000 1.0
C      1  0.3799970000000  0.4317520000000  0.5501120000000 1.0
C      1  0.4631860000000  0.5614590000000  0.4679650000000 1.0
C      1  0.5121910000000  0.4711780000000  0.5078200000000 1.0
C      1  0.4242580000000  0.4711400000000  0.4785190000000 1.0
C      1  0.5313210000000  0.3573630000000  0.4641220000000 1.0
C      1  0.5698520000000  0.5841170000000  0.4644580000000 1.0
C      1  0.4831740000000  0.4634000000000  0.4721290000000 1.0
C      1  0.5638790000000  0.5101050000000  0.3886540000000 1.0
C      1  0.5312670000000  0.5456610000000  0.4150510000000 1.0
C      1  0.5023790000000  0.4493290000000  0.4549830000000 1.0
C      1  0.5758370000000  0.4611120000000  0.5259560000000 1.0
C      1  0.5348370000000  0.6175020000000  0.4782200000000 1.0
C      1  0.5681060000000  0.4860290000000  0.5362420000000 1.0
C      1  0.5426480000000  0.4244040000000  0.5365640000000 1.0
C      1  0.4253940000000  0.5487100000000  0.4261240000000 1.0
C      1  0.5505740000000  0.5584260000000  0.5627790000000 1.0
C      1  0.4960460000000  0.6128600000000  0.5301600000000 1.0
C      1  0.5090250000000  0.4766540000000  0.5585200000000 1.0
C      1  0.5408430000000  0.4712550000000  0.4276520000000 1.0
C      1  0.6674690000000  0.5260130000000  0.4851530000000 1.0
C      1  0.5321450000000  0.4624610000000  0.5667060000000 1.0
C      1  0.5361790000000  0.5024830000000  0.3903720000000 1.0
C      1  0.5221090000000  0.5188890000000  0.4600870000000 1.0
C      1  0.5897100000000  0.5122990000000  0.5688630000000 1.0
C      1  0.5251140000000  0.4086740000000  0.5211790000000 1.0
C      1  0.4272000000000  0.4466950000000  0.4648170000000 1.0
C      1  0.5145020000000  0.5560890000000  0.4902120000000 1.0
C      1  0.5065540000000  0.6125000000000  0.4815380000000 1.0
C      1  0.4537490000000  0.5028370000000  0.5034440000000 1.0
C      1  0.5852870000000  0.5641410000000  0.4733190000000 1.0
C      1  0.5084120000000  0.4958130000000  0.4543670000000 1.0
C      1  0.4930800000000  0.5722050000000  0.5018880000000 1.0
C      1  0.5018830000000  0.5258150000000  0.6034290000000 1.0
C      1  0.4971760000000  0.5990720000000  0.4569790000000 1.0
C      1  0.4788680000000  0.4830980000000  0.6073210000000 1.0
C      1  0.4464420000000  0.4592700000000  0.5274310000000 1.0
C      1  0.4046470000000  0.5348350000000  0.4933220000000 1.0
C      1  0.4311500000000  0.4494790000000  0.5532010000000 1.0
C      1  0.5705960000000  0.4914410000000  0.5651040000000 1.0
C      1  0.4965930000000  0.3313300000000  0.4509330000000 1.0
C      1  0.5181270000000  0.5229230000000  0.4005930000000 1.0
C      1  0.4858990000000  0.3559690000000  0.4587710000000 1.0
C      1  0.5596580000000  0.5467720000000  0.4161330000000 1.0
C      1  0.4874100000000  0.5647760000000  0.4271920000000 1.0
C      1  0.5338470000000  0.4343590000000  0.5619080000000 1.0
C      1  0.4315960000000  0.5019710000000  0.4387950000000 1.0
C      1  0.4984200000000  0.6000490000000  0.5056990000000 1.0
C      1  0.5658690000000  0.5444880000000  0.5439840000000 1.0
C      1  0.5968780000000  0.5386930000000  0.4776550000000 1.0
C      1  0.5191820000000  0.4705320000000  0.4452950000000 1.0
C      1  0.5042930000000  0.4977900000000  0.6072870000000 1.0
C      1  0.6088730000000  0.5338940000000  0.5269300000000 1.0
C      1  0.4880560000000  0.4585420000000  0.4994670000000 1.0
C      1  0.5507570000000  0.5034570000000  0.5211790000000 1.0
C      1  0.5054280000000  0.4002020000000  0.4770570000000 1.0
C      1  0.5353990000000  0.5482530000000  0.5070770000000 1.0
C      1  0.5064530000000  0.4221090000000  0.4592780000000 1.0
C      1  0.6154380000000  0.5342320000000  0.4993130000000 1.0
C      1  0.4549990000000  0.4714680000000  0.5987010000000 1.0
C      1  0.5494180000000  0.4801260000000  0.5816660000000 1.0
C      1  0.4686770000000  0.4419700000000  0.5135760000000 1.0
C      1  0.5022130000000  0.4052920000000  0.5050870000000 1.0
C      1  0.6423140000000  0.5300680000000  0.4924110000000 1.0
C      1  0.4770660000000  0.4150850000000  0.5144750000000 1.0
C      1  0.4824240000000  0.4919920000000  0.4660230000000 1.0
C      1  0.4876540000000  0.5189740000000  0.5420250000000 1.0
C      1  0.5798800000000  0.5068470000000  0.4353880000000 1.0
C      1  0.4045840000000  0.5541180000000  0.5381430000000 1.0
C      1  0.5169000000000  0.4179890000000  0.5774390000000 1.0
C      1  0.3053740000000  0.4066250000000  0.5428300000000 1.0
C      1  0.5166670000000  0.5610390000000  0.4358820000000 1.0
C      1  0.3299760000000  0.4149090000000  0.5452320000000 1.0
C      1  0.4477960000000  0.4512790000000  0.5781360000000 1.0
C      1  0.4363080000000  0.4421180000000  0.4398280000000 1.0
C      1  0.4649580000000  0.5113000000000  0.4779420000000 1.0
C      1  0.4843420000000  0.4647440000000  0.5570980000000 1.0
C      1  0.5242540000000  0.4937260000000  0.5197460000000 1.0
C      1  0.5915040000000  0.5185550000000  0.4583400000000 1.0
C      1  0.5658660000000  0.4819750000000  0.4362640000000 1.0
C      1  0.4594820000000  0.5519330000000  0.5662300000000 1.0
C      1  0.5744590000000  0.5229650000000  0.4119910000000 1.0
C      1  0.5656310000000  0.4363440000000  0.5257420000000 1.0
C      1  0.5274440000000  0.5574580000000  0.5760360000000 1.0
C      1  0.4120870000000  0.5571410000000  0.5635470000000 1.0
C      1  0.5242500000000  0.3321790000000  0.4541910000000 1.0
C      1  0.5073470000000  0.3740380000000  0.4676450000000 1.0
C      1  0.5466940000000  0.5989350000000  0.4594300000000 1.0
C      1  0.5041170000000  0.5429970000000  0.5812830000000 1.0
C      1  0.3549900000000  0.4233310000000  0.5476740000000 1.0
C      1  0.4424770000000  0.5622300000000  0.5101490000000 1.0
END
