TITL C-627107-135-1638 0.0943611766702032 125000 -210.728422559662 0 0 36 (C1) n - 1
REM
REM in /home/nfs/bkarasulu/CARBON/AIRSS/Generating-Clusters/LCBOP/Only-C1/SD-CG/FIRE-CG
REM
REM
REM
REM
REM
REM ./C.cell (11c1c37f851c82e70ff6c80c92926a4b)
REM AIRSS Version 0.9.1 bugfix July 2018 build 013d7b7c2542+ Fri, 06 Jul 2018 19:26:36 +0100
REM compiler GCC version 9.2.1 20190827 (Red Hat 9.2.1-1)
REM options -cpp -mtune=generic -march=x86-64 -g -O0 -fpre-include=/usr/include/finclude/math-vector-fortran.h
REM seed -1616370016 857398832 2088407223 -1261524615 2874438 668642428 965800715 -613257631 -1737438481 -268038191 -1179177770 246951346 525368395 628034651 -34170130 1543510867 -1339872470 -85595786 1239795005 -1972755722 1031308969 -43539650 2070238015 -1478241782 1091163388 995633115 231883184 -249706322 -577167889 -1142222399 -1147312738 96758736 -653842022
REM
CELL 1.54180   50.00000   50.00000   50.00000   90.00000   90.00000   90.00000
LATT -1
SFAC C  
C      1  0.4749050000000  0.5193800000000  0.5472750000000 1.0
C      1  0.5184910000000  0.5598160000000  0.5167350000000 1.0
C      1  0.5322680000000  0.4823240000000  0.5179920000000 1.0
C      1  0.5117850000000  0.5558860000000  0.4440030000000 1.0
C      1  0.5182360000000  0.4600480000000  0.5148100000000 1.0
C      1  0.4945280000000  0.3543690000000  0.4203960000000 1.0
C      1  0.4808820000000  0.5466410000000  0.5517090000000 1.0
C      1  0.4075100000000  0.5726600000000  0.6150720000000 1.0
C      1  0.4973270000000  0.4437520000000  0.5057660000000 1.0
C      1  0.5680220000000  0.5233410000000  0.4750960000000 1.0
C      1  0.4491610000000  0.4780480000000  0.5501610000000 1.0
C      1  0.4986180000000  0.3775950000000  0.4315090000000 1.0
C      1  0.5010830000000  0.5587410000000  0.5367680000000 1.0
C      1  0.4733940000000  0.4438680000000  0.5202630000000 1.0
C      1  0.5046580000000  0.5396480000000  0.4241610000000 1.0
C      1  0.5416740000000  0.5063710000000  0.5119200000000 1.0
C      1  0.4646630000000  0.5604480000000  0.5709460000000 1.0
C      1  0.4564380000000  0.4564840000000  0.5364090000000 1.0
C      1  0.5217690000000  0.5595780000000  0.4683660000000 1.0
C      1  0.4710560000000  0.5859390000000  0.5787100000000 1.0
C      1  0.4417270000000  0.5470810000000  0.5821620000000 1.0
C      1  0.4376310000000  0.5199110000000  0.5751990000000 1.0
C      1  0.5027730000000  0.4011990000000  0.4428030000000 1.0
C      1  0.5648390000000  0.5016860000000  0.4575450000000 1.0
C      1  0.5512220000000  0.4829220000000  0.4445570000000 1.0
C      1  0.5474980000000  0.5274450000000  0.4944230000000 1.0
C      1  0.5303320000000  0.5501440000000  0.4933080000000 1.0
C      1  0.5123230000000  0.4896850000000  0.4175840000000 1.0
C      1  0.5187800000000  0.4468910000000  0.4400720000000 1.0
C      1  0.5898960000000  0.5396470000000  0.4739290000000 1.0
C      1  0.5042890000000  0.5148820000000  0.4143840000000 1.0
C      1  0.5279170000000  0.4723040000000  0.4331190000000 1.0
C      1  0.4533070000000  0.5044590000000  0.5576440000000 1.0
C      1  0.4998540000000  0.4304750000000  0.4813480000000 1.0
C      1  0.5071170000000  0.4260670000000  0.4546850000000 1.0
C      1  0.4240250000000  0.5602640000000  0.5991730000000 1.0
END
