TITL C-627108-131-780 442.269074502897 125000 -983.208599424946 0 0 162 (C1) n - 1
REM
REM in /home/nfs/bkarasulu/CARBON/AIRSS/Generating-Clusters/LCBOP/Only-C1/SD-CG/FIRE-CG
REM
REM
REM
REM
REM
REM ./C.cell (11c1c37f851c82e70ff6c80c92926a4b)
REM AIRSS Version 0.9.1 bugfix July 2018 build 013d7b7c2542+ Fri, 06 Jul 2018 19:26:36 +0100
REM compiler GCC version 9.2.1 20190827 (Red Hat 9.2.1-1)
REM options -cpp -mtune=generic -march=x86-64 -g -O0 -fpre-include=/usr/include/finclude/math-vector-fortran.h
REM seed -1735715473 -845327446 637799621 -517006148 -1647286429 -1790726009 -3168953 179372684 -294752774 90817504 1137575138 -1509524101 -1655857755 -1477548999 1481169096 323225811 -640363424 -299197769 -2053680141 761562678 850061647 -556293800 1171016447 -1795937548 -1705878924 164694109 2122834238 430598984 709068202 -853970400 -677323109 464121864 -283559977
REM
CELL 1.54180   50.00000   50.00000   50.00000   90.00000   90.00000   90.00000
LATT -1
SFAC C  
C      1  0.5189630000000  0.5247000000000  0.5683300000000 1.0
C      1  0.4870540000000  0.4112370000000  0.4587660000000 1.0
C      1  0.4463390000000  0.6081870000000  0.4721010000000 1.0
C      1  0.4805420000000  0.3940720000000  0.5254030000000 1.0
C      1  0.5483250000000  0.4238380000000  0.5254570000000 1.0
C      1  0.4509250000000  0.4451950000000  0.4304260000000 1.0
C      1  0.4106040000000  0.5595520000000  0.4352440000000 1.0
C      1  0.4685790000000  0.5071380000000  0.6123100000000 1.0
C      1  0.5885910000000  0.4813580000000  0.4503070000000 1.0
C      1  0.5177970000000  0.5480580000000  0.5482990000000 1.0
C      1  0.5647420000000  0.4917700000000  0.5348560000000 1.0
C      1  0.5198050000000  0.4000750000000  0.5625580000000 1.0
C      1  0.5143830000000  0.5605500000000  0.4992040000000 1.0
C      1  0.5556380000000  0.4260640000000  0.5962790000000 1.0
C      1  0.4723190000000  0.5461580000000  0.4417780000000 1.0
C      1  0.5247360000000  0.4701320000000  0.5101390000000 1.0
C      1  0.4754170000000  0.4774530000000  0.4005230000000 1.0
C      1  0.5705290000000  0.5225600000000  0.4254690000000 1.0
C      1  0.5217900000000  0.5887630000000  0.4485250000000 1.0
C      1  0.5611090000000  0.5721460000000  0.4682860000000 1.0
C      1  0.3973860000000  0.5457460000000  0.4574720000000 1.0
C      1  0.5801720000000  0.3888360000000  0.5368170000000 1.0
C      1  0.5328270000000  0.4286650000000  0.4801950000000 1.0
C      1  0.4839680000000  0.4990860000000  0.5248860000000 1.0
C      1  0.4377120000000  0.5134990000000  0.4932180000000 1.0
C      1  0.6211480000000  0.5125710000000  0.5566470000000 1.0
C      1  0.5245290000000  0.5246030000000  0.4198890000000 1.0
C      1  0.3989670000000  0.4611800000000  0.4356000000000 1.0
C      1  0.6043870000000  0.5260010000000  0.5070150000000 1.0
C      1  0.5006620000000  0.5028500000000  0.5665730000000 1.0
C      1  0.3941490000000  0.4718700000000  0.5431400000000 1.0
C      1  0.5740870000000  0.3796630000000  0.4565670000000 1.0
C      1  0.4583660000000  0.5131870000000  0.4737400000000 1.0
C      1  0.5969960000000  0.4325110000000  0.5230210000000 1.0
C      1  0.4730240000000  0.5468540000000  0.3793470000000 1.0
C      1  0.4278720000000  0.5929570000000  0.5171200000000 1.0
C      1  0.4594690000000  0.5009310000000  0.4035200000000 1.0
C      1  0.4083560000000  0.5380090000000  0.5226960000000 1.0
C      1  0.6172780000000  0.4603390000000  0.4845880000000 1.0
C      1  0.4684560000000  0.5414970000000  0.5487700000000 1.0
C      1  0.4690120000000  0.5605160000000  0.4978520000000 1.0
C      1  0.4556870000000  0.5247280000000  0.4470010000000 1.0
C      1  0.4262510000000  0.4891540000000  0.5023790000000 1.0
C      1  0.4313640000000  0.4641560000000  0.4904450000000 1.0
C      1  0.4444050000000  0.4985180000000  0.5695140000000 1.0
C      1  0.5019820000000  0.5930640000000  0.4283670000000 1.0
C      1  0.6099000000000  0.4847140000000  0.4703240000000 1.0
C      1  0.4274390000000  0.4354690000000  0.4921410000000 1.0
C      1  0.4390070000000  0.4151430000000  0.5099370000000 1.0
C      1  0.5541660000000  0.5944420000000  0.5143120000000 1.0
C      1  0.5669400000000  0.4662920000000  0.4628640000000 1.0
C      1  0.4672730000000  0.5635690000000  0.5676570000000 1.0
C      1  0.5172970000000  0.4825950000000  0.4466000000000 1.0
C      1  0.5658710000000  0.5191300000000  0.5457780000000 1.0
C      1  0.5046130000000  0.4801100000000  0.4015930000000 1.0
C      1  0.5438980000000  0.4520680000000  0.4123680000000 1.0
C      1  0.5776720000000  0.4939550000000  0.4261370000000 1.0
C      1  0.4902690000000  0.4774890000000  0.4574630000000 1.0
C      1  0.5166460000000  0.4531960000000  0.4032720000000 1.0
C      1  0.5304730000000  0.5737910000000  0.5605700000000 1.0
C      1  0.4884670000000  0.6050100000000  0.5643190000000 1.0
C      1  0.5233850000000  0.6004320000000  0.4773670000000 1.0
C      1  0.5053690000000  0.5529010000000  0.5244350000000 1.0
C      1  0.5738690000000  0.4469820000000  0.5886920000000 1.0
C      1  0.4924700000000  0.5634110000000  0.4811420000000 1.0
C      1  0.4265940000000  0.4490100000000  0.5750430000000 1.0
C      1  0.5624970000000  0.4744070000000  0.4102870000000 1.0
C      1  0.5764630000000  0.4543240000000  0.5616570000000 1.0
C      1  0.5703900000000  0.5483950000000  0.4796080000000 1.0
C      1  0.4021180000000  0.5858090000000  0.5020280000000 1.0
C      1  0.5711990000000  0.4640180000000  0.4917880000000 1.0
C      1  0.6065290000000  0.4360100000000  0.4959180000000 1.0
C      1  0.3884480000000  0.5179220000000  0.5232180000000 1.0
C      1  0.4656610000000  0.6201990000000  0.4864230000000 1.0
C      1  0.4796250000000  0.5825240000000  0.4139750000000 1.0
C      1  0.5503390000000  0.4221110000000  0.4582990000000 1.0
C      1  0.4809150000000  0.5712120000000  0.3880190000000 1.0
C      1  0.4665130000000  0.4566860000000  0.4553050000000 1.0
C      1  0.5328340000000  0.4546640000000  0.5357430000000 1.0
C      1  0.5016350000000  0.5465130000000  0.6045940000000 1.0
C      1  0.5065620000000  0.6043530000000  0.5083050000000 1.0
C      1  0.5440560000000  0.5678510000000  0.4440260000000 1.0
C      1  0.4829700000000  0.4528180000000  0.5251660000000 1.0
C      1  0.4647060000000  0.5909670000000  0.5543160000000 1.0
C      1  0.4655980000000  0.4763300000000  0.5281780000000 1.0
C      1  0.4466060000000  0.5056200000000  0.4284880000000 1.0
C      1  0.4608230000000  0.4224040000000  0.5594640000000 1.0
C      1  0.4882420000000  0.3879000000000  0.4748600000000 1.0
C      1  0.4348910000000  0.5732350000000  0.4415970000000 1.0
C      1  0.4689800000000  0.4497630000000  0.4083680000000 1.0
C      1  0.6063730000000  0.4840600000000  0.5986320000000 1.0
C      1  0.6172860000000  0.5222940000000  0.5319590000000 1.0
C      1  0.4557000000000  0.5983160000000  0.5279570000000 1.0
C      1  0.4433510000000  0.4722410000000  0.4655960000000 1.0
C      1  0.5957750000000  0.4175140000000  0.4771780000000 1.0
C      1  0.5736670000000  0.4060360000000  0.4639370000000 1.0
C      1  0.5569630000000  0.5330590000000  0.5221400000000 1.0
C      1  0.5559760000000  0.4685500000000  0.5486240000000 1.0
C      1  0.4423870000000  0.5610120000000  0.4891800000000 1.0
C      1  0.4771260000000  0.4346130000000  0.4727850000000 1.0
C      1  0.3807240000000  0.6027020000000  0.5079510000000 1.0
C      1  0.4194900000000  0.4644950000000  0.5522490000000 1.0
C      1  0.4605650000000  0.5688270000000  0.4301080000000 1.0
C      1  0.3926790000000  0.5161080000000  0.4524020000000 1.0
C      1  0.5487350000000  0.5015140000000  0.4815810000000 1.0
C      1  0.4214230000000  0.4408170000000  0.4392610000000 1.0
C      1  0.4737050000000  0.3835230000000  0.4987220000000 1.0
C      1  0.5271910000000  0.5388590000000  0.5931130000000 1.0
C      1  0.4767050000000  0.5517950000000  0.5235530000000 1.0
C      1  0.4060300000000  0.5647260000000  0.5690610000000 1.0
C      1  0.4774360000000  0.6091670000000  0.5099230000000 1.0
C      1  0.5677550000000  0.5373760000000  0.5682040000000 1.0
C      1  0.5556240000000  0.4178210000000  0.6225190000000 1.0
C      1  0.4971340000000  0.4725600000000  0.5697440000000 1.0
C      1  0.4634960000000  0.5225630000000  0.3856740000000 1.0
C      1  0.5359040000000  0.4123500000000  0.5033240000000 1.0
C      1  0.4801700000000  0.5148670000000  0.5490170000000 1.0
C      1  0.4375750000000  0.5815350000000  0.4687170000000 1.0
C      1  0.5996050000000  0.4491470000000  0.5457190000000 1.0
C      1  0.5313790000000  0.5942370000000  0.5311930000000 1.0
C      1  0.5490110000000  0.5567820000000  0.5809130000000 1.0
C      1  0.5633250000000  0.4885080000000  0.5050320000000 1.0
C      1  0.4029430000000  0.4893640000000  0.4437590000000 1.0
C      1  0.4943510000000  0.5469240000000  0.4590380000000 1.0
C      1  0.5159190000000  0.4975020000000  0.4213150000000 1.0
C      1  0.5508800000000  0.5925550000000  0.4859510000000 1.0
C      1  0.5749720000000  0.4144770000000  0.5286810000000 1.0
C      1  0.5307440000000  0.5196110000000  0.5162210000000 1.0
C      1  0.4889780000000  0.5660980000000  0.5881770000000 1.0
C      1  0.4192620000000  0.4266970000000  0.4650710000000 1.0
C      1  0.4000060000000  0.5595730000000  0.4100510000000 1.0
C      1  0.5025990000000  0.3922990000000  0.5431620000000 1.0
C      1  0.5045190000000  0.4541190000000  0.5477470000000 1.0
C      1  0.4946790000000  0.4348290000000  0.4108990000000 1.0
C      1  0.5486050000000  0.4323850000000  0.4321350000000 1.0
C      1  0.4422280000000  0.4815000000000  0.5456310000000 1.0
C      1  0.5374580000000  0.4131110000000  0.5783660000000 1.0
C      1  0.4313300000000  0.4887880000000  0.4453600000000 1.0
C      1  0.4590150000000  0.4897280000000  0.5925240000000 1.0
C      1  0.5560450000000  0.5258910000000  0.4711410000000 1.0
C      1  0.4453000000000  0.3899380000000  0.4960640000000 1.0
C      1  0.5072580000000  0.5867220000000  0.5763840000000 1.0
C      1  0.5167110000000  0.4506850000000  0.4904580000000 1.0
C      1  0.6170530000000  0.5003100000000  0.5801330000000 1.0
C      1  0.4103600000000  0.5535180000000  0.5459100000000 1.0
C      1  0.4547180000000  0.4428860000000  0.5777630000000 1.0
C      1  0.5036870000000  0.5216420000000  0.4671520000000 1.0
C      1  0.4728210000000  0.4651110000000  0.5849630000000 1.0
C      1  0.3825210000000  0.4934170000000  0.5322220000000 1.0
C      1  0.3951380000000  0.5639560000000  0.4816230000000 1.0
C      1  0.4950910000000  0.4151780000000  0.4316550000000 1.0
C      1  0.4276060000000  0.5388300000000  0.5012410000000 1.0
C      1  0.5470460000000  0.5412630000000  0.4281630000000 1.0
C      1  0.4853380000000  0.5274850000000  0.6175000000000 1.0
C      1  0.4584270000000  0.4125370000000  0.5331950000000 1.0
C      1  0.4844650000000  0.5015070000000  0.4724780000000 1.0
C      1  0.5123780000000  0.4968560000000  0.5151520000000 1.0
C      1  0.5416590000000  0.4815530000000  0.4616490000000 1.0
C      1  0.4892700000000  0.4436950000000  0.4973550000000 1.0
C      1  0.6120200000000  0.5092150000000  0.4849800000000 1.0
C      1  0.5793500000000  0.5410390000000  0.5053810000000 1.0
C      1  0.5900710000000  0.4634890000000  0.6050960000000 1.0
END
