TITL C-627110-360-1128 0.640383062370131 125000 -703.364341839418 0 0 116 (C1) n - 1
REM
REM in /home/nfs/bkarasulu/CARBON/AIRSS/Generating-Clusters/LCBOP/Only-C1/SD-CG/FIRE-CG
REM
REM
REM
REM
REM
REM ./C.cell (11c1c37f851c82e70ff6c80c92926a4b)
REM AIRSS Version 0.9.1 bugfix July 2018 build 013d7b7c2542+ Fri, 06 Jul 2018 19:26:36 +0100
REM compiler GCC version 9.2.1 20190827 (Red Hat 9.2.1-1)
REM options -cpp -mtune=generic -march=x86-64 -g -O0 -fpre-include=/usr/include/finclude/math-vector-fortran.h
REM seed -80153232 -1040871113 -354934161 23293746 -1235678919 -791887544 -451767621 -925153500 -1414144101 1987421655 -1281933083 -1387383272 -422351423 -1664955840 -1569960625 1874212143 -1309053146 -1592931394 181497082 337865329 -1325508025 647721009 509387183 236264263 1613353739 39430176 -76240823 -1680598737 1273408722 469251054 -1183603464 -1154181908 -1908796000
REM
CELL 1.54180   50.00000   50.00000   50.00000   90.00000   90.00000   90.00000
LATT -1
SFAC C  
C      1  0.5034620000000  0.5053070000000  0.5458140000000 1.0
C      1  0.5132030000000  0.4276700000000  0.5164780000000 1.0
C      1  0.4627710000000  0.2711020000000  0.4719560000000 1.0
C      1  0.4982000000000  0.5140450000000  0.4262060000000 1.0
C      1  0.7038870000000  0.5944970000000  0.4256230000000 1.0
C      1  0.5325550000000  0.5530150000000  0.4787670000000 1.0
C      1  0.4708190000000  0.3460720000000  0.5010850000000 1.0
C      1  0.5875920000000  0.4893870000000  0.4702920000000 1.0
C      1  0.3967380000000  0.4981740000000  0.4676340000000 1.0
C      1  0.4954330000000  0.5357270000000  0.5853960000000 1.0
C      1  0.4037880000000  0.4796050000000  0.4898330000000 1.0
C      1  0.5078320000000  0.5159840000000  0.6022750000000 1.0
C      1  0.4852030000000  0.5604830000000  0.5159290000000 1.0
C      1  0.5821110000000  0.5476290000000  0.4256820000000 1.0
C      1  0.4355830000000  0.5655010000000  0.4937220000000 1.0
C      1  0.4634800000000  0.4192980000000  0.5370470000000 1.0
C      1  0.5148910000000  0.5465700000000  0.5664830000000 1.0
C      1  0.4823670000000  0.5555880000000  0.4369000000000 1.0
C      1  0.5152240000000  0.4430330000000  0.5820880000000 1.0
C      1  0.5979500000000  0.5329190000000  0.4450630000000 1.0
C      1  0.6609620000000  0.5693850000000  0.4439660000000 1.0
C      1  0.4680510000000  0.3202520000000  0.4910540000000 1.0
C      1  0.5277230000000  0.4545750000000  0.4327110000000 1.0
C      1  0.3877280000000  0.4903210000000  0.4431260000000 1.0
C      1  0.5447840000000  0.5254220000000  0.5267400000000 1.0
C      1  0.5146250000000  0.5735770000000  0.5592520000000 1.0
C      1  0.5244220000000  0.5787280000000  0.4902410000000 1.0
C      1  0.4880940000000  0.4082260000000  0.5496700000000 1.0
C      1  0.4380420000000  0.3861390000000  0.5120820000000 1.0
C      1  0.4122590000000  0.4878790000000  0.5624760000000 1.0
C      1  0.4727720000000  0.5914250000000  0.4728730000000 1.0
C      1  0.4707650000000  0.4472630000000  0.5348450000000 1.0
C      1  0.4506070000000  0.5476400000000  0.5588400000000 1.0
C      1  0.4698560000000  0.5299500000000  0.5724370000000 1.0
C      1  0.5847030000000  0.5289000000000  0.5713770000000 1.0
C      1  0.5807030000000  0.5110360000000  0.4541160000000 1.0
C      1  0.4601730000000  0.2469220000000  0.4625610000000 1.0
C      1  0.4868740000000  0.5140310000000  0.4540270000000 1.0
C      1  0.4453820000000  0.4607070000000  0.4716220000000 1.0
C      1  0.5095600000000  0.3773250000000  0.5175580000000 1.0
C      1  0.5004740000000  0.4223750000000  0.5718400000000 1.0
C      1  0.5003400000000  0.4754900000000  0.3968240000000 1.0
C      1  0.4679990000000  0.4766730000000  0.5975110000000 1.0
C      1  0.4936890000000  0.4658540000000  0.4929920000000 1.0
C      1  0.4664890000000  0.4718610000000  0.4874390000000 1.0
C      1  0.4341640000000  0.5623810000000  0.4485870000000 1.0
C      1  0.4163370000000  0.5710120000000  0.5139670000000 1.0
C      1  0.6168960000000  0.5437280000000  0.4628990000000 1.0
C      1  0.4435550000000  0.5179620000000  0.4752640000000 1.0
C      1  0.4083190000000  0.5462790000000  0.5270040000000 1.0
C      1  0.5785620000000  0.4873820000000  0.5443960000000 1.0
C      1  0.6824210000000  0.5819390000000  0.4347950000000 1.0
C      1  0.5308370000000  0.5012390000000  0.4876260000000 1.0
C      1  0.5740450000000  0.5750790000000  0.5507120000000 1.0
C      1  0.5280320000000  0.5227000000000  0.5517040000000 1.0
C      1  0.5254680000000  0.4944590000000  0.5926250000000 1.0
C      1  0.4492110000000  0.5201320000000  0.4270240000000 1.0
C      1  0.4097870000000  0.5471900000000  0.4578640000000 1.0
C      1  0.5072590000000  0.4026530000000  0.5286590000000 1.0
C      1  0.3991490000000  0.4968490000000  0.5128710000000 1.0
C      1  0.4125600000000  0.5147260000000  0.5647730000000 1.0
C      1  0.5536890000000  0.5210490000000  0.4491560000000 1.0
C      1  0.5031330000000  0.5425350000000  0.4199460000000 1.0
C      1  0.5166720000000  0.4771470000000  0.4799060000000 1.0
C      1  0.4218330000000  0.5391440000000  0.5530560000000 1.0
C      1  0.4066450000000  0.5955890000000  0.5203320000000 1.0
C      1  0.4216470000000  0.4562470000000  0.4883190000000 1.0
C      1  0.4899080000000  0.4693420000000  0.6115000000000 1.0
C      1  0.5269490000000  0.4625250000000  0.4581080000000 1.0
C      1  0.5177390000000  0.4585740000000  0.4082420000000 1.0
C      1  0.4565180000000  0.4856410000000  0.5099230000000 1.0
C      1  0.5300360000000  0.5495650000000  0.4159910000000 1.0
C      1  0.5712380000000  0.5043010000000  0.5662660000000 1.0
C      1  0.5145710000000  0.4676160000000  0.5969930000000 1.0
C      1  0.4854840000000  0.4967970000000  0.4071510000000 1.0
C      1  0.5430790000000  0.5046970000000  0.5721190000000 1.0
C      1  0.4465200000000  0.5786360000000  0.4705200000000 1.0
C      1  0.3985870000000  0.5270050000000  0.4764180000000 1.0
C      1  0.3986730000000  0.5258960000000  0.5075500000000 1.0
C      1  0.4431780000000  0.5376350000000  0.4945100000000 1.0
C      1  0.4670530000000  0.4806600000000  0.5697670000000 1.0
C      1  0.6395350000000  0.5568430000000  0.4531910000000 1.0
C      1  0.6338790000000  0.5395100000000  0.5081170000000 1.0
C      1  0.4598360000000  0.5055770000000  0.5284780000000 1.0
C      1  0.4260400000000  0.4660710000000  0.5541390000000 1.0
C      1  0.4252010000000  0.4336580000000  0.5063910000000 1.0
C      1  0.4959800000000  0.3566650000000  0.5076170000000 1.0
C      1  0.4997780000000  0.5917410000000  0.4797180000000 1.0
C      1  0.4886710000000  0.5421660000000  0.4637050000000 1.0
C      1  0.4409850000000  0.4129570000000  0.5198020000000 1.0
C      1  0.5847820000000  0.4788860000000  0.4948720000000 1.0
C      1  0.5358550000000  0.5847020000000  0.5167680000000 1.0
C      1  0.4454210000000  0.4727580000000  0.4195980000000 1.0
C      1  0.4541800000000  0.4624760000000  0.5527010000000 1.0
C      1  0.5693740000000  0.4853940000000  0.5174830000000 1.0
C      1  0.4485780000000  0.3627110000000  0.5051360000000 1.0
C      1  0.7249990000000  0.6068480000000  0.4166010000000 1.0
C      1  0.5540980000000  0.5408050000000  0.4272380000000 1.0
C      1  0.4643260000000  0.5526890000000  0.5334730000000 1.0
C      1  0.5188320000000  0.5904740000000  0.5386770000000 1.0
C      1  0.5598480000000  0.5716300000000  0.5262340000000 1.0
C      1  0.4567530000000  0.4973670000000  0.4104270000000 1.0
C      1  0.4654120000000  0.2956850000000  0.4815080000000 1.0
C      1  0.5363790000000  0.5250230000000  0.4713620000000 1.0
C      1  0.4897770000000  0.5492510000000  0.4911800000000 1.0
C      1  0.4538700000000  0.5304730000000  0.5187060000000 1.0
C      1  0.4747860000000  0.5048260000000  0.5549600000000 1.0
C      1  0.5459670000000  0.5010380000000  0.5117230000000 1.0
C      1  0.4949400000000  0.4498600000000  0.5168500000000 1.0
C      1  0.6124360000000  0.5413250000000  0.4911200000000 1.0
C      1  0.5863940000000  0.5402190000000  0.5017900000000 1.0
C      1  0.4533680000000  0.5495620000000  0.4306010000000 1.0
C      1  0.5632770000000  0.5451080000000  0.5170450000000 1.0
C      1  0.4582620000000  0.5102180000000  0.4534990000000 1.0
C      1  0.5839950000000  0.5555490000000  0.5668400000000 1.0
C      1  0.4442720000000  0.4600620000000  0.4434550000000 1.0
END
