TITL C-627113-6568-18 -1287.64267851002 125000 -197.599890049978 0 0 34 (C1) n - 1
REM
REM in /home/nfs/bkarasulu/CARBON/AIRSS/Generating-Clusters/LCBOP/Only-C1/SD-CG/FIRE-CG
REM
REM
REM
REM
REM
REM ./C.cell (11c1c37f851c82e70ff6c80c92926a4b)
REM AIRSS Version 0.9.1 bugfix July 2018 build 013d7b7c2542+ Fri, 06 Jul 2018 19:26:36 +0100
REM compiler GCC version 9.2.1 20190827 (Red Hat 9.2.1-1)
REM options -cpp -mtune=generic -march=x86-64 -g -O0 -fpre-include=/usr/include/finclude/math-vector-fortran.h
REM seed -1707720558 -1729462585 1980446488 -516233360 114147567 -1700284639 2128790531 434798353 104320859 -1522018050 1054645036 989286508 -1293328047 -1434943618 -1221970757 -1607490788 2074238455 685505327 -1511042196 -578861545 1918707160 1792254590 -1934044903 1013873868 1395468685 -202976074 -1674980300 -1702368103 -1010659907 -1289763871 1763327197 -551037318 -2035743688
REM
CELL 1.54180   50.00000   50.00000   50.00000   90.00000   90.00000   90.00000
LATT -1
SFAC C  
C      1  0.4070790000000  0.4987260000000  0.4538790000000 1.0
C      1  0.5044280000000  0.5385070000000  0.5489630000000 1.0
C      1  0.3839650000000  0.5941790000000  0.4748630000000 1.0
C      1  0.5936180000000  0.5077660000000  0.5157860000000 1.0
C      1  0.5457860000000  0.4812720000000  0.4958670000000 1.0
C      1  0.5492880000000  0.4301390000000  0.5012910000000 1.0
C      1  0.4770000000000  0.4259190000000  0.4701070000000 1.0
C      1  0.5720970000000  0.5198570000000  0.5050590000000 1.0
C      1  0.5586770000000  0.4577160000000  0.5034590000000 1.0
C      1  0.3998660000000  0.5237610000000  0.4587670000000 1.0
C      1  0.5373370000000  0.5005420000000  0.5656310000000 1.0
C      1  0.5857220000000  0.4579170000000  0.5156630000000 1.0
C      1  0.4189290000000  0.4750340000000  0.4528880000000 1.0
C      1  0.4648960000000  0.5659410000000  0.5271050000000 1.0
C      1  0.4863590000000  0.5478630000000  0.4602820000000 1.0
C      1  0.5073610000000  0.5376480000000  0.4728210000000 1.0
C      1  0.4434750000000  0.5737130000000  0.5135700000000 1.0
C      1  0.5516330000000  0.4796470000000  0.5734730000000 1.0
C      1  0.5651600000000  0.4588660000000  0.5815210000000 1.0
C      1  0.4010010000000  0.5734380000000  0.4800450000000 1.0
C      1  0.4854200000000  0.5539410000000  0.5388200000000 1.0
C      1  0.4546660000000  0.4373830000000  0.4615900000000 1.0
C      1  0.5707400000000  0.4141350000000  0.5122320000000 1.0
C      1  0.4350060000000  0.4541330000000  0.4556140000000 1.0
C      1  0.3976440000000  0.5487180000000  0.4673880000000 1.0
C      1  0.5480140000000  0.5093560000000  0.4947090000000 1.0
C      1  0.4660360000000  0.5571840000000  0.4468780000000 1.0
C      1  0.5216850000000  0.5204410000000  0.5578030000000 1.0
C      1  0.4221490000000  0.5765230000000  0.4980980000000 1.0
C      1  0.5279680000000  0.5253950000000  0.4840860000000 1.0
C      1  0.5917090000000  0.4301820000000  0.5204780000000 1.0
C      1  0.5009020000000  0.4205550000000  0.4802400000000 1.0
C      1  0.5251350000000  0.4217550000000  0.4908950000000 1.0
C      1  0.5992470000000  0.4818460000000  0.5201280000000 1.0
END
