TITL C-627108-131-514 -1.75066897581187e-08 125000 -202.961386159103 0 0 35 (C1) n - 1
REM
REM in /home/nfs/bkarasulu/CARBON/AIRSS/Generating-Clusters/LCBOP/Only-C1/SD-CG/FIRE-CG
REM
REM
REM
REM
REM
REM ./C.cell (11c1c37f851c82e70ff6c80c92926a4b)
REM AIRSS Version 0.9.1 bugfix July 2018 build 013d7b7c2542+ Fri, 06 Jul 2018 19:26:36 +0100
REM compiler GCC version 9.2.1 20190827 (Red Hat 9.2.1-1)
REM options -cpp -mtune=generic -march=x86-64 -g -O0 -fpre-include=/usr/include/finclude/math-vector-fortran.h
REM seed 2139877201 -1046206497 909736101 -527840238 -2056743008 -1109303308 -90292845 547658243 2044768277 2100658739 1038876983 1512441872 -1576412473 -2137387100 1113332325 997178262 -378837332 1916858124 -1611760477 -411448874 1396006030 -1605610625 1362436336 -1066801771 -13077234 220017863 -1780018321 -902650511 -1260308675 244929765 375058610 1736535408 -704504170
REM
CELL 1.54180   50.00000   50.00000   50.00000   90.00000   90.00000   90.00000
LATT -1
SFAC C  
C      1  0.4617080000000  0.5105770000000  0.4712770000000 1.0
C      1  0.5069820000000  0.4894090000000  0.5338120000000 1.0
C      1  0.5113640000000  0.5350390000000  0.4663320000000 1.0
C      1  0.4541050000000  0.5776510000000  0.5156540000000 1.0
C      1  0.5045020000000  0.4423830000000  0.4957880000000 1.0
C      1  0.5004020000000  0.4905480000000  0.5062880000000 1.0
C      1  0.5399470000000  0.5272980000000  0.4660260000000 1.0
C      1  0.5048280000000  0.5591750000000  0.4794430000000 1.0
C      1  0.5006310000000  0.4914130000000  0.4779310000000 1.0
C      1  0.5523580000000  0.4915790000000  0.5183810000000 1.0
C      1  0.5438340000000  0.5416110000000  0.5260770000000 1.0
C      1  0.4692920000000  0.5191910000000  0.5446870000000 1.0
C      1  0.4619470000000  0.5297900000000  0.5193170000000 1.0
C      1  0.4760750000000  0.4504750000000  0.4860540000000 1.0
C      1  0.4482800000000  0.4834370000000  0.5100710000000 1.0
C      1  0.5208490000000  0.5553830000000  0.5239530000000 1.0
C      1  0.5148830000000  0.4717350000000  0.4623080000000 1.0
C      1  0.5489070000000  0.4996580000000  0.4677890000000 1.0
C      1  0.4637860000000  0.4611130000000  0.4625150000000 1.0
C      1  0.4988450000000  0.4339220000000  0.5231190000000 1.0
C      1  0.5589200000000  0.5469540000000  0.4625180000000 1.0
C      1  0.4539700000000  0.4862790000000  0.4573190000000 1.0
C      1  0.4621850000000  0.4382290000000  0.5569790000000 1.0
C      1  0.5581220000000  0.5192350000000  0.5214060000000 1.0
C      1  0.4711710000000  0.5563360000000  0.5140350000000 1.0
C      1  0.5488970000000  0.4799630000000  0.4920470000000 1.0
C      1  0.4609280000000  0.4578230000000  0.5108110000000 1.0
C      1  0.4730040000000  0.4429740000000  0.5325680000000 1.0
C      1  0.5359570000000  0.4833240000000  0.4469400000000 1.0
C      1  0.4904000000000  0.5154380000000  0.4672660000000 1.0
C      1  0.4890770000000  0.5020770000000  0.5512550000000 1.0
C      1  0.5339050000000  0.4823860000000  0.5380970000000 1.0
C      1  0.4534460000000  0.5102480000000  0.4997110000000 1.0
C      1  0.5278080000000  0.4572490000000  0.4851620000000 1.0
C      1  0.4986840000000  0.5600970000000  0.5070660000000 1.0
END
