TITL C-627111-6168-631 -4.23730382703187e-07 125000 -496.549629076718 0 0 82 (C1) n - 1
REM
REM in /home/nfs/bkarasulu/CARBON/AIRSS/Generating-Clusters/LCBOP/Only-C1/SD-CG/FIRE-CG
REM
REM
REM
REM
REM
REM ./C.cell (11c1c37f851c82e70ff6c80c92926a4b)
REM AIRSS Version 0.9.1 bugfix July 2018 build 013d7b7c2542+ Fri, 06 Jul 2018 19:26:36 +0100
REM compiler GCC version 9.2.1 20190827 (Red Hat 9.2.1-1)
REM options -cpp -mtune=generic -march=x86-64 -g -O0 -fpre-include=/usr/include/finclude/math-vector-fortran.h
REM seed -1852349943 626257765 10644783 -938950358 1390277691 1319530653 -555917499 862923772 947841439 -1451439093 -1921634291 -515276594 -520947446 -450879867 171628498 2134577561 1652202124 29647755 1795497406 -1273905231 -210120817 1046046418 -963862591 1984259431 -1757658647 462251053 1051791856 323502110 -1307025119 -559766500 -990164933 -1105897562 1735578023
REM
CELL 1.54180   50.00000   50.00000   50.00000   90.00000   90.00000   90.00000
LATT -1
SFAC C  
C      1  0.5323540000000  0.5481100000000  0.4605620000000 1.0
C      1  0.5205550000000  0.5576620000000  0.4367330000000 1.0
C      1  0.5118440000000  0.4569150000000  0.4137350000000 1.0
C      1  0.4698260000000  0.5629530000000  0.4756180000000 1.0
C      1  0.5451320000000  0.5760040000000  0.5242400000000 1.0
C      1  0.5196280000000  0.4863290000000  0.5731160000000 1.0
C      1  0.4606880000000  0.5329390000000  0.4383050000000 1.0
C      1  0.5385370000000  0.5802350000000  0.4972190000000 1.0
C      1  0.5315300000000  0.5642260000000  0.5457380000000 1.0
C      1  0.5532270000000  0.5258220000000  0.6332690000000 1.0
C      1  0.4433970000000  0.5635340000000  0.4856880000000 1.0
C      1  0.5470860000000  0.4260870000000  0.4699680000000 1.0
C      1  0.4432360000000  0.4643130000000  0.5127050000000 1.0
C      1  0.5484690000000  0.5274040000000  0.5813020000000 1.0
C      1  0.4939710000000  0.5046950000000  0.6170490000000 1.0
C      1  0.5660680000000  0.4977370000000  0.4527900000000 1.0
C      1  0.5798130000000  0.5071780000000  0.4981460000000 1.0
C      1  0.5571710000000  0.6223920000000  0.4692250000000 1.0
C      1  0.4237540000000  0.5058130000000  0.4693970000000 1.0
C      1  0.5041260000000  0.5608760000000  0.5410500000000 1.0
C      1  0.5206960000000  0.4920220000000  0.4750970000000 1.0
C      1  0.5023770000000  0.4958780000000  0.4953640000000 1.0
C      1  0.5137280000000  0.5013970000000  0.4497210000000 1.0
C      1  0.4300630000000  0.4521820000000  0.4611240000000 1.0
C      1  0.5380840000000  0.4680300000000  0.4187890000000 1.0
C      1  0.4433600000000  0.4305530000000  0.4787040000000 1.0
C      1  0.4662120000000  0.5085850000000  0.5230210000000 1.0
C      1  0.4930430000000  0.5597500000000  0.4927940000000 1.0
C      1  0.4995110000000  0.4092330000000  0.4268890000000 1.0
C      1  0.4553740000000  0.4894060000000  0.5047710000000 1.0
C      1  0.4719250000000  0.5571240000000  0.4481460000000 1.0
C      1  0.5483720000000  0.6023580000000  0.4833780000000 1.0
C      1  0.5861370000000  0.4923570000000  0.4741010000000 1.0
C      1  0.5191270000000  0.4602110000000  0.5576510000000 1.0
C      1  0.5236800000000  0.4205150000000  0.4867510000000 1.0
C      1  0.4888270000000  0.4732310000000  0.4197410000000 1.0
C      1  0.5587850000000  0.5282630000000  0.6072660000000 1.0
C      1  0.5749320000000  0.4983260000000  0.5242310000000 1.0
C      1  0.4400620000000  0.5138030000000  0.4459410000000 1.0
C      1  0.4103300000000  0.5088610000000  0.5219110000000 1.0
C      1  0.4997480000000  0.4414620000000  0.5668870000000 1.0
C      1  0.4740720000000  0.4500370000000  0.5641700000000 1.0
C      1  0.5318370000000  0.4667150000000  0.4808980000000 1.0
C      1  0.5430810000000  0.5026400000000  0.5681640000000 1.0
C      1  0.5087100000000  0.4291440000000  0.4115020000000 1.0
C      1  0.4871950000000  0.5531270000000  0.5202580000000 1.0
C      1  0.4949680000000  0.5662430000000  0.4341280000000 1.0
C      1  0.4703140000000  0.4770590000000  0.5574260000000 1.0
C      1  0.4796760000000  0.5206190000000  0.4206650000000 1.0
C      1  0.4279900000000  0.5466140000000  0.5019110000000 1.0
C      1  0.5072100000000  0.5105120000000  0.6394040000000 1.0
C      1  0.4403230000000  0.5122180000000  0.5683450000000 1.0
C      1  0.4186800000000  0.4771030000000  0.4682620000000 1.0
C      1  0.4842300000000  0.4928290000000  0.5378950000000 1.0
C      1  0.5209890000000  0.5615410000000  0.4841340000000 1.0
C      1  0.4493090000000  0.4458280000000  0.4376290000000 1.0
C      1  0.4786370000000  0.4806910000000  0.4895860000000 1.0
C      1  0.5077970000000  0.4888900000000  0.5229090000000 1.0
C      1  0.6081170000000  0.4765710000000  0.4709180000000 1.0
C      1  0.4570320000000  0.4414450000000  0.5008210000000 1.0
C      1  0.5150450000000  0.4469420000000  0.5002500000000 1.0
C      1  0.4435060000000  0.4913670000000  0.4270010000000 1.0
C      1  0.4655500000000  0.5363500000000  0.5261770000000 1.0
C      1  0.4167620000000  0.5202780000000  0.4942700000000 1.0
C      1  0.5314580000000  0.5187300000000  0.6471960000000 1.0
C      1  0.4621750000000  0.4208580000000  0.4539060000000 1.0
C      1  0.5496680000000  0.4536570000000  0.4626520000000 1.0
C      1  0.5032650000000  0.4047160000000  0.4749560000000 1.0
C      1  0.4841690000000  0.4517220000000  0.4947810000000 1.0
C      1  0.4604660000000  0.4681260000000  0.4245110000000 1.0
C      1  0.5674420000000  0.5310830000000  0.4887020000000 1.0
C      1  0.4868950000000  0.4084020000000  0.4520980000000 1.0
C      1  0.5198720000000  0.4623960000000  0.5281750000000 1.0
C      1  0.5547860000000  0.4728570000000  0.4415000000000 1.0
C      1  0.5436460000000  0.5510020000000  0.5669890000000 1.0
C      1  0.4250950000000  0.5219610000000  0.5446420000000 1.0
C      1  0.4644380000000  0.4972790000000  0.5771200000000 1.0
C      1  0.5610810000000  0.4961510000000  0.5470650000000 1.0
C      1  0.4964970000000  0.4995530000000  0.4277890000000 1.0
C      1  0.4382370000000  0.5440560000000  0.5294930000000 1.0
C      1  0.5535920000000  0.5289330000000  0.4635870000000 1.0
C      1  0.4914030000000  0.4989840000000  0.5899840000000 1.0
END
