TITL C-627108-131-266 -1.34098244333664e-06 125000 -312.737246141948 0 0 53 (C1) n - 1
REM
REM in /home/nfs/bkarasulu/CARBON/AIRSS/Generating-Clusters/LCBOP/Only-C1/SD-CG/FIRE-CG
REM
REM
REM
REM
REM
REM ./C.cell (11c1c37f851c82e70ff6c80c92926a4b)
REM AIRSS Version 0.9.1 bugfix July 2018 build 013d7b7c2542+ Fri, 06 Jul 2018 19:26:36 +0100
REM compiler GCC version 9.2.1 20190827 (Red Hat 9.2.1-1)
REM options -cpp -mtune=generic -march=x86-64 -g -O0 -fpre-include=/usr/include/finclude/math-vector-fortran.h
REM seed -1834673193 1988458822 -1813086287 -1878504300 611894778 -1767022539 788103605 2085600610 947538182 -1601847741 -375945953 -363869889 -240661579 1348481059 1151883765 1000166951 -159636858 -1539364868 -2085988220 1550456953 821602550 -610922113 -710272200 -2089822561 -296374135 1639802139 -106482844 1435594088 -428520921 532330690 -2038019140 1020899704 887005150
REM
CELL 1.54180   50.00000   50.00000   50.00000   90.00000   90.00000   90.00000
LATT -1
SFAC C  
C      1  0.5050980000000  0.6074510000000  0.4489260000000 1.0
C      1  0.4751640000000  0.4733710000000  0.4165280000000 1.0
C      1  0.4429440000000  0.4640360000000  0.4815000000000 1.0
C      1  0.5020270000000  0.6330350000000  0.4450180000000 1.0
C      1  0.5098890000000  0.5131850000000  0.4120360000000 1.0
C      1  0.4969860000000  0.4392640000000  0.4419930000000 1.0
C      1  0.4708920000000  0.5665240000000  0.5818520000000 1.0
C      1  0.5633860000000  0.4659900000000  0.4719590000000 1.0
C      1  0.4346520000000  0.4899510000000  0.5416390000000 1.0
C      1  0.5083600000000  0.5800400000000  0.4532420000000 1.0
C      1  0.5128390000000  0.4762010000000  0.5096520000000 1.0
C      1  0.5190260000000  0.5559400000000  0.5292930000000 1.0
C      1  0.4932290000000  0.4361000000000  0.4952080000000 1.0
C      1  0.4563200000000  0.4752230000000  0.5315420000000 1.0
C      1  0.4519550000000  0.4582060000000  0.5081790000000 1.0
C      1  0.5741870000000  0.4701090000000  0.4986190000000 1.0
C      1  0.5051580000000  0.4656090000000  0.5349100000000 1.0
C      1  0.4904770000000  0.5014800000000  0.5601020000000 1.0
C      1  0.5479230000000  0.4584830000000  0.5550970000000 1.0
C      1  0.5241180000000  0.4464700000000  0.5452610000000 1.0
C      1  0.5571640000000  0.4981100000000  0.4313600000000 1.0
C      1  0.5037180000000  0.5399640000000  0.4174600000000 1.0
C      1  0.5002110000000  0.4636320000000  0.4881260000000 1.0
C      1  0.4822000000000  0.4787930000000  0.5450110000000 1.0
C      1  0.5981330000000  0.4590310000000  0.5058610000000 1.0
C      1  0.4212390000000  0.5086430000000  0.5548520000000 1.0
C      1  0.5589210000000  0.4861550000000  0.5169650000000 1.0
C      1  0.5142290000000  0.5175650000000  0.5592600000000 1.0
C      1  0.5197320000000  0.5636940000000  0.5039030000000 1.0
C      1  0.4896920000000  0.4940980000000  0.4078660000000 1.0
C      1  0.4803030000000  0.5067830000000  0.4657390000000 1.0
C      1  0.5156790000000  0.5707210000000  0.4786240000000 1.0
C      1  0.5402480000000  0.5058050000000  0.5579690000000 1.0
C      1  0.5679940000000  0.4857400000000  0.4523370000000 1.0
C      1  0.4675080000000  0.4344100000000  0.5070590000000 1.0
C      1  0.5105650000000  0.5452850000000  0.5537600000000 1.0
C      1  0.5227850000000  0.4381620000000  0.4501100000000 1.0
C      1  0.4912560000000  0.4828630000000  0.4698350000000 1.0
C      1  0.4157700000000  0.5299120000000  0.5697360000000 1.0
C      1  0.5554700000000  0.4845450000000  0.5459420000000 1.0
C      1  0.3980280000000  0.5648980000000  0.5976750000000 1.0
C      1  0.4191750000000  0.5531970000000  0.5849400000000 1.0
C      1  0.5364260000000  0.5050390000000  0.4162080000000 1.0
C      1  0.4449090000000  0.5641180000000  0.5866910000000 1.0
C      1  0.4729360000000  0.4541320000000  0.4371720000000 1.0
C      1  0.5339780000000  0.4939310000000  0.5059420000000 1.0
C      1  0.4941990000000  0.5603240000000  0.5707520000000 1.0
C      1  0.4518890000000  0.4570800000000  0.4565780000000 1.0
C      1  0.5042700000000  0.5620560000000  0.4321860000000 1.0
C      1  0.5242780000000  0.4220720000000  0.5308840000000 1.0
C      1  0.4648500000000  0.5277760000000  0.4664720000000 1.0
C      1  0.5127550000000  0.4188480000000  0.5064970000000 1.0
C      1  0.5448580000000  0.4459480000000  0.4636690000000 1.0
END
