TITL C-627107-135-980 9.05701434199714e-08 125000 -951.904084989798 0 0 155 (C1) n - 1
REM
REM in /home/nfs/bkarasulu/CARBON/AIRSS/Generating-Clusters/LCBOP/Only-C1/SD-CG/FIRE-CG
REM
REM
REM
REM
REM
REM ./C.cell (11c1c37f851c82e70ff6c80c92926a4b)
REM AIRSS Version 0.9.1 bugfix July 2018 build 013d7b7c2542+ Fri, 06 Jul 2018 19:26:36 +0100
REM compiler GCC version 9.2.1 20190827 (Red Hat 9.2.1-1)
REM options -cpp -mtune=generic -march=x86-64 -g -O0 -fpre-include=/usr/include/finclude/math-vector-fortran.h
REM seed -949224820 1232753502 -1072672860 165249530 -1163193186 -27296421 -643615181 -1614836958 2083477969 -315806556 1688258504 2107478970 2025050294 1316764168 -446670630 -1631112109 659624316 936736541 -426914282 -957507279 -1983917095 -636599142 2023142076 913255803 -1186524696 1299070906 1678879572 -1819779955 581973486 -1134078741 -189839005 888850181 -2040851239
REM
CELL 1.54180   50.00000   50.00000   50.00000   90.00000   90.00000   90.00000
LATT -1
SFAC C  
C      1  0.5015000000000  0.5070050000000  0.4656730000000 1.0
C      1  0.5578650000000  0.4032200000000  0.4970260000000 1.0
C      1  0.4633920000000  0.4706210000000  0.4519290000000 1.0
C      1  0.4805460000000  0.4573300000000  0.4296000000000 1.0
C      1  0.4398810000000  0.4745240000000  0.5995080000000 1.0
C      1  0.5468900000000  0.4031740000000  0.5445950000000 1.0
C      1  0.4156200000000  0.4626530000000  0.4163710000000 1.0
C      1  0.4608420000000  0.5161920000000  0.3490690000000 1.0
C      1  0.5284200000000  0.5161660000000  0.6015270000000 1.0
C      1  0.5163800000000  0.6027580000000  0.4745010000000 1.0
C      1  0.4121570000000  0.4879670000000  0.4801240000000 1.0
C      1  0.4466100000000  0.4933620000000  0.4482290000000 1.0
C      1  0.5257280000000  0.4027930000000  0.4549370000000 1.0
C      1  0.4415040000000  0.4716340000000  0.5157270000000 1.0
C      1  0.4548910000000  0.5724640000000  0.4354290000000 1.0
C      1  0.4363090000000  0.4785760000000  0.4046730000000 1.0
C      1  0.4572130000000  0.4139850000000  0.4424260000000 1.0
C      1  0.4922280000000  0.4924220000000  0.5174030000000 1.0
C      1  0.5099240000000  0.5557470000000  0.4546610000000 1.0
C      1  0.4544830000000  0.4485470000000  0.5006440000000 1.0
C      1  0.4816470000000  0.4271440000000  0.4348430000000 1.0
C      1  0.5027460000000  0.4696550000000  0.5291890000000 1.0
C      1  0.4925750000000  0.5156210000000  0.4161050000000 1.0
C      1  0.5543380000000  0.5967060000000  0.4238930000000 1.0
C      1  0.4302620000000  0.5392360000000  0.5610720000000 1.0
C      1  0.4295910000000  0.4008050000000  0.4967370000000 1.0
C      1  0.4633440000000  0.4661190000000  0.4034260000000 1.0
C      1  0.5610080000000  0.5902070000000  0.4508390000000 1.0
C      1  0.4303200000000  0.4982410000000  0.5908070000000 1.0
C      1  0.4279050000000  0.5132270000000  0.4373590000000 1.0
C      1  0.4112000000000  0.5289850000000  0.4570830000000 1.0
C      1  0.5165800000000  0.5944080000000  0.5698050000000 1.0
C      1  0.5101640000000  0.4706270000000  0.4323490000000 1.0
C      1  0.4706470000000  0.4660110000000  0.4793330000000 1.0
C      1  0.3944280000000  0.5325090000000  0.5240400000000 1.0
C      1  0.4506130000000  0.5595450000000  0.5666920000000 1.0
C      1  0.4742870000000  0.4594720000000  0.3785610000000 1.0
C      1  0.4151190000000  0.5459270000000  0.5376180000000 1.0
C      1  0.5890700000000  0.5098050000000  0.4693010000000 1.0
C      1  0.3327920000000  0.4277470000000  0.4934010000000 1.0
C      1  0.4481060000000  0.4734630000000  0.5433140000000 1.0
C      1  0.5033190000000  0.6126240000000  0.4998170000000 1.0
C      1  0.5841670000000  0.5553190000000  0.4865670000000 1.0
C      1  0.6078670000000  0.4797940000000  0.5252500000000 1.0
C      1  0.4322600000000  0.4298170000000  0.4941700000000 1.0
C      1  0.4223910000000  0.5670380000000  0.4943600000000 1.0
C      1  0.5313820000000  0.5786730000000  0.5186060000000 1.0
C      1  0.5111680000000  0.4698490000000  0.5550420000000 1.0
C      1  0.4597370000000  0.4574800000000  0.5884900000000 1.0
C      1  0.4869910000000  0.5541090000000  0.5077160000000 1.0
C      1  0.5134920000000  0.5321960000000  0.4704170000000 1.0
C      1  0.5005130000000  0.5477470000000  0.5585540000000 1.0
C      1  0.5857810000000  0.5499230000000  0.4377790000000 1.0
C      1  0.5152400000000  0.5718920000000  0.4080300000000 1.0
C      1  0.5314570000000  0.4580940000000  0.4834240000000 1.0
C      1  0.5649030000000  0.4122930000000  0.5232970000000 1.0
C      1  0.5222240000000  0.5549840000000  0.4296620000000 1.0
C      1  0.6195110000000  0.5032640000000  0.5134060000000 1.0
C      1  0.5281520000000  0.5365820000000  0.4935600000000 1.0
C      1  0.3977390000000  0.5122690000000  0.4763340000000 1.0
C      1  0.5152700000000  0.4390350000000  0.4955300000000 1.0
C      1  0.4787810000000  0.5287890000000  0.5984000000000 1.0
C      1  0.5438290000000  0.4145180000000  0.5703840000000 1.0
C      1  0.5305880000000  0.4593500000000  0.4545740000000 1.0
C      1  0.3586040000000  0.4241670000000  0.4935920000000 1.0
C      1  0.5014980000000  0.4994820000000  0.4380610000000 1.0
C      1  0.5273810000000  0.4748210000000  0.6180140000000 1.0
C      1  0.5337730000000  0.5931550000000  0.4063820000000 1.0
C      1  0.4375580000000  0.5130730000000  0.5679820000000 1.0
C      1  0.4870820000000  0.5319550000000  0.3932990000000 1.0
C      1  0.4990620000000  0.5092010000000  0.6038820000000 1.0
C      1  0.4078690000000  0.4616060000000  0.4679500000000 1.0
C      1  0.5977290000000  0.5530240000000  0.5137180000000 1.0
C      1  0.4659580000000  0.4281810000000  0.5461360000000 1.0
C      1  0.5441940000000  0.4913660000000  0.6003380000000 1.0
C      1  0.4964780000000  0.5589250000000  0.3917030000000 1.0
C      1  0.5607530000000  0.6069030000000  0.4944140000000 1.0
C      1  0.5551730000000  0.4859940000000  0.4093870000000 1.0
C      1  0.4990620000000  0.4447260000000  0.5167490000000 1.0
C      1  0.5575790000000  0.5874090000000  0.5128400000000 1.0
C      1  0.5740540000000  0.5279660000000  0.4840720000000 1.0
C      1  0.4291160000000  0.5672270000000  0.5225840000000 1.0
C      1  0.5304230000000  0.4745680000000  0.4091620000000 1.0
C      1  0.4472360000000  0.3848690000000  0.4820650000000 1.0
C      1  0.4482080000000  0.5555670000000  0.4554800000000 1.0
C      1  0.4997150000000  0.6004090000000  0.5468500000000 1.0
C      1  0.6168970000000  0.5304700000000  0.5126390000000 1.0
C      1  0.4010320000000  0.3969360000000  0.4996520000000 1.0
C      1  0.5060380000000  0.4136130000000  0.4402360000000 1.0
C      1  0.4987370000000  0.4797370000000  0.6116610000000 1.0
C      1  0.5445430000000  0.5858940000000  0.5657150000000 1.0
C      1  0.5259330000000  0.3839830000000  0.5389820000000 1.0
C      1  0.5797560000000  0.4620720000000  0.4883470000000 1.0
C      1  0.4759020000000  0.5109820000000  0.5332330000000 1.0
C      1  0.5734810000000  0.5012000000000  0.4252750000000 1.0
C      1  0.5512010000000  0.5226230000000  0.4990700000000 1.0
C      1  0.5164180000000  0.6028030000000  0.5235110000000 1.0
C      1  0.5312100000000  0.3603590000000  0.5262420000000 1.0
C      1  0.5269230000000  0.4337690000000  0.5819190000000 1.0
C      1  0.4731680000000  0.4349690000000  0.5192840000000 1.0
C      1  0.5162820000000  0.5551840000000  0.5110710000000 1.0
C      1  0.4783190000000  0.4044350000000  0.5548410000000 1.0
C      1  0.5533870000000  0.4675240000000  0.4998830000000 1.0
C      1  0.4733270000000  0.5216240000000  0.3712990000000 1.0
C      1  0.4852700000000  0.4561230000000  0.6014260000000 1.0
C      1  0.4998480000000  0.5790410000000  0.4678620000000 1.0
C      1  0.4323460000000  0.4273070000000  0.4416580000000 1.0
C      1  0.5503930000000  0.5092200000000  0.5232170000000 1.0
C      1  0.5868740000000  0.4315020000000  0.5243750000000 1.0
C      1  0.4722840000000  0.5955280000000  0.5344770000000 1.0
C      1  0.4297220000000  0.5066130000000  0.4093170000000 1.0
C      1  0.5438100000000  0.3993640000000  0.4744880000000 1.0
C      1  0.5575480000000  0.4520930000000  0.4463700000000 1.0
C      1  0.4353490000000  0.4931510000000  0.4973760000000 1.0
C      1  0.4797550000000  0.5755600000000  0.4897410000000 1.0
C      1  0.4702180000000  0.5316530000000  0.5136220000000 1.0
C      1  0.5695490000000  0.5297280000000  0.4258770000000 1.0
C      1  0.4611950000000  0.5330770000000  0.4665650000000 1.0
C      1  0.5795360000000  0.5683590000000  0.4595050000000 1.0
C      1  0.4582400000000  0.3905060000000  0.4581340000000 1.0
C      1  0.5392650000000  0.5403220000000  0.6081170000000 1.0
C      1  0.4061240000000  0.4407060000000  0.4871510000000 1.0
C      1  0.5796580000000  0.4645990000000  0.4595060000000 1.0
C      1  0.4856810000000  0.4515300000000  0.3565110000000 1.0
C      1  0.5029080000000  0.5913290000000  0.5941670000000 1.0
C      1  0.5308770000000  0.4592620000000  0.5709050000000 1.0
C      1  0.5671550000000  0.5741110000000  0.5549150000000 1.0
C      1  0.5967030000000  0.4559250000000  0.5111910000000 1.0
C      1  0.4594840000000  0.5142000000000  0.4900650000000 1.0
C      1  0.5028250000000  0.4333530000000  0.5972850000000 1.0
C      1  0.5866430000000  0.5562660000000  0.5418520000000 1.0
C      1  0.4222200000000  0.5546060000000  0.4680550000000 1.0
C      1  0.3859990000000  0.4209790000000  0.4934520000000 1.0
C      1  0.6204060000000  0.5050220000000  0.5880350000000 1.0
C      1  0.6041580000000  0.5087080000000  0.5663380000000 1.0
C      1  0.4841650000000  0.4930120000000  0.4878380000000 1.0
C      1  0.4999350000000  0.3895420000000  0.5489570000000 1.0
C      1  0.5549300000000  0.4814190000000  0.5254730000000 1.0
C      1  0.5956030000000  0.5347620000000  0.5589980000000 1.0
C      1  0.5954940000000  0.4862050000000  0.5508040000000 1.0
C      1  0.4557620000000  0.5000680000000  0.5503320000000 1.0
C      1  0.5853370000000  0.4906100000000  0.4492730000000 1.0
C      1  0.5428390000000  0.5373540000000  0.4236800000000 1.0
C      1  0.4812290000000  0.5770070000000  0.6009280000000 1.0
C      1  0.5427000000000  0.5228230000000  0.5459530000000 1.0
C      1  0.4762740000000  0.6003440000000  0.5046740000000 1.0
C      1  0.5681700000000  0.4787140000000  0.5520740000000 1.0
C      1  0.5523280000000  0.4771080000000  0.5760640000000 1.0
C      1  0.3865390000000  0.5231330000000  0.5000090000000 1.0
C      1  0.5233800000000  0.5358730000000  0.5578730000000 1.0
C      1  0.4509750000000  0.5772530000000  0.5419940000000 1.0
C      1  0.4680310000000  0.5545820000000  0.5897730000000 1.0
C      1  0.4158560000000  0.4505920000000  0.4417810000000 1.0
C      1  0.4560100000000  0.4510690000000  0.5604870000000 1.0
C      1  0.5454510000000  0.6037720000000  0.4707760000000 1.0
END
