TITL C-627107-135-1171 0.00715930943754561 125000 -507.715787455854 0 0 84 (C1) n - 1
REM
REM in /home/nfs/bkarasulu/CARBON/AIRSS/Generating-Clusters/LCBOP/Only-C1/SD-CG/FIRE-CG
REM
REM
REM
REM
REM
REM ./C.cell (11c1c37f851c82e70ff6c80c92926a4b)
REM AIRSS Version 0.9.1 bugfix July 2018 build 013d7b7c2542+ Fri, 06 Jul 2018 19:26:36 +0100
REM compiler GCC version 9.2.1 20190827 (Red Hat 9.2.1-1)
REM options -cpp -mtune=generic -march=x86-64 -g -O0 -fpre-include=/usr/include/finclude/math-vector-fortran.h
REM seed 723076595 -58403019 -1919061714 -626507869 -1224778078 1883159118 1065858697 -714988260 111302779 1186210168 -1810217293 -1007482849 989417972 -518392932 1297447684 -1606624910 179315003 1860346816 -703243967 -540274968 892126707 1621981770 -70809400 -1182560216 -907550846 2073106953 -430696137 2075228998 -1579669823 -1314477913 304620074 852742824 -246374018
REM
CELL 1.54180   50.00000   50.00000   50.00000   90.00000   90.00000   90.00000
LATT -1
SFAC C  
C      1  0.5529070000000  0.4618370000000  0.5558150000000 1.0
C      1  0.4578430000000  0.4602580000000  0.4955570000000 1.0
C      1  0.5677030000000  0.5514990000000  0.5367460000000 1.0
C      1  0.4652780000000  0.4546940000000  0.5425700000000 1.0
C      1  0.4677700000000  0.5728880000000  0.4440410000000 1.0
C      1  0.4560170000000  0.4384170000000  0.4504590000000 1.0
C      1  0.5585230000000  0.5085110000000  0.5667400000000 1.0
C      1  0.5923690000000  0.3452950000000  0.5329000000000 1.0
C      1  0.5432690000000  0.4850740000000  0.5682850000000 1.0
C      1  0.3962430000000  0.5073560000000  0.5011900000000 1.0
C      1  0.4779840000000  0.4636100000000  0.5641760000000 1.0
C      1  0.5894470000000  0.4873350000000  0.4318630000000 1.0
C      1  0.4465650000000  0.5142320000000  0.5886830000000 1.0
C      1  0.5424450000000  0.4699110000000  0.3702200000000 1.0
C      1  0.3988310000000  0.5310750000000  0.4860030000000 1.0
C      1  0.4995690000000  0.4527470000000  0.4693270000000 1.0
C      1  0.3767580000000  0.4890560000000  0.4956160000000 1.0
C      1  0.4217590000000  0.5232320000000  0.5437200000000 1.0
C      1  0.5356920000000  0.5391050000000  0.4308360000000 1.0
C      1  0.4909950000000  0.5504020000000  0.4836210000000 1.0
C      1  0.5869720000000  0.5180420000000  0.4715790000000 1.0
C      1  0.5450980000000  0.5143110000000  0.4980430000000 1.0
C      1  0.5907200000000  0.5661130000000  0.5310560000000 1.0
C      1  0.4146330000000  0.5034950000000  0.5224770000000 1.0
C      1  0.4820850000000  0.5153070000000  0.6183060000000 1.0
C      1  0.4904580000000  0.4458550000000  0.4178420000000 1.0
C      1  0.5431810000000  0.5569020000000  0.5232290000000 1.0
C      1  0.6122430000000  0.5792690000000  0.5245150000000 1.0
C      1  0.4241820000000  0.4805090000000  0.5601970000000 1.0
C      1  0.4439260000000  0.5445940000000  0.4777060000000 1.0
C      1  0.4253160000000  0.4775030000000  0.5311020000000 1.0
C      1  0.5676900000000  0.5308170000000  0.5556350000000 1.0
C      1  0.4716790000000  0.5601440000000  0.3942050000000 1.0
C      1  0.5000420000000  0.4884030000000  0.5010320000000 1.0
C      1  0.4810560000000  0.5306040000000  0.5029830000000 1.0
C      1  0.4291230000000  0.5079130000000  0.5677980000000 1.0
C      1  0.5730800000000  0.5084280000000  0.4939050000000 1.0
C      1  0.5336280000000  0.5208890000000  0.4116160000000 1.0
C      1  0.5776980000000  0.4635060000000  0.4299800000000 1.0
C      1  0.4894080000000  0.4840880000000  0.5794700000000 1.0
C      1  0.5174050000000  0.4860730000000  0.5789610000000 1.0
C      1  0.5629870000000  0.4479550000000  0.5335320000000 1.0
C      1  0.5855120000000  0.3704280000000  0.5338740000000 1.0
C      1  0.4735370000000  0.5025800000000  0.5936320000000 1.0
C      1  0.4285680000000  0.5505200000000  0.5389110000000 1.0
C      1  0.5617810000000  0.4444040000000  0.4393920000000 1.0
C      1  0.4847930000000  0.4451120000000  0.4465150000000 1.0
C      1  0.4843040000000  0.5333340000000  0.5304500000000 1.0
C      1  0.5409560000000  0.4052130000000  0.4582090000000 1.0
C      1  0.5006940000000  0.5736200000000  0.5486200000000 1.0
C      1  0.4478140000000  0.4628370000000  0.5218390000000 1.0
C      1  0.4849180000000  0.4676580000000  0.4894780000000 1.0
C      1  0.5245480000000  0.5734270000000  0.5363230000000 1.0
C      1  0.4819310000000  0.5400000000000  0.3801470000000 1.0
C      1  0.4517950000000  0.5610070000000  0.5512310000000 1.0
C      1  0.4563520000000  0.5221820000000  0.4914940000000 1.0
C      1  0.5104390000000  0.4596550000000  0.4046090000000 1.0
C      1  0.5278290000000  0.4492190000000  0.4736440000000 1.0
C      1  0.5818220000000  0.4840400000000  0.5057690000000 1.0
C      1  0.5193820000000  0.5059640000000  0.3926500000000 1.0
C      1  0.5404270000000  0.4656410000000  0.4934090000000 1.0
C      1  0.4629750000000  0.5329360000000  0.6275500000000 1.0
C      1  0.5243370000000  0.4782750000000  0.3889450000000 1.0
C      1  0.5785190000000  0.3959770000000  0.5348120000000 1.0
C      1  0.4466310000000  0.4311780000000  0.4243110000000 1.0
C      1  0.5189210000000  0.5508770000000  0.4793760000000 1.0
C      1  0.5932530000000  0.5087980000000  0.4472720000000 1.0
C      1  0.4674930000000  0.5594980000000  0.4683890000000 1.0
C      1  0.4173070000000  0.5486480000000  0.6123910000000 1.0
C      1  0.5713310000000  0.4214660000000  0.5352250000000 1.0
C      1  0.4194410000000  0.5625870000000  0.5148650000000 1.0
C      1  0.5360840000000  0.5413350000000  0.5003160000000 1.0
C      1  0.5278110000000  0.4913510000000  0.4982410000000 1.0
C      1  0.4401740000000  0.5333730000000  0.6099550000000 1.0
C      1  0.5639670000000  0.4622040000000  0.5090510000000 1.0
C      1  0.5434690000000  0.4324010000000  0.4569240000000 1.0
C      1  0.5292580000000  0.5516090000000  0.4533810000000 1.0
C      1  0.4187120000000  0.5509910000000  0.4888450000000 1.0
C      1  0.4790490000000  0.5559280000000  0.5466970000000 1.0
C      1  0.4447340000000  0.4463570000000  0.4747670000000 1.0
C      1  0.3956010000000  0.5630630000000  0.6127900000000 1.0
C      1  0.4986450000000  0.5192750000000  0.3792540000000 1.0
C      1  0.4678630000000  0.5725040000000  0.4174510000000 1.0
C      1  0.4664490000000  0.4352760000000  0.4054570000000 1.0
END
