TITL C-627113-6568-250 1.72866013024423 125000 -830.792183858559 0 0 134 (C1) n - 1
REM
REM in /home/nfs/bkarasulu/CARBON/AIRSS/Generating-Clusters/LCBOP/Only-C1/SD-CG/FIRE-CG
REM
REM
REM
REM
REM
REM ./C.cell (11c1c37f851c82e70ff6c80c92926a4b)
REM AIRSS Version 0.9.1 bugfix July 2018 build 013d7b7c2542+ Fri, 06 Jul 2018 19:26:36 +0100
REM compiler GCC version 9.2.1 20190827 (Red Hat 9.2.1-1)
REM options -cpp -mtune=generic -march=x86-64 -g -O0 -fpre-include=/usr/include/finclude/math-vector-fortran.h
REM seed -1377967738 1176211838 -251304387 -1637169148 -564353457 -1165887506 402268539 -259779754 -579712964 -2138744525 788051221 1158454678 -1727902675 23926880 1210569393 -520102115 614491541 579690479 -2017027965 -1999000772 -324123849 -648871535 1949315252 -43198452 -625148447 -1794172328 1695389753 -1077264321 -203247283 -1622692667 549248238 1428120927 1838183767
REM
CELL 1.54180   50.00000   50.00000   50.00000   90.00000   90.00000   90.00000
LATT -1
SFAC C  
C      1  0.4753960000000  0.5379890000000  0.5197460000000 1.0
C      1  0.5000240000000  0.5048340000000  0.4212450000000 1.0
C      1  0.4085560000000  0.4345720000000  0.5092520000000 1.0
C      1  0.5641760000000  0.5844530000000  0.4509760000000 1.0
C      1  0.5675350000000  0.4639640000000  0.5026560000000 1.0
C      1  0.4697770000000  0.4941890000000  0.5838500000000 1.0
C      1  0.5531420000000  0.5025660000000  0.4139180000000 1.0
C      1  0.5265980000000  0.5440390000000  0.4169920000000 1.0
C      1  0.4263170000000  0.4770430000000  0.5007660000000 1.0
C      1  0.4179210000000  0.4661700000000  0.4512270000000 1.0
C      1  0.6488500000000  0.4561470000000  0.5164690000000 1.0
C      1  0.4809250000000  0.5406750000000  0.4730630000000 1.0
C      1  0.4823150000000  0.5625690000000  0.3773930000000 1.0
C      1  0.4244610000000  0.4923250000000  0.4473080000000 1.0
C      1  0.5377900000000  0.4230990000000  0.5089960000000 1.0
C      1  0.5015060000000  0.5401240000000  0.4545310000000 1.0
C      1  0.5534760000000  0.5130160000000  0.5211600000000 1.0
C      1  0.6297800000000  0.4590810000000  0.5370020000000 1.0
C      1  0.4199700000000  0.5375560000000  0.4708370000000 1.0
C      1  0.4071690000000  0.4906310000000  0.5664770000000 1.0
C      1  0.4087340000000  0.4982150000000  0.4946140000000 1.0
C      1  0.4265470000000  0.5910250000000  0.4936410000000 1.0
C      1  0.5560440000000  0.4417780000000  0.5886690000000 1.0
C      1  0.5462800000000  0.5470120000000  0.5834380000000 1.0
C      1  0.4892580000000  0.4942820000000  0.5230540000000 1.0
C      1  0.5021940000000  0.5122500000000  0.5451790000000 1.0
C      1  0.4896420000000  0.5642140000000  0.5559480000000 1.0
C      1  0.5356460000000  0.5701490000000  0.5711330000000 1.0
C      1  0.5476510000000  0.4498100000000  0.5169630000000 1.0
C      1  0.4930160000000  0.5991410000000  0.4581810000000 1.0
C      1  0.4515550000000  0.4997000000000  0.5619390000000 1.0
C      1  0.5012770000000  0.3895180000000  0.5092000000000 1.0
C      1  0.4814050000000  0.5161020000000  0.5978320000000 1.0
C      1  0.5264250000000  0.5084840000000  0.5590170000000 1.0
C      1  0.5026120000000  0.3938920000000  0.4617230000000 1.0
C      1  0.4127140000000  0.5261300000000  0.4967800000000 1.0
C      1  0.5112110000000  0.4571240000000  0.5467680000000 1.0
C      1  0.5639530000000  0.4705760000000  0.4752030000000 1.0
C      1  0.4891810000000  0.5381400000000  0.5451280000000 1.0
C      1  0.3881990000000  0.5305620000000  0.3837950000000 1.0
C      1  0.5159990000000  0.4088100000000  0.5506350000000 1.0
C      1  0.4801810000000  0.5492260000000  0.4016650000000 1.0
C      1  0.4102510000000  0.5403390000000  0.3936780000000 1.0
C      1  0.5516990000000  0.5177620000000  0.4728800000000 1.0
C      1  0.4248510000000  0.4392400000000  0.4585520000000 1.0
C      1  0.4834450000000  0.4700510000000  0.5906420000000 1.0
C      1  0.4272050000000  0.5615340000000  0.4572120000000 1.0
C      1  0.4390500000000  0.5598170000000  0.5731320000000 1.0
C      1  0.5072000000000  0.4601500000000  0.5993510000000 1.0
C      1  0.5294520000000  0.5239860000000  0.5827950000000 1.0
C      1  0.5199240000000  0.4052890000000  0.5231890000000 1.0
C      1  0.4354970000000  0.5168720000000  0.4568670000000 1.0
C      1  0.5608760000000  0.5348590000000  0.4514050000000 1.0
C      1  0.5504190000000  0.6068890000000  0.4996180000000 1.0
C      1  0.4514300000000  0.5711040000000  0.4434970000000 1.0
C      1  0.5505410000000  0.5290900000000  0.4246750000000 1.0
C      1  0.5686210000000  0.5599420000000  0.4641780000000 1.0
C      1  0.4567590000000  0.5569600000000  0.4178190000000 1.0
C      1  0.6487390000000  0.4614850000000  0.4901000000000 1.0
C      1  0.4133870000000  0.3798160000000  0.4993800000000 1.0
C      1  0.5515220000000  0.5805570000000  0.5098020000000 1.0
C      1  0.4587300000000  0.3899490000000  0.4843110000000 1.0
C      1  0.4136460000000  0.5653880000000  0.5601430000000 1.0
C      1  0.4526330000000  0.5981540000000  0.4843910000000 1.0
C      1  0.4620590000000  0.5742260000000  0.5575690000000 1.0
C      1  0.5044460000000  0.4657130000000  0.4490310000000 1.0
C      1  0.5168480000000  0.5739670000000  0.5502820000000 1.0
C      1  0.5844480000000  0.4580320000000  0.4592530000000 1.0
C      1  0.5901620000000  0.4062110000000  0.5049460000000 1.0
C      1  0.5141990000000  0.4886310000000  0.4678460000000 1.0
C      1  0.4886470000000  0.4050460000000  0.4399530000000 1.0
C      1  0.4278660000000  0.5807400000000  0.5198650000000 1.0
C      1  0.5402680000000  0.5991500000000  0.4527980000000 1.0
C      1  0.5298550000000  0.3996130000000  0.4661780000000 1.0
C      1  0.5063540000000  0.5128250000000  0.4489660000000 1.0
C      1  0.4405990000000  0.5130480000000  0.5372590000000 1.0
C      1  0.6101640000000  0.4785020000000  0.5313970000000 1.0
C      1  0.5071480000000  0.5236540000000  0.6002530000000 1.0
C      1  0.4146980000000  0.5595390000000  0.5326930000000 1.0
C      1  0.3946390000000  0.3886230000000  0.5169820000000 1.0
C      1  0.5917200000000  0.4092160000000  0.5316160000000 1.0
C      1  0.4913180000000  0.5459120000000  0.4986980000000 1.0
C      1  0.4678970000000  0.6019290000000  0.5098150000000 1.0
C      1  0.3922920000000  0.4151930000000  0.5221550000000 1.0
C      1  0.5756870000000  0.4124810000000  0.4814530000000 1.0
C      1  0.4898110000000  0.4650240000000  0.5301590000000 1.0
C      1  0.5343750000000  0.6137250000000  0.4774000000000 1.0
C      1  0.4444220000000  0.4277170000000  0.4411820000000 1.0
C      1  0.4325020000000  0.5494700000000  0.4047880000000 1.0
C      1  0.4317690000000  0.3976250000000  0.4867260000000 1.0
C      1  0.5961670000000  0.4248150000000  0.5548560000000 1.0
C      1  0.6340360000000  0.4685040000000  0.4688310000000 1.0
C      1  0.5365220000000  0.4664720000000  0.5374850000000 1.0
C      1  0.5438590000000  0.4947430000000  0.5412320000000 1.0
C      1  0.5475140000000  0.4115460000000  0.4844500000000 1.0
C      1  0.5464710000000  0.5327670000000  0.4990880000000 1.0
C      1  0.4687900000000  0.4955240000000  0.4810340000000 1.0
C      1  0.4700270000000  0.4514110000000  0.4853370000000 1.0
C      1  0.5379650000000  0.4797590000000  0.4125960000000 1.0
C      1  0.4868410000000  0.3883920000000  0.4851360000000 1.0
C      1  0.5107300000000  0.4773720000000  0.4218200000000 1.0
C      1  0.4151220000000  0.5125760000000  0.5814830000000 1.0
C      1  0.4213680000000  0.4251430000000  0.4841410000000 1.0
C      1  0.5017860000000  0.5301550000000  0.4068910000000 1.0
C      1  0.4088020000000  0.4716880000000  0.5464420000000 1.0
C      1  0.4960480000000  0.4928680000000  0.4920640000000 1.0
C      1  0.4921690000000  0.6151830000000  0.5051790000000 1.0
C      1  0.5846460000000  0.4295960000000  0.4609470000000 1.0
C      1  0.4154880000000  0.4596990000000  0.5207020000000 1.0
C      1  0.4321370000000  0.5342490000000  0.5862320000000 1.0
C      1  0.4538110000000  0.5885570000000  0.5323620000000 1.0
C      1  0.5440140000000  0.4905310000000  0.4707680000000 1.0
C      1  0.5056540000000  0.6144440000000  0.4804060000000 1.0
C      1  0.4634700000000  0.5117560000000  0.5202440000000 1.0
C      1  0.5758700000000  0.4312830000000  0.5736870000000 1.0
C      1  0.6208750000000  0.4389430000000  0.5546370000000 1.0
C      1  0.6100120000000  0.4697860000000  0.4569270000000 1.0
C      1  0.5953760000000  0.5453300000000  0.6054800000000 1.0
C      1  0.4205500000000  0.5325810000000  0.5243010000000 1.0
C      1  0.4807200000000  0.4461630000000  0.5108430000000 1.0
C      1  0.5883100000000  0.4766740000000  0.5163720000000 1.0
C      1  0.4616890000000  0.5191920000000  0.4682860000000 1.0
C      1  0.4516060000000  0.4737550000000  0.4873300000000 1.0
C      1  0.4836090000000  0.4484040000000  0.4593400000000 1.0
C      1  0.5191290000000  0.5477740000000  0.5057540000000 1.0
C      1  0.5092810000000  0.4327550000000  0.5605080000000 1.0
C      1  0.5715200000000  0.5465370000000  0.5950600000000 1.0
C      1  0.5275170000000  0.5706450000000  0.5234410000000 1.0
C      1  0.5329830000000  0.4519180000000  0.5984730000000 1.0
C      1  0.5153100000000  0.5869050000000  0.4441700000000 1.0
C      1  0.4725250000000  0.4279040000000  0.4426360000000 1.0
C      1  0.4657100000000  0.5909300000000  0.4596100000000 1.0
C      1  0.5151720000000  0.5595630000000  0.4388310000000 1.0
C      1  0.5633150000000  0.5589800000000  0.4933440000000 1.0
END
