TITL C-627111-6168-1715 -2.89830214792802e-07 125000 -371.540160771084 0 0 60 (C1) n - 1
REM
REM in /home/nfs/bkarasulu/CARBON/AIRSS/Generating-Clusters/LCBOP/Only-C1/SD-CG/FIRE-CG
REM
REM
REM
REM
REM
REM ./C.cell (11c1c37f851c82e70ff6c80c92926a4b)
REM AIRSS Version 0.9.1 bugfix July 2018 build 013d7b7c2542+ Fri, 06 Jul 2018 19:26:36 +0100
REM compiler GCC version 9.2.1 20190827 (Red Hat 9.2.1-1)
REM options -cpp -mtune=generic -march=x86-64 -g -O0 -fpre-include=/usr/include/finclude/math-vector-fortran.h
REM seed -996455527 -2047878017 -222732187 1289399157 -652413898 617947688 647775398 -792401993 -1187155996 -32727485 622991096 1761290620 -1207845171 -1049113625 -1283745994 -1448222329 262767214 258276636 -2040784993 1260377360 -648047997 -1049067550 64443122 -1762124357 -1030155339 453472793 576916079 974457314 1427047473 461277836 1524528481 493080742 -335489621
REM
CELL 1.54180   50.00000   50.00000   50.00000   90.00000   90.00000   90.00000
LATT -1
SFAC C  
C      1  0.5583210000000  0.4766850000000  0.4915360000000 1.0
C      1  0.4245370000000  0.4931980000000  0.5374470000000 1.0
C      1  0.4582720000000  0.5372480000000  0.4737120000000 1.0
C      1  0.5989210000000  0.5730530000000  0.5149090000000 1.0
C      1  0.5355850000000  0.4812120000000  0.5526280000000 1.0
C      1  0.5398840000000  0.4959290000000  0.4777630000000 1.0
C      1  0.4682260000000  0.5133800000000  0.4621010000000 1.0
C      1  0.4658760000000  0.4861410000000  0.4725460000000 1.0
C      1  0.4979210000000  0.5058100000000  0.5312650000000 1.0
C      1  0.4239770000000  0.5033510000000  0.4229830000000 1.0
C      1  0.5884490000000  0.5528730000000  0.5323120000000 1.0
C      1  0.5356540000000  0.4439240000000  0.5179860000000 1.0
C      1  0.5068880000000  0.4806490000000  0.4358940000000 1.0
C      1  0.4453040000000  0.5356020000000  0.4988660000000 1.0
C      1  0.5348510000000  0.5190980000000  0.4937960000000 1.0
C      1  0.4209570000000  0.4743330000000  0.4927890000000 1.0
C      1  0.5063540000000  0.4428600000000  0.5191450000000 1.0
C      1  0.5429700000000  0.4513200000000  0.4909160000000 1.0
C      1  0.4519990000000  0.4979820000000  0.4191060000000 1.0
C      1  0.5726970000000  0.5434950000000  0.5794610000000 1.0
C      1  0.4622850000000  0.5384610000000  0.5215670000000 1.0
C      1  0.4473300000000  0.4710860000000  0.4545490000000 1.0
C      1  0.5673700000000  0.4809250000000  0.5186850000000 1.0
C      1  0.4591520000000  0.4704930000000  0.4282890000000 1.0
C      1  0.4608680000000  0.5613780000000  0.4610750000000 1.0
C      1  0.4696300000000  0.4662730000000  0.4932310000000 1.0
C      1  0.6204160000000  0.5885340000000  0.5212870000000 1.0
C      1  0.5069060000000  0.5509160000000  0.5169920000000 1.0
C      1  0.5189780000000  0.4563840000000  0.4759750000000 1.0
C      1  0.4703520000000  0.5143140000000  0.5353630000000 1.0
C      1  0.5215000000000  0.4803710000000  0.4604740000000 1.0
C      1  0.5868160000000  0.5559350000000  0.5602400000000 1.0
C      1  0.5696910000000  0.5058340000000  0.5330740000000 1.0
C      1  0.5656880000000  0.5583340000000  0.4820540000000 1.0
C      1  0.4862820000000  0.4597450000000  0.4303030000000 1.0
C      1  0.5576450000000  0.5361030000000  0.4972900000000 1.0
C      1  0.4156950000000  0.4963870000000  0.5104680000000 1.0
C      1  0.5572110000000  0.5215120000000  0.5782060000000 1.0
C      1  0.5499400000000  0.4622710000000  0.5351840000000 1.0
C      1  0.4431460000000  0.4576270000000  0.5028940000000 1.0
C      1  0.4746790000000  0.4455510000000  0.5561490000000 1.0
C      1  0.4845710000000  0.4268900000000  0.4696320000000 1.0
C      1  0.4203200000000  0.5225770000000  0.5006730000000 1.0
C      1  0.4991060000000  0.5063450000000  0.4260240000000 1.0
C      1  0.4725240000000  0.5138640000000  0.4329450000000 1.0
C      1  0.4871300000000  0.4339910000000  0.4430680000000 1.0
C      1  0.4808680000000  0.5599630000000  0.5228430000000 1.0
C      1  0.5851480000000  0.5752990000000  0.4902280000000 1.0
C      1  0.4394550000000  0.4392830000000  0.5237150000000 1.0
C      1  0.5078830000000  0.4829140000000  0.5455920000000 1.0
C      1  0.5738230000000  0.5309010000000  0.5206740000000 1.0
C      1  0.4743890000000  0.5855940000000  0.5290700000000 1.0
C      1  0.4936070000000  0.4467870000000  0.4908250000000 1.0
C      1  0.4491860000000  0.4995510000000  0.5468280000000 1.0
C      1  0.4955510000000  0.4571720000000  0.5416810000000 1.0
C      1  0.4512500000000  0.4356160000000  0.5475380000000 1.0
C      1  0.5138690000000  0.5232800000000  0.5134320000000 1.0
C      1  0.4087250000000  0.4933010000000  0.4437610000000 1.0
C      1  0.5529250000000  0.5036880000000  0.5572080000000 1.0
C      1  0.4204490000000  0.4764040000000  0.4637530000000 1.0
END
