TITL C-627111-6168-1374 45.402774309297 125000 -262.531572554667 0 0 45 (C1) n - 1
REM
REM in /home/nfs/bkarasulu/CARBON/AIRSS/Generating-Clusters/LCBOP/Only-C1/SD-CG/FIRE-CG
REM
REM
REM
REM
REM
REM ./C.cell (11c1c37f851c82e70ff6c80c92926a4b)
REM AIRSS Version 0.9.1 bugfix July 2018 build 013d7b7c2542+ Fri, 06 Jul 2018 19:26:36 +0100
REM compiler GCC version 9.2.1 20190827 (Red Hat 9.2.1-1)
REM options -cpp -mtune=generic -march=x86-64 -g -O0 -fpre-include=/usr/include/finclude/math-vector-fortran.h
REM seed -1813074187 -1687356690 434039192 1875380518 1791348385 -1335357906 73668251 -211401670 1605176932 -572580166 1990357563 230457004 1448937963 2137284455 -428206244 452494236 1114353601 349108979 -1914046134 1970590476 -255941691 228869732 -1414681124 -283983447 109680076 -1687985943 -1015988337 -228788729 91496017 -165238159 -1289208572 -1493635702 44692646
REM
CELL 1.54180   50.00000   50.00000   50.00000   90.00000   90.00000   90.00000
LATT -1
SFAC C  
C      1  0.4479760000000  0.5039290000000  0.4297190000000 1.0
C      1  0.5790210000000  0.5060700000000  0.5136570000000 1.0
C      1  0.5621640000000  0.4201170000000  0.5479050000000 1.0
C      1  0.4564010000000  0.5546930000000  0.4420870000000 1.0
C      1  0.4384050000000  0.6147410000000  0.5937040000000 1.0
C      1  0.5702860000000  0.4059010000000  0.4192820000000 1.0
C      1  0.5422350000000  0.3936800000000  0.5887330000000 1.0
C      1  0.4564880000000  0.5219710000000  0.5149030000000 1.0
C      1  0.4707990000000  0.6492740000000  0.5822490000000 1.0
C      1  0.5592580000000  0.4878800000000  0.5188350000000 1.0
C      1  0.5858280000000  0.4032810000000  0.4405940000000 1.0
C      1  0.4698870000000  0.4706540000000  0.3936030000000 1.0
C      1  0.6546420000000  0.3888070000000  0.5059740000000 1.0
C      1  0.6065750000000  0.4078950000000  0.4904710000000 1.0
C      1  0.4466250000000  0.5459800000000  0.5264960000000 1.0
C      1  0.4283610000000  0.4898790000000  0.4791740000000 1.0
C      1  0.5654780000000  0.4608160000000  0.5220010000000 1.0
C      1  0.5727090000000  0.4341780000000  0.5261980000000 1.0
C      1  0.4097420000000  0.4712080000000  0.4863820000000 1.0
C      1  0.4558680000000  0.5712780000000  0.5170480000000 1.0
C      1  0.4630220000000  0.5915520000000  0.5349550000000 1.0
C      1  0.4562850000000  0.4877990000000  0.4085530000000 1.0
C      1  0.5077190000000  0.5051600000000  0.5215270000000 1.0
C      1  0.5977600000000  0.4041080000000  0.4642340000000 1.0
C      1  0.4281030000000  0.5447640000000  0.5474260000000 1.0
C      1  0.4400680000000  0.5064910000000  0.4984210000000 1.0
C      1  0.4827990000000  0.6717970000000  0.5875380000000 1.0
C      1  0.4159880000000  0.5529380000000  0.5696090000000 1.0
C      1  0.4641660000000  0.6104960000000  0.5535120000000 1.0
C      1  0.5304930000000  0.4228810000000  0.3894240000000 1.0
C      1  0.4529310000000  0.5314570000000  0.4297310000000 1.0
C      1  0.5904580000000  0.4215770000000  0.5087150000000 1.0
C      1  0.5326390000000  0.4961790000000  0.5210020000000 1.0
C      1  0.4576350000000  0.5757130000000  0.4894950000000 1.0
C      1  0.5515230000000  0.4124250000000  0.4017270000000 1.0
C      1  0.4579660000000  0.5702240000000  0.4635510000000 1.0
C      1  0.4827670000000  0.5139100000000  0.5199060000000 1.0
C      1  0.4579800000000  0.6252000000000  0.5765780000000 1.0
C      1  0.6314500000000  0.3980090000000  0.4984480000000 1.0
C      1  0.5521200000000  0.4067920000000  0.5684850000000 1.0
C      1  0.4216350000000  0.5945440000000  0.5981990000000 1.0
C      1  0.4360600000000  0.4927420000000  0.4524250000000 1.0
C      1  0.4131510000000  0.5710750000000  0.5888760000000 1.0
C      1  0.5086740000000  0.4367820000000  0.3836220000000 1.0
C      1  0.4878640000000  0.4531520000000  0.3850260000000 1.0
END
