TITL C-627110-360-1699 -1.90695581472269e-06 125000 -1215.08779670054 0 0 193 (C1) n - 1
REM
REM in /home/nfs/bkarasulu/CARBON/AIRSS/Generating-Clusters/LCBOP/Only-C1/SD-CG/FIRE-CG
REM
REM
REM
REM
REM
REM ./C.cell (11c1c37f851c82e70ff6c80c92926a4b)
REM AIRSS Version 0.9.1 bugfix July 2018 build 013d7b7c2542+ Fri, 06 Jul 2018 19:26:36 +0100
REM compiler GCC version 9.2.1 20190827 (Red Hat 9.2.1-1)
REM options -cpp -mtune=generic -march=x86-64 -g -O0 -fpre-include=/usr/include/finclude/math-vector-fortran.h
REM seed 1894072681 619430160 991507555 -1979395792 -934965912 1256179050 492178164 -1403856205 -608016705 -424783909 289400127 301179117 -821167706 -223445915 183715567 -1215997310 2098088516 -592834437 -1350814540 1276921929 1281120788 -215232917 -505127302 1795009706 -2004514184 -1247415703 1881000366 132238771 -1949952777 875405956 1729722113 1793210608 -1574314853
REM
CELL 1.54180   50.00000   50.00000   50.00000   90.00000   90.00000   90.00000
LATT -1
SFAC C  
C      1  0.4362510000000  0.5347630000000  0.4873510000000 1.0
C      1  0.5608390000000  0.4792640000000  0.4466540000000 1.0
C      1  0.3813230000000  0.4868000000000  0.4876320000000 1.0
C      1  0.4788860000000  0.4430150000000  0.5108490000000 1.0
C      1  0.5974760000000  0.4360030000000  0.5490610000000 1.0
C      1  0.4907290000000  0.5280510000000  0.4698270000000 1.0
C      1  0.5188830000000  0.6109590000000  0.5451250000000 1.0
C      1  0.5708240000000  0.5436760000000  0.5194640000000 1.0
C      1  0.5751860000000  0.4731980000000  0.4942210000000 1.0
C      1  0.4811130000000  0.5727800000000  0.4583070000000 1.0
C      1  0.4554040000000  0.5433750000000  0.5878400000000 1.0
C      1  0.4796290000000  0.4650080000000  0.4929120000000 1.0
C      1  0.5614520000000  0.4497300000000  0.5807500000000 1.0
C      1  0.4964240000000  0.4849450000000  0.5393000000000 1.0
C      1  0.4704050000000  0.6048210000000  0.4958530000000 1.0
C      1  0.5635970000000  0.4887170000000  0.4741430000000 1.0
C      1  0.5503500000000  0.5289620000000  0.6179310000000 1.0
C      1  0.5318490000000  0.3803640000000  0.5123060000000 1.0
C      1  0.4851140000000  0.5936720000000  0.5178040000000 1.0
C      1  0.4021800000000  0.5941760000000  0.5382580000000 1.0
C      1  0.5319290000000  0.6126110000000  0.4562730000000 1.0
C      1  0.4157890000000  0.4560560000000  0.6068220000000 1.0
C      1  0.5443540000000  0.4100350000000  0.4648090000000 1.0
C      1  0.4280470000000  0.4356640000000  0.4217670000000 1.0
C      1  0.3994300000000  0.4356300000000  0.4679890000000 1.0
C      1  0.5720520000000  0.4181200000000  0.4248080000000 1.0
C      1  0.5216670000000  0.5588920000000  0.5536530000000 1.0
C      1  0.3904650000000  0.4838360000000  0.5142660000000 1.0
C      1  0.4539040000000  0.4339170000000  0.5170960000000 1.0
C      1  0.6104270000000  0.5404210000000  0.4739150000000 1.0
C      1  0.6076440000000  0.4581310000000  0.5634310000000 1.0
C      1  0.5479570000000  0.5116610000000  0.4813620000000 1.0
C      1  0.5444910000000  0.5131900000000  0.5559300000000 1.0
C      1  0.3846160000000  0.5411480000000  0.5353390000000 1.0
C      1  0.4389060000000  0.3977270000000  0.5569230000000 1.0
C      1  0.4666370000000  0.4366780000000  0.6187790000000 1.0
C      1  0.4869430000000  0.5302700000000  0.4977950000000 1.0
C      1  0.4144530000000  0.5644640000000  0.6006680000000 1.0
C      1  0.5155650000000  0.3836540000000  0.4362050000000 1.0
C      1  0.5907080000000  0.5180140000000  0.4370770000000 1.0
C      1  0.5269290000000  0.4856320000000  0.6000820000000 1.0
C      1  0.4592730000000  0.5334870000000  0.5049210000000 1.0
C      1  0.5150100000000  0.4378850000000  0.5988340000000 1.0
C      1  0.4368260000000  0.4867180000000  0.4929630000000 1.0
C      1  0.4994940000000  0.5528160000000  0.4581520000000 1.0
C      1  0.6112060000000  0.5031310000000  0.5677350000000 1.0
C      1  0.4178340000000  0.4914370000000  0.5140340000000 1.0
C      1  0.6254920000000  0.5607500000000  0.5181500000000 1.0
C      1  0.3956790000000  0.4872880000000  0.4289800000000 1.0
C      1  0.4284150000000  0.5406620000000  0.5952330000000 1.0
C      1  0.4132750000000  0.5170280000000  0.5915310000000 1.0
C      1  0.5351820000000  0.4575980000000  0.5934020000000 1.0
C      1  0.4093690000000  0.4312710000000  0.4408100000000 1.0
C      1  0.4870240000000  0.4198650000000  0.4598510000000 1.0
C      1  0.4674420000000  0.4938190000000  0.4246170000000 1.0
C      1  0.4441400000000  0.5380070000000  0.4341090000000 1.0
C      1  0.4869080000000  0.5134730000000  0.3752150000000 1.0
C      1  0.4726700000000  0.4269340000000  0.5742290000000 1.0
C      1  0.4951670000000  0.5995180000000  0.4268680000000 1.0
C      1  0.5718820000000  0.4981910000000  0.4275060000000 1.0
C      1  0.3820860000000  0.5105300000000  0.4282990000000 1.0
C      1  0.3934950000000  0.5062220000000  0.5744200000000 1.0
C      1  0.6228110000000  0.4909380000000  0.4634780000000 1.0
C      1  0.5339810000000  0.5230020000000  0.4595440000000 1.0
C      1  0.4718300000000  0.4931430000000  0.5293530000000 1.0
C      1  0.3817600000000  0.5253420000000  0.5567660000000 1.0
C      1  0.6039560000000  0.5763220000000  0.5290770000000 1.0
C      1  0.5021110000000  0.4832200000000  0.4513890000000 1.0
C      1  0.5157730000000  0.5807540000000  0.4159050000000 1.0
C      1  0.5484880000000  0.3587190000000  0.5133320000000 1.0
C      1  0.5810290000000  0.5684600000000  0.5131980000000 1.0
C      1  0.4669440000000  0.5963840000000  0.4191830000000 1.0
C      1  0.5185510000000  0.5589870000000  0.5227930000000 1.0
C      1  0.5902240000000  0.5601020000000  0.4608010000000 1.0
C      1  0.5558840000000  0.4175020000000  0.5370670000000 1.0
C      1  0.4811450000000  0.5465850000000  0.5773400000000 1.0
C      1  0.5340740000000  0.4368180000000  0.4621980000000 1.0
C      1  0.4599710000000  0.5205290000000  0.4165800000000 1.0
C      1  0.6209580000000  0.5374840000000  0.5010970000000 1.0
C      1  0.4928300000000  0.5700080000000  0.5623540000000 1.0
C      1  0.5262890000000  0.5410600000000  0.3858130000000 1.0
C      1  0.5119140000000  0.5836150000000  0.5093640000000 1.0
C      1  0.4078740000000  0.5348910000000  0.4927570000000 1.0
C      1  0.4147970000000  0.4088460000000  0.5610350000000 1.0
C      1  0.4043830000000  0.5859680000000  0.5885540000000 1.0
C      1  0.6198590000000  0.4814710000000  0.5503300000000 1.0
C      1  0.5616840000000  0.5072770000000  0.5779020000000 1.0
C      1  0.5392370000000  0.5704510000000  0.4335250000000 1.0
C      1  0.5284980000000  0.6066140000000  0.5164160000000 1.0
C      1  0.4319630000000  0.3968210000000  0.4845330000000 1.0
C      1  0.4045080000000  0.4640030000000  0.6304080000000 1.0
C      1  0.6164510000000  0.4867750000000  0.5224240000000 1.0
C      1  0.5268950000000  0.5498690000000  0.4518900000000 1.0
C      1  0.5020790000000  0.4398320000000  0.5272330000000 1.0
C      1  0.5915860000000  0.5912690000000  0.5507560000000 1.0
C      1  0.4072290000000  0.4775110000000  0.4525360000000 1.0
C      1  0.5083990000000  0.5088050000000  0.4585900000000 1.0
C      1  0.5975340000000  0.4016790000000  0.4608320000000 1.0
C      1  0.4426260000000  0.5833740000000  0.4172610000000 1.0
C      1  0.4103660000000  0.4161160000000  0.4865820000000 1.0
C      1  0.3875920000000  0.5306740000000  0.4475990000000 1.0
C      1  0.4811290000000  0.5567550000000  0.3912930000000 1.0
C      1  0.5564330000000  0.4581150000000  0.5097240000000 1.0
C      1  0.4913350000000  0.5963060000000  0.5472650000000 1.0
C      1  0.5701470000000  0.4071190000000  0.4532070000000 1.0
C      1  0.4529240000000  0.3858490000000  0.5013150000000 1.0
C      1  0.4004390000000  0.5969620000000  0.5646280000000 1.0
C      1  0.4520920000000  0.4849180000000  0.4461780000000 1.0
C      1  0.5126090000000  0.5338860000000  0.5107120000000 1.0
C      1  0.5430750000000  0.6031210000000  0.5592680000000 1.0
C      1  0.4547700000000  0.5714950000000  0.4668070000000 1.0
C      1  0.6041980000000  0.4654210000000  0.5039240000000 1.0
C      1  0.5015910000000  0.4529110000000  0.4125800000000 1.0
C      1  0.4071300000000  0.5798420000000  0.5146020000000 1.0
C      1  0.5844310000000  0.5212690000000  0.5241030000000 1.0
C      1  0.5677060000000  0.6069400000000  0.5425890000000 1.0
C      1  0.5087660000000  0.5626230000000  0.3947310000000 1.0
C      1  0.5106630000000  0.3827830000000  0.4919520000000 1.0
C      1  0.5034830000000  0.6134640000000  0.4518130000000 1.0
C      1  0.5021820000000  0.4990510000000  0.5929710000000 1.0
C      1  0.3903120000000  0.4783290000000  0.5671100000000 1.0
C      1  0.4638940000000  0.4856910000000  0.5026080000000 1.0
C      1  0.4275490000000  0.5033290000000  0.5374590000000 1.0
C      1  0.4199450000000  0.5938550000000  0.4932250000000 1.0
C      1  0.5081210000000  0.4139000000000  0.5357940000000 1.0
C      1  0.4006400000000  0.5540550000000  0.4355590000000 1.0
C      1  0.4429920000000  0.4474080000000  0.6050890000000 1.0
C      1  0.5226750000000  0.3891060000000  0.4645100000000 1.0
C      1  0.5332340000000  0.4020740000000  0.5310800000000 1.0
C      1  0.4268800000000  0.5597570000000  0.4234720000000 1.0
C      1  0.4840730000000  0.4054090000000  0.4061490000000 1.0
C      1  0.5964740000000  0.4389650000000  0.5199130000000 1.0
C      1  0.5856980000000  0.4668910000000  0.5819450000000 1.0
C      1  0.4663380000000  0.4046610000000  0.5569280000000 1.0
C      1  0.5866530000000  0.4957010000000  0.5797970000000 1.0
C      1  0.5429910000000  0.5005420000000  0.5302480000000 1.0
C      1  0.4908370000000  0.3843180000000  0.4220070000000 1.0
C      1  0.4798130000000  0.4335500000000  0.4070520000000 1.0
C      1  0.5439200000000  0.4561160000000  0.4419690000000 1.0
C      1  0.5228940000000  0.5304650000000  0.5627490000000 1.0
C      1  0.4805430000000  0.3857340000000  0.5092930000000 1.0
C      1  0.5601030000000  0.5537330000000  0.4194120000000 1.0
C      1  0.4965050000000  0.4641920000000  0.4711440000000 1.0
C      1  0.5460730000000  0.4198730000000  0.4124930000000 1.0
C      1  0.3896860000000  0.5198100000000  0.4755310000000 1.0
C      1  0.4517410000000  0.4738010000000  0.5666640000000 1.0
C      1  0.5497890000000  0.5347960000000  0.4002730000000 1.0
C      1  0.5142460000000  0.4638450000000  0.5346200000000 1.0
C      1  0.4319260000000  0.4836260000000  0.4646370000000 1.0
C      1  0.5586490000000  0.5531650000000  0.6092020000000 1.0
C      1  0.4512570000000  0.4942360000000  0.5482490000000 1.0
C      1  0.4005100000000  0.4300530000000  0.5691090000000 1.0
C      1  0.4004100000000  0.4554650000000  0.5819750000000 1.0
C      1  0.5130360000000  0.5203310000000  0.3711710000000 1.0
C      1  0.4439620000000  0.5454250000000  0.4623650000000 1.0
C      1  0.4650740000000  0.4073670000000  0.4521400000000 1.0
C      1  0.5675410000000  0.4324890000000  0.5153130000000 1.0
C      1  0.4472450000000  0.5905230000000  0.4864280000000 1.0
C      1  0.4859020000000  0.6176170000000  0.4744610000000 1.0
C      1  0.5506630000000  0.5914860000000  0.4518940000000 1.0
C      1  0.4421450000000  0.3951900000000  0.4581060000000 1.0
C      1  0.6003310000000  0.4190400000000  0.4189590000000 1.0
C      1  0.4533350000000  0.4486400000000  0.5777580000000 1.0
C      1  0.6108710000000  0.5156350000000  0.4573320000000 1.0
C      1  0.4881600000000  0.4291020000000  0.5995300000000 1.0
C      1  0.5697250000000  0.4287420000000  0.5603580000000 1.0
C      1  0.5881760000000  0.5782910000000  0.5761900000000 1.0
C      1  0.5396670000000  0.4724140000000  0.5270180000000 1.0
C      1  0.4924960000000  0.4784320000000  0.4244890000000 1.0
C      1  0.5475130000000  0.5054590000000  0.6027170000000 1.0
C      1  0.4044930000000  0.6113900000000  0.4777790000000 1.0
C      1  0.5700760000000  0.5883350000000  0.4968510000000 1.0
C      1  0.5571390000000  0.6069750000000  0.5143880000000 1.0
C      1  0.5576670000000  0.5077170000000  0.4048330000000 1.0
C      1  0.5631520000000  0.5686320000000  0.5861880000000 1.0
C      1  0.5308670000000  0.4451890000000  0.4168180000000 1.0
C      1  0.5820830000000  0.5459380000000  0.4358940000000 1.0
C      1  0.5414130000000  0.5762520000000  0.5691970000000 1.0
C      1  0.4713070000000  0.5301420000000  0.3923470000000 1.0
C      1  0.3815010000000  0.4748620000000  0.5396520000000 1.0
C      1  0.6103550000000  0.5141040000000  0.5154070000000 1.0
C      1  0.5337170000000  0.3945150000000  0.4162170000000 1.0
C      1  0.6148750000000  0.4090860000000  0.4404280000000 1.0
C      1  0.5722650000000  0.5824460000000  0.4690270000000 1.0
C      1  0.4521490000000  0.4402030000000  0.4105060000000 1.0
C      1  0.6204560000000  0.4686600000000  0.4787110000000 1.0
C      1  0.5063100000000  0.4387070000000  0.4661270000000 1.0
C      1  0.3987710000000  0.5523070000000  0.5135590000000 1.0
C      1  0.3897620000000  0.4638480000000  0.4709380000000 1.0
C      1  0.5350100000000  0.5157010000000  0.5071510000000 1.0
C      1  0.4998790000000  0.5239430000000  0.5787210000000 1.0
C      1  0.3906770000000  0.6265470000000  0.4617040000000 1.0
C      1  0.4849820000000  0.3971570000000  0.5361690000000 1.0
END
