TITL C-627109-622-1164 2.89874281278355e-06 125000 -327.173163726163 0 0 56 (C1) n - 1
REM
REM in /home/nfs/bkarasulu/CARBON/AIRSS/Generating-Clusters/LCBOP/Only-C1/SD-CG/FIRE-CG
REM
REM
REM
REM
REM
REM ./C.cell (11c1c37f851c82e70ff6c80c92926a4b)
REM AIRSS Version 0.9.1 bugfix July 2018 build 013d7b7c2542+ Fri, 06 Jul 2018 19:26:36 +0100
REM compiler GCC version 9.2.1 20190827 (Red Hat 9.2.1-1)
REM options -cpp -mtune=generic -march=x86-64 -g -O0 -fpre-include=/usr/include/finclude/math-vector-fortran.h
REM seed 720654892 1790795960 1682502106 -12049229 348676610 -2119641645 1196245807 -668433347 -2044483708 775234313 -251678571 410540287 1743339988 237376680 968016652 -16179783 -1042259609 162610086 1281323840 -546140236 1172323529 1040467158 1860216591 -1344016774 -1609537763 -1779703 -807221951 600713991 1930270181 -27499595 -649349966 -1024672127 -829180064
REM
CELL 1.54180   50.00000   50.00000   50.00000   90.00000   90.00000   90.00000
LATT -1
SFAC C  
C      1  0.5590860000000  0.5128830000000  0.4979130000000 1.0
C      1  0.4484430000000  0.4964590000000  0.4892390000000 1.0
C      1  0.5359990000000  0.4374800000000  0.5707450000000 1.0
C      1  0.5288840000000  0.4635810000000  0.5631630000000 1.0
C      1  0.5105660000000  0.5052010000000  0.5094020000000 1.0
C      1  0.4584100000000  0.4727690000000  0.5351790000000 1.0
C      1  0.4077290000000  0.5133070000000  0.4166580000000 1.0
C      1  0.4287910000000  0.5153280000000  0.4339080000000 1.0
C      1  0.4981300000000  0.4581100000000  0.4977230000000 1.0
C      1  0.5212350000000  0.5129240000000  0.4632630000000 1.0
C      1  0.5670210000000  0.5472110000000  0.5330590000000 1.0
C      1  0.5418000000000  0.5113900000000  0.4441270000000 1.0
C      1  0.5129830000000  0.5039660000000  0.3906340000000 1.0
C      1  0.6052450000000  0.5073730000000  0.4821970000000 1.0
C      1  0.5872530000000  0.5645110000000  0.5282290000000 1.0
C      1  0.4438860000000  0.4888930000000  0.5177990000000 1.0
C      1  0.5785790000000  0.5100210000000  0.4771940000000 1.0
C      1  0.4539460000000  0.5026750000000  0.4287220000000 1.0
C      1  0.4616340000000  0.4515790000000  0.5779760000000 1.0
C      1  0.5264480000000  0.5271820000000  0.5486020000000 1.0
C      1  0.4271110000000  0.5303350000000  0.4579480000000 1.0
C      1  0.5421400000000  0.5516200000000  0.5472760000000 1.0
C      1  0.5953840000000  0.4761680000000  0.5890680000000 1.0
C      1  0.4739180000000  0.4643910000000  0.5570860000000 1.0
C      1  0.4937170000000  0.4855360000000  0.4980150000000 1.0
C      1  0.4817930000000  0.5398340000000  0.5319720000000 1.0
C      1  0.5044060000000  0.5231040000000  0.5311540000000 1.0
C      1  0.5648930000000  0.5188310000000  0.5251830000000 1.0
C      1  0.4710340000000  0.5486400000000  0.4264620000000 1.0
C      1  0.4791810000000  0.5195960000000  0.4317650000000 1.0
C      1  0.4368350000000  0.5552160000000  0.5092400000000 1.0
C      1  0.4227200000000  0.5303620000000  0.5078910000000 1.0
C      1  0.5495970000000  0.4831380000000  0.5611190000000 1.0
C      1  0.4258340000000  0.5094850000000  0.5273990000000 1.0
C      1  0.4889330000000  0.5459820000000  0.4733140000000 1.0
C      1  0.5040530000000  0.4061360000000  0.4957390000000 1.0
C      1  0.5731650000000  0.4793180000000  0.5758180000000 1.0
C      1  0.5017130000000  0.4687470000000  0.5581680000000 1.0
C      1  0.5384970000000  0.4111070000000  0.5688550000000 1.0
C      1  0.4351900000000  0.5698310000000  0.4847460000000 1.0
C      1  0.5312130000000  0.5117980000000  0.4908080000000 1.0
C      1  0.4993240000000  0.4320960000000  0.4927260000000 1.0
C      1  0.4528900000000  0.5651220000000  0.4379130000000 1.0
C      1  0.5133740000000  0.3855540000000  0.5097980000000 1.0
C      1  0.4752590000000  0.4976440000000  0.4795340000000 1.0
C      1  0.4993710000000  0.5111080000000  0.4116760000000 1.0
C      1  0.4902090000000  0.5181060000000  0.4609870000000 1.0
C      1  0.4351800000000  0.5581190000000  0.4587430000000 1.0
C      1  0.5679800000000  0.5099990000000  0.4508830000000 1.0
C      1  0.4603110000000  0.5543540000000  0.5250070000000 1.0
C      1  0.4556590000000  0.4762220000000  0.4218700000000 1.0
C      1  0.5348300000000  0.3885080000000  0.5552760000000 1.0
C      1  0.5252050000000  0.3783620000000  0.5325770000000 1.0
C      1  0.4287480000000  0.5166570000000  0.4823770000000 1.0
C      1  0.4968990000000  0.5698270000000  0.4803110000000 1.0
C      1  0.5473630000000  0.5063060000000  0.5455610000000 1.0
END
