TITL C-627113-6568-744 8.0181972023755e-07 125000 -1129.45920664028 0 0 186 (C1) n - 1
REM
REM in /home/nfs/bkarasulu/CARBON/AIRSS/Generating-Clusters/LCBOP/Only-C1/SD-CG/FIRE-CG
REM
REM
REM
REM
REM
REM ./C.cell (11c1c37f851c82e70ff6c80c92926a4b)
REM AIRSS Version 0.9.1 bugfix July 2018 build 013d7b7c2542+ Fri, 06 Jul 2018 19:26:36 +0100
REM compiler GCC version 9.2.1 20190827 (Red Hat 9.2.1-1)
REM options -cpp -mtune=generic -march=x86-64 -g -O0 -fpre-include=/usr/include/finclude/math-vector-fortran.h
REM seed -83643907 1912936043 -822025829 -1696845024 679972170 -1974598062 -1563647128 1139888343 1566949768 -1274883133 -1966433099 -124057288 -266075553 2036734359 -1317928850 357991489 -1313826900 -661474158 2127656356 -1145942546 2037414213 -429377647 -959944968 -1286273313 711185048 139056580 -1964591998 355238241 -1006035947 1389155616 -752159663 550706482 -1075047749
REM
CELL 1.54180   50.00000   50.00000   50.00000   90.00000   90.00000   90.00000
LATT -1
SFAC C  
C      1  0.4954930000000  0.5716610000000  0.5174100000000 1.0
C      1  0.5123610000000  0.5569910000000  0.4445610000000 1.0
C      1  0.5299210000000  0.4520670000000  0.6098230000000 1.0
C      1  0.5482570000000  0.4790970000000  0.4622860000000 1.0
C      1  0.5113010000000  0.5421820000000  0.5535810000000 1.0
C      1  0.4868990000000  0.4459670000000  0.5856410000000 1.0
C      1  0.4073060000000  0.4897000000000  0.5061580000000 1.0
C      1  0.6245910000000  0.5002890000000  0.5143600000000 1.0
C      1  0.6006330000000  0.5788150000000  0.5595610000000 1.0
C      1  0.5906700000000  0.5258770000000  0.4888870000000 1.0
C      1  0.4421340000000  0.5326860000000  0.5594800000000 1.0
C      1  0.5812250000000  0.4199050000000  0.5553360000000 1.0
C      1  0.4859920000000  0.4197570000000  0.4983450000000 1.0
C      1  0.4459480000000  0.5697240000000  0.4193150000000 1.0
C      1  0.4150500000000  0.5264290000000  0.5537970000000 1.0
C      1  0.6145930000000  0.5437540000000  0.4976140000000 1.0
C      1  0.5480370000000  0.4237630000000  0.5251020000000 1.0
C      1  0.3869410000000  0.4586960000000  0.5384660000000 1.0
C      1  0.4048380000000  0.5001710000000  0.5556300000000 1.0
C      1  0.5343870000000  0.5935000000000  0.4058780000000 1.0
C      1  0.4796260000000  0.5020600000000  0.5730260000000 1.0
C      1  0.5108940000000  0.4757500000000  0.4051510000000 1.0
C      1  0.4498990000000  0.5951960000000  0.5651040000000 1.0
C      1  0.4742160000000  0.5720500000000  0.4229630000000 1.0
C      1  0.5755050000000  0.4876480000000  0.5196370000000 1.0
C      1  0.5587180000000  0.4964280000000  0.5401700000000 1.0
C      1  0.5472710000000  0.5528790000000  0.6041800000000 1.0
C      1  0.5368570000000  0.5022710000000  0.6248900000000 1.0
C      1  0.5104950000000  0.6222500000000  0.4705150000000 1.0
C      1  0.4181650000000  0.5814820000000  0.5215450000000 1.0
C      1  0.5137440000000  0.3793500000000  0.5380830000000 1.0
C      1  0.4523830000000  0.3916010000000  0.5063330000000 1.0
C      1  0.5418300000000  0.5289150000000  0.6154930000000 1.0
C      1  0.5267720000000  0.6165700000000  0.5217300000000 1.0
C      1  0.4987010000000  0.6393940000000  0.4884610000000 1.0
C      1  0.5407110000000  0.4389090000000  0.6312800000000 1.0
C      1  0.3804790000000  0.4740880000000  0.4583790000000 1.0
C      1  0.5379550000000  0.4488620000000  0.5189540000000 1.0
C      1  0.5223130000000  0.4519190000000  0.4958940000000 1.0
C      1  0.6016420000000  0.4403530000000  0.4560640000000 1.0
C      1  0.5089720000000  0.6106120000000  0.4442730000000 1.0
C      1  0.6393120000000  0.4777180000000  0.5067480000000 1.0
C      1  0.4539610000000  0.5140740000000  0.5792400000000 1.0
C      1  0.4313820000000  0.5914020000000  0.4308510000000 1.0
C      1  0.4480410000000  0.4121700000000  0.4523610000000 1.0
C      1  0.4205480000000  0.4400890000000  0.5939050000000 1.0
C      1  0.4454210000000  0.5219850000000  0.3979390000000 1.0
C      1  0.4782200000000  0.4750740000000  0.5194340000000 1.0
C      1  0.5376890000000  0.6096750000000  0.4953880000000 1.0
C      1  0.3910780000000  0.3852960000000  0.4804500000000 1.0
C      1  0.5674140000000  0.5394550000000  0.5056580000000 1.0
C      1  0.5564710000000  0.6038110000000  0.4500550000000 1.0
C      1  0.4457530000000  0.4888580000000  0.4763250000000 1.0
C      1  0.4103140000000  0.5372830000000  0.4287300000000 1.0
C      1  0.5583980000000  0.5387520000000  0.4353090000000 1.0
C      1  0.5334410000000  0.4805520000000  0.6063650000000 1.0
C      1  0.4706620000000  0.5677330000000  0.5311580000000 1.0
C      1  0.4017710000000  0.4314910000000  0.4413740000000 1.0
C      1  0.6320120000000  0.5277910000000  0.5165210000000 1.0
C      1  0.4123860000000  0.4866540000000  0.5804140000000 1.0
C      1  0.5285550000000  0.5279780000000  0.4727100000000 1.0
C      1  0.4395440000000  0.5404130000000  0.4702370000000 1.0
C      1  0.4044490000000  0.4060790000000  0.4888590000000 1.0
C      1  0.4543170000000  0.4683360000000  0.4053100000000 1.0
C      1  0.5329530000000  0.5367540000000  0.4457780000000 1.0
C      1  0.5795490000000  0.5205510000000  0.4340420000000 1.0
C      1  0.4281510000000  0.5879900000000  0.5477900000000 1.0
C      1  0.4705210000000  0.4514530000000  0.4647870000000 1.0
C      1  0.5199260000000  0.3838390000000  0.4621980000000 1.0
C      1  0.4335910000000  0.5441510000000  0.4136690000000 1.0
C      1  0.4620850000000  0.4975690000000  0.5206620000000 1.0
C      1  0.6013980000000  0.4630870000000  0.5807390000000 1.0
C      1  0.4023570000000  0.5113120000000  0.4361300000000 1.0
C      1  0.3935220000000  0.4384020000000  0.5208520000000 1.0
C      1  0.4857730000000  0.5678760000000  0.5875150000000 1.0
C      1  0.4358400000000  0.4456730000000  0.4981560000000 1.0
C      1  0.5351320000000  0.4977650000000  0.6518710000000 1.0
C      1  0.4601220000000  0.3954310000000  0.5334440000000 1.0
C      1  0.4880250000000  0.3921910000000  0.3977200000000 1.0
C      1  0.5310710000000  0.5538080000000  0.4857890000000 1.0
C      1  0.4584190000000  0.5433830000000  0.5386350000000 1.0
C      1  0.3943450000000  0.4693400000000  0.4138420000000 1.0
C      1  0.5346720000000  0.6044480000000  0.4318870000000 1.0
C      1  0.3832240000000  0.4525970000000  0.5657730000000 1.0
C      1  0.4647920000000  0.5295640000000  0.3786750000000 1.0
C      1  0.6164210000000  0.4630890000000  0.4644620000000 1.0
C      1  0.5574710000000  0.6046780000000  0.4771520000000 1.0
C      1  0.5074430000000  0.3923010000000  0.4875670000000 1.0
C      1  0.4984470000000  0.4879210000000  0.4757720000000 1.0
C      1  0.4904690000000  0.5490350000000  0.4285460000000 1.0
C      1  0.4692050000000  0.6151720000000  0.5585550000000 1.0
C      1  0.6351610000000  0.4613980000000  0.4856310000000 1.0
C      1  0.5095870000000  0.5046220000000  0.4095810000000 1.0
C      1  0.5514320000000  0.4180700000000  0.5539290000000 1.0
C      1  0.5263390000000  0.4600930000000  0.5414900000000 1.0
C      1  0.4658780000000  0.5842470000000  0.4803780000000 1.0
C      1  0.4378930000000  0.4938850000000  0.4045500000000 1.0
C      1  0.5936650000000  0.5140680000000  0.4589090000000 1.0
C      1  0.4436230000000  0.6025560000000  0.4796550000000 1.0
C      1  0.4760850000000  0.5218960000000  0.5280280000000 1.0
C      1  0.4716030000000  0.4818750000000  0.4625000000000 1.0
C      1  0.5907850000000  0.4139240000000  0.5273270000000 1.0
C      1  0.5221310000000  0.6058290000000  0.5498180000000 1.0
C      1  0.5964960000000  0.5002240000000  0.5064820000000 1.0
C      1  0.4486770000000  0.3959560000000  0.4781910000000 1.0
C      1  0.4994360000000  0.4700330000000  0.4993570000000 1.0
C      1  0.5373970000000  0.4611040000000  0.4104980000000 1.0
C      1  0.5218420000000  0.4811210000000  0.4593870000000 1.0
C      1  0.3875500000000  0.4555930000000  0.4378740000000 1.0
C      1  0.4424240000000  0.4255590000000  0.5892590000000 1.0
C      1  0.5196000000000  0.4328330000000  0.4470880000000 1.0
C      1  0.6092000000000  0.4897560000000  0.4573270000000 1.0
C      1  0.5014380000000  0.4458070000000  0.5421010000000 1.0
C      1  0.4954350000000  0.4209590000000  0.4372790000000 1.0
C      1  0.4374740000000  0.5146110000000  0.4715060000000 1.0
C      1  0.5151310000000  0.4373060000000  0.5895940000000 1.0
C      1  0.6343240000000  0.5448290000000  0.5399080000000 1.0
C      1  0.4803920000000  0.4725050000000  0.5721160000000 1.0
C      1  0.5592860000000  0.4147290000000  0.4362810000000 1.0
C      1  0.5419290000000  0.5516450000000  0.5114180000000 1.0
C      1  0.4898020000000  0.5198270000000  0.4243140000000 1.0
C      1  0.5115890000000  0.5697580000000  0.4717230000000 1.0
C      1  0.6047630000000  0.6041290000000  0.5690560000000 1.0
C      1  0.5940330000000  0.4389250000000  0.5717400000000 1.0
C      1  0.3953410000000  0.5103310000000  0.4889950000000 1.0
C      1  0.5259990000000  0.4161040000000  0.5703290000000 1.0
C      1  0.4637910000000  0.4385710000000  0.4903010000000 1.0
C      1  0.5312950000000  0.5832590000000  0.5683010000000 1.0
C      1  0.3905830000000  0.5011210000000  0.4611630000000 1.0
C      1  0.6045010000000  0.4893660000000  0.5851540000000 1.0
C      1  0.3889910000000  0.5371860000000  0.4989720000000 1.0
C      1  0.5779300000000  0.4252450000000  0.4564350000000 1.0
C      1  0.5094870000000  0.5633040000000  0.5729920000000 1.0
C      1  0.5800140000000  0.5623600000000  0.5704380000000 1.0
C      1  0.5339760000000  0.4881210000000  0.5796430000000 1.0
C      1  0.4864330000000  0.5974670000000  0.4314010000000 1.0
C      1  0.4833700000000  0.4661420000000  0.4011790000000 1.0
C      1  0.5053600000000  0.5153740000000  0.4830490000000 1.0
C      1  0.4923230000000  0.5805370000000  0.4898970000000 1.0
C      1  0.5061760000000  0.5617520000000  0.3745730000000 1.0
C      1  0.5233840000000  0.5784490000000  0.3865790000000 1.0
C      1  0.4963190000000  0.4255140000000  0.5236540000000 1.0
C      1  0.4962330000000  0.6165630000000  0.5584690000000 1.0
C      1  0.4683070000000  0.4238320000000  0.5784970000000 1.0
C      1  0.4286740000000  0.4257260000000  0.4346810000000 1.0
C      1  0.5139700000000  0.3780880000000  0.5111490000000 1.0
C      1  0.4605930000000  0.5774000000000  0.5846600000000 1.0
C      1  0.5053960000000  0.3972210000000  0.5588030000000 1.0
C      1  0.5833650000000  0.5338190000000  0.5687900000000 1.0
C      1  0.6101760000000  0.5693690000000  0.5104590000000 1.0
C      1  0.5075330000000  0.6379270000000  0.5145080000000 1.0
C      1  0.4259150000000  0.6001430000000  0.5014860000000 1.0
C      1  0.5186890000000  0.5554810000000  0.5284170000000 1.0
C      1  0.4762210000000  0.4038090000000  0.5583470000000 1.0
C      1  0.5761700000000  0.5015060000000  0.4122720000000 1.0
C      1  0.4292950000000  0.4739180000000  0.4943530000000 1.0
C      1  0.5395570000000  0.4351270000000  0.4258950000000 1.0
C      1  0.5695130000000  0.4170320000000  0.5073120000000 1.0
C      1  0.4562310000000  0.5602370000000  0.4701550000000 1.0
C      1  0.4407200000000  0.4442450000000  0.4150400000000 1.0
C      1  0.5546300000000  0.5703150000000  0.5819050000000 1.0
C      1  0.5616490000000  0.4771870000000  0.4162040000000 1.0
C      1  0.6000930000000  0.5158240000000  0.5827170000000 1.0
C      1  0.4856970000000  0.5447330000000  0.3713040000000 1.0
C      1  0.5654740000000  0.5209110000000  0.5516720000000 1.0
C      1  0.3977580000000  0.4846380000000  0.5326990000000 1.0
C      1  0.4033780000000  0.4599640000000  0.5842270000000 1.0
C      1  0.6168660000000  0.5683670000000  0.5388060000000 1.0
C      1  0.4127270000000  0.4288730000000  0.5028240000000 1.0
C      1  0.4327760000000  0.6062220000000  0.4535120000000 1.0
C      1  0.5387960000000  0.4816970000000  0.5532870000000 1.0
C      1  0.5017250000000  0.3752380000000  0.4418940000000 1.0
C      1  0.4714980000000  0.4290590000000  0.4480700000000 1.0
C      1  0.4731980000000  0.5023140000000  0.4396740000000 1.0
C      1  0.4805850000000  0.4636030000000  0.5448570000000 1.0
C      1  0.4346800000000  0.4985070000000  0.5932220000000 1.0
C      1  0.5325220000000  0.4355110000000  0.4743220000000 1.0
C      1  0.4111580000000  0.4918170000000  0.4161630000000 1.0
C      1  0.3626870000000  0.5450330000000  0.4951560000000 1.0
C      1  0.5663470000000  0.4720190000000  0.4441200000000 1.0
C      1  0.5613150000000  0.4253430000000  0.4803990000000 1.0
C      1  0.5452240000000  0.3914460000000  0.4492500000000 1.0
C      1  0.4906930000000  0.5273510000000  0.5032030000000 1.0
C      1  0.4057050000000  0.5568330000000  0.5123820000000 1.0
C      1  0.4943050000000  0.5184890000000  0.5529380000000 1.0
C      1  0.4944950000000  0.3957240000000  0.4238440000000 1.0
END
