TITL C-627107-135-1274 -1.36493671839454e-07 125000 -378.504067893 0 0 62 (C1) n - 1
REM
REM in /home/nfs/bkarasulu/CARBON/AIRSS/Generating-Clusters/LCBOP/Only-C1/SD-CG/FIRE-CG
REM
REM
REM
REM
REM
REM ./C.cell (11c1c37f851c82e70ff6c80c92926a4b)
REM AIRSS Version 0.9.1 bugfix July 2018 build 013d7b7c2542+ Fri, 06 Jul 2018 19:26:36 +0100
REM compiler GCC version 9.2.1 20190827 (Red Hat 9.2.1-1)
REM options -cpp -mtune=generic -march=x86-64 -g -O0 -fpre-include=/usr/include/finclude/math-vector-fortran.h
REM seed 2116121182 1269483795 629489261 -995143815 1787612161 -507126009 -970644516 -1806428167 -1487521957 -899085287 530014373 -1213604578 -1426216967 -64730361 630130334 -1981997369 1845515581 69861171 1807652750 -1260049287 -910428574 -814788079 767837361 435506196 -378476220 1989177272 -1789356481 -2054746503 -687613663 799941875 1876852339 587206874 -1418052368
REM
CELL 1.54180   50.00000   50.00000   50.00000   90.00000   90.00000   90.00000
LATT -1
SFAC C  
C      1  0.5068530000000  0.4941230000000  0.5802810000000 1.0
C      1  0.5458780000000  0.4979580000000  0.4928810000000 1.0
C      1  0.5251540000000  0.5092610000000  0.5643830000000 1.0
C      1  0.4442540000000  0.5278330000000  0.5123980000000 1.0
C      1  0.4355870000000  0.4575390000000  0.4614540000000 1.0
C      1  0.4803170000000  0.5490980000000  0.4615040000000 1.0
C      1  0.4794080000000  0.4415990000000  0.4393360000000 1.0
C      1  0.5411240000000  0.5544420000000  0.4479890000000 1.0
C      1  0.4165730000000  0.4771530000000  0.5430560000000 1.0
C      1  0.4589640000000  0.5070390000000  0.4995150000000 1.0
C      1  0.4344650000000  0.4969430000000  0.5529770000000 1.0
C      1  0.5048310000000  0.4336150000000  0.4373660000000 1.0
C      1  0.4962320000000  0.5023010000000  0.4508880000000 1.0
C      1  0.5561930000000  0.5433670000000  0.5053950000000 1.0
C      1  0.4567350000000  0.4867530000000  0.5680580000000 1.0
C      1  0.5568790000000  0.5469320000000  0.5542840000000 1.0
C      1  0.5353930000000  0.4678700000000  0.4531100000000 1.0
C      1  0.4256470000000  0.4388390000000  0.4798170000000 1.0
C      1  0.4583280000000  0.5686850000000  0.4162690000000 1.0
C      1  0.5595660000000  0.4258140000000  0.4850550000000 1.0
C      1  0.5493450000000  0.4738070000000  0.4771930000000 1.0
C      1  0.5982230000000  0.5985270000000  0.5250190000000 1.0
C      1  0.4721160000000  0.4884900000000  0.4558290000000 1.0
C      1  0.4710800000000  0.5583600000000  0.4870290000000 1.0
C      1  0.5518870000000  0.5724560000000  0.4318230000000 1.0
C      1  0.5470710000000  0.4216330000000  0.4600240000000 1.0
C      1  0.4450690000000  0.5524170000000  0.4978660000000 1.0
C      1  0.4849130000000  0.4539290000000  0.5437600000000 1.0
C      1  0.5303290000000  0.4401940000000  0.4469670000000 1.0
C      1  0.4625360000000  0.4610330000000  0.4500080000000 1.0
C      1  0.5333010000000  0.4451220000000  0.5413680000000 1.0
C      1  0.4354240000000  0.5212860000000  0.5383850000000 1.0
C      1  0.4786900000000  0.5002980000000  0.5804710000000 1.0
C      1  0.5235390000000  0.5030680000000  0.5365580000000 1.0
C      1  0.4023490000000  0.5842240000000  0.4902240000000 1.0
C      1  0.4815090000000  0.4960010000000  0.5127940000000 1.0
C      1  0.5651200000000  0.5560490000000  0.5289230000000 1.0
C      1  0.4230230000000  0.5688700000000  0.4942190000000 1.0
C      1  0.5008700000000  0.5139320000000  0.5236400000000 1.0
C      1  0.5893710000000  0.3888410000000  0.5103410000000 1.0
C      1  0.5103320000000  0.4502520000000  0.5567680000000 1.0
C      1  0.4164570000000  0.4412000000000  0.5050110000000 1.0
C      1  0.5466080000000  0.4601480000000  0.5218970000000 1.0
C      1  0.4692180000000  0.5595270000000  0.4380990000000 1.0
C      1  0.5286230000000  0.5362800000000  0.4652930000000 1.0
C      1  0.5130480000000  0.4661150000000  0.5804120000000 1.0
C      1  0.5425760000000  0.5304670000000  0.5699310000000 1.0
C      1  0.5184850000000  0.4874020000000  0.4423250000000 1.0
C      1  0.5547690000000  0.4514970000000  0.4957350000000 1.0
C      1  0.5415070000000  0.4887280000000  0.5204510000000 1.0
C      1  0.4907220000000  0.5617540000000  0.5069290000000 1.0
C      1  0.4121780000000  0.4565410000000  0.5265340000000 1.0
C      1  0.5623500000000  0.5903070000000  0.4159650000000 1.0
C      1  0.5439820000000  0.5256030000000  0.4870500000000 1.0
C      1  0.4518900000000  0.4998290000000  0.4734580000000 1.0
C      1  0.5750520000000  0.4065740000000  0.4977050000000 1.0
C      1  0.4836240000000  0.4684770000000  0.5193620000000 1.0
C      1  0.5823070000000  0.5779900000000  0.5270570000000 1.0
C      1  0.4632950000000  0.4596140000000  0.5612880000000 1.0
C      1  0.5012070000000  0.5292230000000  0.4597350000000 1.0
C      1  0.4281710000000  0.4849150000000  0.4680230000000 1.0
C      1  0.4994540000000  0.5418610000000  0.5225140000000 1.0
END
