TITL C-627110-360-33 -31.2473431053231 125000 -299.746055039213 0 0 51 (C1) n - 1
REM
REM in /home/nfs/bkarasulu/CARBON/AIRSS/Generating-Clusters/LCBOP/Only-C1/SD-CG/FIRE-CG
REM
REM
REM
REM
REM
REM ./C.cell (11c1c37f851c82e70ff6c80c92926a4b)
REM AIRSS Version 0.9.1 bugfix July 2018 build 013d7b7c2542+ Fri, 06 Jul 2018 19:26:36 +0100
REM compiler GCC version 9.2.1 20190827 (Red Hat 9.2.1-1)
REM options -cpp -mtune=generic -march=x86-64 -g -O0 -fpre-include=/usr/include/finclude/math-vector-fortran.h
REM seed 770752644 1453278876 -213065319 -1454465449 1283145652 -2102791709 612402501 -178041785 2097359670 -2050900148 235808845 -1361773948 -477200772 -208595111 -2005632235 921984905 505314670 811500511 1946915008 315110386 229223078 421096581 1561084824 -369597265 -868060585 -383495945 2020746010 45531924 1471245172 1165749929 297449232 -1107972449 2028952602
REM
CELL 1.54180   50.00000   50.00000   50.00000   90.00000   90.00000   90.00000
LATT -1
SFAC C  
C      1  0.4772320000000  0.5712010000000  0.4522850000000 1.0
C      1  0.5821010000000  0.4089860000000  0.5098650000000 1.0
C      1  0.5128160000000  0.5361500000000  0.4409800000000 1.0
C      1  0.5046260000000  0.4862070000000  0.5314630000000 1.0
C      1  0.4924870000000  0.5044450000000  0.5735740000000 1.0
C      1  0.4412240000000  0.5534550000000  0.4831500000000 1.0
C      1  0.4633390000000  0.5384170000000  0.4946610000000 1.0
C      1  0.5483000000000  0.4983750000000  0.5042750000000 1.0
C      1  0.4537050000000  0.5664180000000  0.5580820000000 1.0
C      1  0.6242780000000  0.3776380000000  0.5087190000000 1.0
C      1  0.4639200000000  0.4541510000000  0.4802260000000 1.0
C      1  0.4156880000000  0.4987050000000  0.5109050000000 1.0
C      1  0.4514920000000  0.5728100000000  0.4649430000000 1.0
C      1  0.5367610000000  0.4466490000000  0.5547180000000 1.0
C      1  0.5478920000000  0.4337060000000  0.4858810000000 1.0
C      1  0.5208890000000  0.4588600000000  0.5989280000000 1.0
C      1  0.6033610000000  0.3931870000000  0.5093110000000 1.0
C      1  0.4914180000000  0.5463690000000  0.4558780000000 1.0
C      1  0.4399760000000  0.5067670000000  0.4467490000000 1.0
C      1  0.5098600000000  0.6325550000000  0.4082800000000 1.0
C      1  0.4778040000000  0.5270530000000  0.4724770000000 1.0
C      1  0.5265100000000  0.4863640000000  0.4384270000000 1.0
C      1  0.4079460000000  0.5221230000000  0.5002060000000 1.0
C      1  0.5287610000000  0.4634080000000  0.4539870000000 1.0
C      1  0.4781500000000  0.5262120000000  0.5678700000000 1.0
C      1  0.5061370000000  0.4842080000000  0.5598340000000 1.0
C      1  0.5094110000000  0.4419530000000  0.4585070000000 1.0
C      1  0.4819450000000  0.4763380000000  0.5185450000000 1.0
C      1  0.4970910000000  0.6567040000000  0.4064050000000 1.0
C      1  0.5237840000000  0.5126090000000  0.4345890000000 1.0
C      1  0.4647110000000  0.5064940000000  0.4577990000000 1.0
C      1  0.4190700000000  0.5225850000000  0.4537960000000 1.0
C      1  0.4821020000000  0.4456790000000  0.4625690000000 1.0
C      1  0.5505200000000  0.4598420000000  0.4731830000000 1.0
C      1  0.4181110000000  0.5370230000000  0.4784170000000 1.0
C      1  0.4983940000000  0.6119730000000  0.4233930000000 1.0
C      1  0.5192020000000  0.4518380000000  0.6514270000000 1.0
C      1  0.4686700000000  0.5385190000000  0.5218960000000 1.0
C      1  0.4667200000000  0.5439790000000  0.5494060000000 1.0
C      1  0.5256190000000  0.4990320000000  0.5182080000000 1.0
C      1  0.4341540000000  0.4793950000000  0.5103890000000 1.0
C      1  0.5604100000000  0.4821940000000  0.4867240000000 1.0
C      1  0.5490240000000  0.4346420000000  0.5344180000000 1.0
C      1  0.5597440000000  0.4256910000000  0.5100490000000 1.0
C      1  0.5183330000000  0.4484370000000  0.6772590000000 1.0
C      1  0.5200840000000  0.4552970000000  0.6251620000000 1.0
C      1  0.4593520000000  0.4690930000000  0.5035900000000 1.0
C      1  0.5337210000000  0.6283160000000  0.3955350000000 1.0
C      1  0.4877260000000  0.5923600000000  0.4376230000000 1.0
C      1  0.5213040000000  0.4632050000000  0.5713670000000 1.0
C      1  0.5241260000000  0.4223850000000  0.4740720000000 1.0
END
