TITL C-627110-360-736 -143.925071721702 125000 -845.608569473139 0 0 140 (C1) n - 1
REM
REM in /home/nfs/bkarasulu/CARBON/AIRSS/Generating-Clusters/LCBOP/Only-C1/SD-CG/FIRE-CG
REM
REM
REM
REM
REM
REM ./C.cell (11c1c37f851c82e70ff6c80c92926a4b)
REM AIRSS Version 0.9.1 bugfix July 2018 build 013d7b7c2542+ Fri, 06 Jul 2018 19:26:36 +0100
REM compiler GCC version 9.2.1 20190827 (Red Hat 9.2.1-1)
REM options -cpp -mtune=generic -march=x86-64 -g -O0 -fpre-include=/usr/include/finclude/math-vector-fortran.h
REM seed -254665298 -2077633552 2030786589 -991445258 -1252565026 807547513 664802821 -1769031775 -1236966498 -750492775 -1514279194 -359665510 -683347688 649000507 449337900 583612424 -490396799 -1786236035 1649267627 1356605527 1177308326 -130868745 733836495 1074134076 524095009 1987304075 -715512349 -1846202057 -1102003997 2105748189 1203529336 1042186714 -1015917106
REM
CELL 1.54180   50.00000   50.00000   50.00000   90.00000   90.00000   90.00000
LATT -1
SFAC C  
C      1  0.4712450000000  0.5880330000000  0.4365210000000 1.0
C      1  0.5022470000000  0.4826180000000  0.5274570000000 1.0
C      1  0.4807990000000  0.4648210000000  0.5395930000000 1.0
C      1  0.4023250000000  0.4827280000000  0.5311300000000 1.0
C      1  0.4848190000000  0.5745920000000  0.5666470000000 1.0
C      1  0.4440860000000  0.5307740000000  0.5849380000000 1.0
C      1  0.5740570000000  0.5304610000000  0.5669900000000 1.0
C      1  0.6048340000000  0.4809040000000  0.4784320000000 1.0
C      1  0.4565120000000  0.5700400000000  0.5627050000000 1.0
C      1  0.4564140000000  0.4765950000000  0.5286920000000 1.0
C      1  0.4900710000000  0.4441320000000  0.4803690000000 1.0
C      1  0.5636650000000  0.4282280000000  0.5435790000000 1.0
C      1  0.5747480000000  0.4775020000000  0.5433120000000 1.0
C      1  0.4756990000000  0.3940310000000  0.4591890000000 1.0
C      1  0.5974190000000  0.4952860000000  0.4557530000000 1.0
C      1  0.3923180000000  0.5222030000000  0.5040410000000 1.0
C      1  0.4906940000000  0.5285200000000  0.5161430000000 1.0
C      1  0.4645180000000  0.5187300000000  0.5999570000000 1.0
C      1  0.5144050000000  0.5214650000000  0.6110050000000 1.0
C      1  0.5836840000000  0.5142180000000  0.4428530000000 1.0
C      1  0.4588890000000  0.6146160000000  0.5106050000000 1.0
C      1  0.5490610000000  0.5562320000000  0.5022380000000 1.0
C      1  0.4982560000000  0.5929580000000  0.5474260000000 1.0
C      1  0.5156120000000  0.4004400000000  0.4305960000000 1.0
C      1  0.4492470000000  0.5319500000000  0.4887680000000 1.0
C      1  0.5979240000000  0.4475070000000  0.5123370000000 1.0
C      1  0.5421510000000  0.3328710000000  0.3945480000000 1.0
C      1  0.4788820000000  0.4162150000000  0.5534140000000 1.0
C      1  0.4348450000000  0.5457160000000  0.5122160000000 1.0
C      1  0.4661550000000  0.4868860000000  0.4111680000000 1.0
C      1  0.5374700000000  0.5279900000000  0.3956550000000 1.0
C      1  0.5265840000000  0.5874730000000  0.5394030000000 1.0
C      1  0.5694970000000  0.4586150000000  0.5643480000000 1.0
C      1  0.5185470000000  0.5455730000000  0.4681370000000 1.0
C      1  0.4869930000000  0.4251310000000  0.5070660000000 1.0
C      1  0.4346350000000  0.4601280000000  0.5679860000000 1.0
C      1  0.5978180000000  0.5645620000000  0.4918350000000 1.0
C      1  0.5681320000000  0.4679080000000  0.6143340000000 1.0
C      1  0.5014750000000  0.5104450000000  0.5333500000000 1.0
C      1  0.4492440000000  0.5710740000000  0.5107900000000 1.0
C      1  0.5256210000000  0.3775820000000  0.4176890000000 1.0
C      1  0.4919960000000  0.4367290000000  0.5357520000000 1.0
C      1  0.5377890000000  0.4202160000000  0.5311050000000 1.0
C      1  0.4703810000000  0.5150210000000  0.4995840000000 1.0
C      1  0.4147910000000  0.5574670000000  0.4733330000000 1.0
C      1  0.6147380000000  0.5195550000000  0.5079680000000 1.0
C      1  0.5201740000000  0.4534010000000  0.4168830000000 1.0
C      1  0.4868470000000  0.4801850000000  0.3949140000000 1.0
C      1  0.4803720000000  0.5421880000000  0.4356530000000 1.0
C      1  0.4384930000000  0.5912400000000  0.5655980000000 1.0
C      1  0.4776710000000  0.5732250000000  0.5128730000000 1.0
C      1  0.4511210000000  0.3982890000000  0.4694260000000 1.0
C      1  0.4893770000000  0.4016730000000  0.5736210000000 1.0
C      1  0.5248120000000  0.4653600000000  0.5244340000000 1.0
C      1  0.4071260000000  0.5459100000000  0.4999300000000 1.0
C      1  0.5119180000000  0.4746690000000  0.5763520000000 1.0
C      1  0.4520110000000  0.4164240000000  0.5423910000000 1.0
C      1  0.4422480000000  0.4560350000000  0.4682570000000 1.0
C      1  0.5143730000000  0.5162030000000  0.5568420000000 1.0
C      1  0.5390350000000  0.4960220000000  0.4951440000000 1.0
C      1  0.4148640000000  0.4760710000000  0.5543040000000 1.0
C      1  0.6140170000000  0.5451420000000  0.5005080000000 1.0
C      1  0.5040110000000  0.3963590000000  0.4570720000000 1.0
C      1  0.5213050000000  0.4906030000000  0.4482410000000 1.0
C      1  0.5683420000000  0.4590250000000  0.6388310000000 1.0
C      1  0.4110290000000  0.5383150000000  0.4236190000000 1.0
C      1  0.4606440000000  0.5623040000000  0.4300390000000 1.0
C      1  0.4590910000000  0.4958050000000  0.4371430000000 1.0
C      1  0.4161390000000  0.4551200000000  0.4790630000000 1.0
C      1  0.4980160000000  0.5544890000000  0.5096390000000 1.0
C      1  0.6040150000000  0.4525930000000  0.4845930000000 1.0
C      1  0.5494880000000  0.5105740000000  0.5181070000000 1.0
C      1  0.4746710000000  0.4868120000000  0.4593550000000 1.0
C      1  0.5522510000000  0.4946000000000  0.5422570000000 1.0
C      1  0.4921020000000  0.5357530000000  0.4613080000000 1.0
C      1  0.5555250000000  0.5376240000000  0.5219990000000 1.0
C      1  0.4224170000000  0.5858040000000  0.4765960000000 1.0
C      1  0.4335840000000  0.5546540000000  0.4214190000000 1.0
C      1  0.5117080000000  0.5434880000000  0.3967790000000 1.0
C      1  0.6051160000000  0.4936800000000  0.5049110000000 1.0
C      1  0.5321510000000  0.5978360000000  0.5099960000000 1.0
C      1  0.5542840000000  0.5440020000000  0.4149020000000 1.0
C      1  0.4462330000000  0.5432060000000  0.5600970000000 1.0
C      1  0.5341410000000  0.3553150000000  0.4061520000000 1.0
C      1  0.5174250000000  0.4251420000000  0.4162040000000 1.0
C      1  0.4694010000000  0.4612190000000  0.4699840000000 1.0
C      1  0.4841680000000  0.4685120000000  0.5694880000000 1.0
C      1  0.3984240000000  0.5170330000000  0.4365940000000 1.0
C      1  0.3967010000000  0.4966370000000  0.4553260000000 1.0
C      1  0.5608710000000  0.5477760000000  0.5479120000000 1.0
C      1  0.4596510000000  0.4908690000000  0.6029580000000 1.0
C      1  0.4814110000000  0.6001300000000  0.5244800000000 1.0
C      1  0.5216140000000  0.5559790000000  0.4940540000000 1.0
C      1  0.5205530000000  0.3924440000000  0.4809960000000 1.0
C      1  0.5152510000000  0.4750000000000  0.3972180000000 1.0
C      1  0.5410220000000  0.4680830000000  0.5018220000000 1.0
C      1  0.4585500000000  0.4710490000000  0.5825990000000 1.0
C      1  0.4392800000000  0.5955030000000  0.4983760000000 1.0
C      1  0.5110340000000  0.5077410000000  0.4284980000000 1.0
C      1  0.5334110000000  0.4985450000000  0.3915620000000 1.0
C      1  0.5179960000000  0.4994170000000  0.4759840000000 1.0
C      1  0.5406020000000  0.5665220000000  0.5573270000000 1.0
C      1  0.5230270000000  0.5919000000000  0.4522750000000 1.0
C      1  0.4987870000000  0.5567060000000  0.5843650000000 1.0
C      1  0.5200140000000  0.4628520000000  0.4436620000000 1.0
C      1  0.4204720000000  0.6106160000000  0.5668390000000 1.0
C      1  0.5625470000000  0.5319570000000  0.4385730000000 1.0
C      1  0.5498410000000  0.3107770000000  0.3830420000000 1.0
C      1  0.4028620000000  0.6298360000000  0.5667450000000 1.0
C      1  0.4895100000000  0.5331620000000  0.6010690000000 1.0
C      1  0.5209520000000  0.4410490000000  0.5376670000000 1.0
C      1  0.5404280000000  0.3734560000000  0.4798930000000 1.0
C      1  0.4879140000000  0.5080980000000  0.4756210000000 1.0
C      1  0.5393930000000  0.4475680000000  0.4831540000000 1.0
C      1  0.4350290000000  0.5362440000000  0.4644450000000 1.0
C      1  0.5305160000000  0.4934310000000  0.5632910000000 1.0
C      1  0.5950330000000  0.4745380000000  0.5240610000000 1.0
C      1  0.4351430000000  0.4330570000000  0.5578730000000 1.0
C      1  0.4965160000000  0.5292350000000  0.4164510000000 1.0
C      1  0.4418950000000  0.5285520000000  0.5358080000000 1.0
C      1  0.5864630000000  0.4266230000000  0.5270760000000 1.0
C      1  0.5354190000000  0.5742310000000  0.4237460000000 1.0
C      1  0.5162340000000  0.4469190000000  0.4670160000000 1.0
C      1  0.4951650000000  0.5969410000000  0.4459380000000 1.0
C      1  0.4152860000000  0.4282100000000  0.4897770000000 1.0
C      1  0.5666500000000  0.4778840000000  0.5885390000000 1.0
C      1  0.5428890000000  0.5360140000000  0.4579060000000 1.0
C      1  0.4416200000000  0.5163940000000  0.4450470000000 1.0
C      1  0.5169450000000  0.4067940000000  0.5050730000000 1.0
C      1  0.5614320000000  0.5137220000000  0.5870840000000 1.0
C      1  0.4387700000000  0.4112130000000  0.4915460000000 1.0
C      1  0.5306990000000  0.5986650000000  0.4811380000000 1.0
C      1  0.4569210000000  0.4152500000000  0.5129300000000 1.0
C      1  0.3970850000000  0.4939980000000  0.5053090000000 1.0
C      1  0.5162400000000  0.5712330000000  0.4032040000000 1.0
C      1  0.5384300000000  0.5301850000000  0.5968560000000 1.0
C      1  0.5281800000000  0.5551250000000  0.5814970000000 1.0
C      1  0.5714120000000  0.5690950000000  0.4908500000000 1.0
C      1  0.4015290000000  0.4804190000000  0.4796510000000 1.0
C      1  0.4533720000000  0.5037080000000  0.5233930000000 1.0
END
