TITL C-627107-135-168 1716.5345140483 125000 -776.584004874892 0 0 126 (C1) n - 1
REM
REM in /home/nfs/bkarasulu/CARBON/AIRSS/Generating-Clusters/LCBOP/Only-C1/SD-CG/FIRE-CG
REM
REM
REM
REM
REM
REM ./C.cell (11c1c37f851c82e70ff6c80c92926a4b)
REM AIRSS Version 0.9.1 bugfix July 2018 build 013d7b7c2542+ Fri, 06 Jul 2018 19:26:36 +0100
REM compiler GCC version 9.2.1 20190827 (Red Hat 9.2.1-1)
REM options -cpp -mtune=generic -march=x86-64 -g -O0 -fpre-include=/usr/include/finclude/math-vector-fortran.h
REM seed 971104544 1838907512 306069748 -1872915651 -913014822 1146043158 460424902 350810041 1971631051 -2085715506 169582314 1045034847 -1252675741 1939632572 1981138605 -1855185210 396313374 -1544740156 -1393580781 823620791 -492354720 1624751424 -1262591554 877815124 2021437606 1588809070 1017384065 -999324431 1177549785 -1179462829 -1128659782 -1375582072 1387763328
REM
CELL 1.54180   50.00000   50.00000   50.00000   90.00000   90.00000   90.00000
LATT -1
SFAC C  
C      1  0.5372440000000  0.4507380000000  0.5612510000000 1.0
C      1  0.5531940000000  0.6028220000000  0.4780180000000 1.0
C      1  0.5090620000000  0.4576310000000  0.5655110000000 1.0
C      1  0.5052200000000  0.4140040000000  0.4651080000000 1.0
C      1  0.5423200000000  0.5472110000000  0.4354860000000 1.0
C      1  0.4867240000000  0.3830130000000  0.5142770000000 1.0
C      1  0.4658900000000  0.4759230000000  0.6138320000000 1.0
C      1  0.5478520000000  0.5648430000000  0.5377960000000 1.0
C      1  0.4238660000000  0.4425850000000  0.4892830000000 1.0
C      1  0.4599950000000  0.4294580000000  0.4273870000000 1.0
C      1  0.5342960000000  0.4434660000000  0.4163550000000 1.0
C      1  0.4951170000000  0.5372780000000  0.5194390000000 1.0
C      1  0.4651850000000  0.5235600000000  0.5702410000000 1.0
C      1  0.5005560000000  0.4485720000000  0.5167850000000 1.0
C      1  0.4876950000000  0.4594990000000  0.5439690000000 1.0
C      1  0.4521740000000  0.5940280000000  0.5902460000000 1.0
C      1  0.4771100000000  0.5926170000000  0.5482540000000 1.0
C      1  0.4713080000000  0.6133520000000  0.5005620000000 1.0
C      1  0.5787220000000  0.5968340000000  0.4848180000000 1.0
C      1  0.5096920000000  0.5271190000000  0.5946980000000 1.0
C      1  0.4693450000000  0.3968160000000  0.4959500000000 1.0
C      1  0.4431110000000  0.6082520000000  0.6106690000000 1.0
C      1  0.5400440000000  0.5537490000000  0.5120260000000 1.0
C      1  0.4549020000000  0.4192390000000  0.4535100000000 1.0
C      1  0.5408050000000  0.4964300000000  0.4816160000000 1.0
C      1  0.5885780000000  0.4649710000000  0.5368710000000 1.0
C      1  0.5228340000000  0.3702880000000  0.4828030000000 1.0
C      1  0.4767190000000  0.4093890000000  0.4706330000000 1.0
C      1  0.5263090000000  0.4654620000000  0.4024600000000 1.0
C      1  0.5688080000000  0.4466190000000  0.5247220000000 1.0
C      1  0.5783330000000  0.4601070000000  0.4755840000000 1.0
C      1  0.5230230000000  0.4319760000000  0.5204560000000 1.0
C      1  0.3935070000000  0.4725900000000  0.5104770000000 1.0
C      1  0.5330960000000  0.5131910000000  0.5978870000000 1.0
C      1  0.4413550000000  0.4414380000000  0.4098810000000 1.0
C      1  0.4746640000000  0.4123530000000  0.5545230000000 1.0
C      1  0.5494890000000  0.4994900000000  0.5263160000000 1.0
C      1  0.5787760000000  0.4788720000000  0.5629620000000 1.0
C      1  0.4841690000000  0.3909720000000  0.5412490000000 1.0
C      1  0.4955750000000  0.5351410000000  0.4066440000000 1.0
C      1  0.5451280000000  0.4374520000000  0.5376810000000 1.0
C      1  0.5746100000000  0.5115590000000  0.5329090000000 1.0
C      1  0.5766870000000  0.5179920000000  0.4577460000000 1.0
C      1  0.5562240000000  0.5193560000000  0.4780480000000 1.0
C      1  0.6026670000000  0.4809220000000  0.5142330000000 1.0
C      1  0.5351770000000  0.4853430000000  0.5924550000000 1.0
C      1  0.5272630000000  0.4926930000000  0.4111270000000 1.0
C      1  0.4222830000000  0.4622020000000  0.5492640000000 1.0
C      1  0.6062060000000  0.5252840000000  0.4946610000000 1.0
C      1  0.5535290000000  0.4998970000000  0.4208370000000 1.0
C      1  0.4476010000000  0.5766090000000  0.5118080000000 1.0
C      1  0.5490150000000  0.5450920000000  0.4855020000000 1.0
C      1  0.4091250000000  0.5314670000000  0.4868860000000 1.0
C      1  0.4629690000000  0.5791840000000  0.5692150000000 1.0
C      1  0.4699050000000  0.5035820000000  0.3785070000000 1.0
C      1  0.5994800000000  0.4790190000000  0.4833720000000 1.0
C      1  0.3975710000000  0.4676380000000  0.5367350000000 1.0
C      1  0.4169170000000  0.5145150000000  0.4647280000000 1.0
C      1  0.4646920000000  0.5453240000000  0.4770700000000 1.0
C      1  0.5655360000000  0.4576070000000  0.4499950000000 1.0
C      1  0.5187810000000  0.4395470000000  0.4618570000000 1.0
C      1  0.4125380000000  0.4685920000000  0.4899180000000 1.0
C      1  0.5984860000000  0.5100840000000  0.5176650000000 1.0
C      1  0.4593970000000  0.5084410000000  0.4449700000000 1.0
C      1  0.5543500000000  0.4697090000000  0.5758250000000 1.0
C      1  0.4676710000000  0.5980420000000  0.4774490000000 1.0
C      1  0.5205740000000  0.5498160000000  0.4164630000000 1.0
C      1  0.5317010000000  0.5854160000000  0.4715990000000 1.0
C      1  0.4330790000000  0.4295120000000  0.5130770000000 1.0
C      1  0.4845450000000  0.5144640000000  0.5893430000000 1.0
C      1  0.4337580000000  0.5178550000000  0.5299970000000 1.0
C      1  0.5620870000000  0.4582640000000  0.4993870000000 1.0
C      1  0.5414450000000  0.4424920000000  0.4441760000000 1.0
C      1  0.4857110000000  0.5262550000000  0.3789910000000 1.0
C      1  0.4600320000000  0.5512180000000  0.5687000000000 1.0
C      1  0.5215800000000  0.3908660000000  0.4655280000000 1.0
C      1  0.5610760000000  0.5242710000000  0.4335770000000 1.0
C      1  0.5414940000000  0.5604830000000  0.4613960000000 1.0
C      1  0.4687920000000  0.5481730000000  0.4171520000000 1.0
C      1  0.5655750000000  0.5544770000000  0.5573290000000 1.0
C      1  0.5169610000000  0.4925700000000  0.4685000000000 1.0
C      1  0.5072980000000  0.3667110000000  0.5044790000000 1.0
C      1  0.4391810000000  0.4422500000000  0.5379560000000 1.0
C      1  0.4649660000000  0.5173430000000  0.4720630000000 1.0
C      1  0.4842820000000  0.4431520000000  0.4265520000000 1.0
C      1  0.4356510000000  0.4831750000000  0.5625460000000 1.0
C      1  0.5476890000000  0.4823160000000  0.5039790000000 1.0
C      1  0.4867020000000  0.4672700000000  0.4411140000000 1.0
C      1  0.5765920000000  0.5341410000000  0.5716410000000 1.0
C      1  0.5108660000000  0.5577500000000  0.5079800000000 1.0
C      1  0.4764720000000  0.4916520000000  0.4268750000000 1.0
C      1  0.4987840000000  0.5117630000000  0.5318400000000 1.0
C      1  0.4770290000000  0.4895430000000  0.5340750000000 1.0
C      1  0.4447260000000  0.4044660000000  0.5075530000000 1.0
C      1  0.5802380000000  0.5081490000000  0.5611850000000 1.0
C      1  0.4538200000000  0.4963280000000  0.4879720000000 1.0
C      1  0.5026940000000  0.4654880000000  0.4673150000000 1.0
C      1  0.5081430000000  0.4735410000000  0.5891780000000 1.0
C      1  0.4315960000000  0.4295210000000  0.4656980000000 1.0
C      1  0.4346010000000  0.6224280000000  0.6313860000000 1.0
C      1  0.4634000000000  0.5980010000000  0.5240870000000 1.0
C      1  0.4269810000000  0.4903210000000  0.4790790000000 1.0
C      1  0.4172440000000  0.4743370000000  0.3841490000000 1.0
C      1  0.4894860000000  0.4627740000000  0.4945570000000 1.0
C      1  0.5697300000000  0.4776630000000  0.4298890000000 1.0
C      1  0.5252470000000  0.5056350000000  0.5385840000000 1.0
C      1  0.5972810000000  0.5780010000000  0.4897000000000 1.0
C      1  0.4533850000000  0.5038390000000  0.5497400000000 1.0
C      1  0.4247460000000  0.5630540000000  0.5197670000000 1.0
C      1  0.4848660000000  0.4870960000000  0.5978430000000 1.0
C      1  0.4616100000000  0.4860350000000  0.4000200000000 1.0
C      1  0.5301050000000  0.5852580000000  0.5470630000000 1.0
C      1  0.4333080000000  0.5218620000000  0.4404370000000 1.0
C      1  0.5021950000000  0.5063730000000  0.4171680000000 1.0
C      1  0.5099890000000  0.5800750000000  0.4896890000000 1.0
C      1  0.4399340000000  0.4671820000000  0.3977810000000 1.0
C      1  0.4708740000000  0.4823800000000  0.5044380000000 1.0
C      1  0.4423100000000  0.5439740000000  0.4241270000000 1.0
C      1  0.4194820000000  0.5361510000000  0.5134200000000 1.0
C      1  0.5996960000000  0.5073720000000  0.4718380000000 1.0
C      1  0.4578330000000  0.5715310000000  0.4844880000000 1.0
C      1  0.6072340000000  0.5532780000000  0.4929120000000 1.0
C      1  0.5051940000000  0.5946170000000  0.5500680000000 1.0
C      1  0.4655790000000  0.4386710000000  0.5487430000000 1.0
C      1  0.5056600000000  0.5160190000000  0.4609240000000 1.0
C      1  0.4264170000000  0.6363310000000  0.6518650000000 1.0
END
