TITL C-627108-131-1453 2567.79049496082 125000 -924.338819161267 0 0 152 (C1) n - 1
REM
REM in /home/nfs/bkarasulu/CARBON/AIRSS/Generating-Clusters/LCBOP/Only-C1/SD-CG/FIRE-CG
REM
REM
REM
REM
REM
REM ./C.cell (11c1c37f851c82e70ff6c80c92926a4b)
REM AIRSS Version 0.9.1 bugfix July 2018 build 013d7b7c2542+ Fri, 06 Jul 2018 19:26:36 +0100
REM compiler GCC version 9.2.1 20190827 (Red Hat 9.2.1-1)
REM options -cpp -mtune=generic -march=x86-64 -g -O0 -fpre-include=/usr/include/finclude/math-vector-fortran.h
REM seed 2040278019 -2127484048 671382608 -153169085 1304315632 -1067160901 -773565694 -466420921 2115944553 -1090168545 -1342052642 1931830635 -1047758739 1676231099 -52297820 835449654 -848563290 417036179 452124160 1631308722 -1559826707 -1689618028 1827599766 375959459 399441653 -375446812 -137966457 -1883390873 -1752278746 1517090815 988541512 1936687760 1727764901
REM
CELL 1.54180   50.00000   50.00000   50.00000   90.00000   90.00000   90.00000
LATT -1
SFAC C  
C      1  0.5214330000000  0.6151780000000  0.4348710000000 1.0
C      1  0.3916960000000  0.5668350000000  0.4816440000000 1.0
C      1  0.3873450000000  0.5573530000000  0.5087600000000 1.0
C      1  0.5072930000000  0.5051810000000  0.5242950000000 1.0
C      1  0.4891530000000  0.5199830000000  0.5661410000000 1.0
C      1  0.5403960000000  0.4146940000000  0.4149330000000 1.0
C      1  0.3787740000000  0.5037840000000  0.5031190000000 1.0
C      1  0.4235980000000  0.3830880000000  0.4589690000000 1.0
C      1  0.4531570000000  0.5015970000000  0.4626690000000 1.0
C      1  0.5648590000000  0.4038100000000  0.4900830000000 1.0
C      1  0.5037340000000  0.5284200000000  0.4552430000000 1.0
C      1  0.4480960000000  0.5572090000000  0.5860190000000 1.0
C      1  0.5239740000000  0.3977120000000  0.4294630000000 1.0
C      1  0.5321340000000  0.5982130000000  0.4543380000000 1.0
C      1  0.5369840000000  0.5368160000000  0.5942910000000 1.0
C      1  0.4698970000000  0.4686670000000  0.5019790000000 1.0
C      1  0.4239670000000  0.5084420000000  0.5285370000000 1.0
C      1  0.4142600000000  0.4840730000000  0.4805350000000 1.0
C      1  0.5470040000000  0.5990050000000  0.5304820000000 1.0
C      1  0.3912920000000  0.5027040000000  0.4764850000000 1.0
C      1  0.4967310000000  0.3841520000000  0.4837180000000 1.0
C      1  0.5887700000000  0.4574930000000  0.4452000000000 1.0
C      1  0.5354560000000  0.5037720000000  0.5225670000000 1.0
C      1  0.5993480000000  0.5434020000000  0.5389680000000 1.0
C      1  0.5019570000000  0.5934470000000  0.5690180000000 1.0
C      1  0.5523400000000  0.5433160000000  0.5437480000000 1.0
C      1  0.4702150000000  0.5340640000000  0.5216890000000 1.0
C      1  0.5419260000000  0.5722710000000  0.4468280000000 1.0
C      1  0.4767450000000  0.5877640000000  0.5545040000000 1.0
C      1  0.5109510000000  0.4245640000000  0.4908410000000 1.0
C      1  0.5536710000000  0.4656310000000  0.5978680000000 1.0
C      1  0.5570850000000  0.4121430000000  0.5162980000000 1.0
C      1  0.4734820000000  0.5387950000000  0.5504190000000 1.0
C      1  0.5457970000000  0.5106190000000  0.5913620000000 1.0
C      1  0.4091300000000  0.5659790000000  0.4380220000000 1.0
C      1  0.5269100000000  0.5545670000000  0.5480610000000 1.0
C      1  0.5150230000000  0.5610230000000  0.5220510000000 1.0
C      1  0.4162640000000  0.5847410000000  0.4804210000000 1.0
C      1  0.6018470000000  0.5159190000000  0.4960280000000 1.0
C      1  0.4563680000000  0.5749780000000  0.4484920000000 1.0
C      1  0.5236560000000  0.4038530000000  0.5515490000000 1.0
C      1  0.5499640000000  0.4333600000000  0.4587340000000 1.0
C      1  0.5660470000000  0.4847930000000  0.4100430000000 1.0
C      1  0.5578130000000  0.5050200000000  0.5666650000000 1.0
C      1  0.3936130000000  0.5508890000000  0.4576100000000 1.0
C      1  0.4822980000000  0.5331280000000  0.4378730000000 1.0
C      1  0.5889190000000  0.4191030000000  0.4813460000000 1.0
C      1  0.6010610000000  0.5433170000000  0.5090440000000 1.0
C      1  0.4490990000000  0.4262340000000  0.4099110000000 1.0
C      1  0.4656650000000  0.5107020000000  0.4367330000000 1.0
C      1  0.4950370000000  0.4588890000000  0.5120450000000 1.0
C      1  0.5879120000000  0.5189550000000  0.4448060000000 1.0
C      1  0.5797380000000  0.5713130000000  0.4756340000000 1.0
C      1  0.5046440000000  0.4356210000000  0.5822830000000 1.0
C      1  0.5185180000000  0.4491080000000  0.5008100000000 1.0
C      1  0.5671040000000  0.4594160000000  0.5731270000000 1.0
C      1  0.5278350000000  0.4284580000000  0.5654590000000 1.0
C      1  0.5197050000000  0.4770390000000  0.3847360000000 1.0
C      1  0.4796750000000  0.3884590000000  0.5386350000000 1.0
C      1  0.4615120000000  0.4976520000000  0.4121470000000 1.0
C      1  0.4630020000000  0.3903240000000  0.4945770000000 1.0
C      1  0.4328940000000  0.4779990000000  0.4590880000000 1.0
C      1  0.5050190000000  0.5727490000000  0.5896710000000 1.0
C      1  0.5326420000000  0.6067070000000  0.4812110000000 1.0
C      1  0.5454220000000  0.4890030000000  0.5002770000000 1.0
C      1  0.5518870000000  0.5156060000000  0.5419120000000 1.0
C      1  0.5208930000000  0.5043280000000  0.4574970000000 1.0
C      1  0.5386450000000  0.5626210000000  0.4214340000000 1.0
C      1  0.4770710000000  0.5921740000000  0.5259510000000 1.0
C      1  0.5036240000000  0.5875520000000  0.5158780000000 1.0
C      1  0.4829990000000  0.4759990000000  0.5528010000000 1.0
C      1  0.4626830000000  0.4615960000000  0.5923190000000 1.0
C      1  0.4949700000000  0.4549080000000  0.5396670000000 1.0
C      1  0.4556540000000  0.4772670000000  0.5464520000000 1.0
C      1  0.4353110000000  0.4994600000000  0.4007650000000 1.0
C      1  0.4280790000000  0.4445270000000  0.5260750000000 1.0
C      1  0.5273810000000  0.6025310000000  0.5083000000000 1.0
C      1  0.4977900000000  0.4991670000000  0.5500080000000 1.0
C      1  0.5457760000000  0.5372140000000  0.4833900000000 1.0
C      1  0.6069590000000  0.5207120000000  0.5541080000000 1.0
C      1  0.5898050000000  0.4738980000000  0.5618610000000 1.0
C      1  0.4808340000000  0.4190750000000  0.5770710000000 1.0
C      1  0.5988220000000  0.5063160000000  0.4681770000000 1.0
C      1  0.5742160000000  0.4588470000000  0.4197360000000 1.0
C      1  0.4945650000000  0.4688700000000  0.3898000000000 1.0
C      1  0.4431120000000  0.4225810000000  0.5397190000000 1.0
C      1  0.5026680000000  0.5456020000000  0.4777030000000 1.0
C      1  0.4032830000000  0.5231770000000  0.5377160000000 1.0
C      1  0.4540360000000  0.5814190000000  0.5118820000000 1.0
C      1  0.5065290000000  0.3941000000000  0.5316740000000 1.0
C      1  0.5423250000000  0.5080160000000  0.4774270000000 1.0
C      1  0.4567890000000  0.4324150000000  0.5706210000000 1.0
C      1  0.5096940000000  0.3992220000000  0.5041020000000 1.0
C      1  0.4753990000000  0.4708220000000  0.4122590000000 1.0
C      1  0.4429210000000  0.3857770000000  0.4762440000000 1.0
C      1  0.4650720000000  0.5138790000000  0.6064520000000 1.0
C      1  0.6034750000000  0.4313780000000  0.5022910000000 1.0
C      1  0.6031810000000  0.4946090000000  0.5160980000000 1.0
C      1  0.4507210000000  0.4519340000000  0.4186760000000 1.0
C      1  0.4580990000000  0.5539310000000  0.5065650000000 1.0
C      1  0.6020380000000  0.4939330000000  0.5449400000000 1.0
C      1  0.5510250000000  0.4434130000000  0.5554810000000 1.0
C      1  0.3831130000000  0.4770330000000  0.5176250000000 1.0
C      1  0.4613220000000  0.5606290000000  0.4032880000000 1.0
C      1  0.4131110000000  0.5638190000000  0.4104350000000 1.0
C      1  0.5721770000000  0.5815010000000  0.5253430000000 1.0
C      1  0.5212020000000  0.3912280000000  0.4578190000000 1.0
C      1  0.4932230000000  0.4600190000000  0.5949240000000 1.0
C      1  0.4008310000000  0.4558880000000  0.5235670000000 1.0
C      1  0.4490000000000  0.4639480000000  0.5218120000000 1.0
C      1  0.5763070000000  0.5081060000000  0.4227380000000 1.0
C      1  0.4167410000000  0.4838890000000  0.4136510000000 1.0
C      1  0.5163860000000  0.4776460000000  0.4472460000000 1.0
C      1  0.5790010000000  0.4360660000000  0.4605340000000 1.0
C      1  0.5283840000000  0.6019860000000  0.5555800000000 1.0
C      1  0.4035310000000  0.5251500000000  0.4634080000000 1.0
C      1  0.5570840000000  0.5577520000000  0.4661700000000 1.0
C      1  0.5097870000000  0.6298290000000  0.4167350000000 1.0
C      1  0.4291730000000  0.5804410000000  0.4547550000000 1.0
C      1  0.4292650000000  0.4663910000000  0.4328950000000 1.0
C      1  0.4905760000000  0.5095070000000  0.5931650000000 1.0
C      1  0.4921400000000  0.4272210000000  0.4698800000000 1.0
C      1  0.4519200000000  0.4871030000000  0.6029720000000 1.0
C      1  0.4254560000000  0.4948770000000  0.5051910000000 1.0
C      1  0.4846070000000  0.5133500000000  0.5079830000000 1.0
C      1  0.5588730000000  0.4348880000000  0.4115290000000 1.0
C      1  0.5352980000000  0.4568280000000  0.4527310000000 1.0
C      1  0.6014310000000  0.4783900000000  0.4601720000000 1.0
C      1  0.5349010000000  0.4869020000000  0.6022310000000 1.0
C      1  0.5231830000000  0.5546100000000  0.5773510000000 1.0
C      1  0.5442670000000  0.4059440000000  0.4694570000000 1.0
C      1  0.4871150000000  0.5610290000000  0.6092890000000 1.0
C      1  0.4829530000000  0.4444460000000  0.4522780000000 1.0
C      1  0.4266890000000  0.5880750000000  0.5074780000000 1.0
C      1  0.4628400000000  0.5628930000000  0.5622800000000 1.0
C      1  0.4709450000000  0.4952840000000  0.4889410000000 1.0
C      1  0.4324080000000  0.5244010000000  0.4662310000000 1.0
C      1  0.5602030000000  0.4415060000000  0.5262230000000 1.0
C      1  0.5753360000000  0.5590370000000  0.5439380000000 1.0
C      1  0.5064150000000  0.4852700000000  0.5998480000000 1.0
C      1  0.4054480000000  0.5756080000000  0.5239670000000 1.0
C      1  0.3837460000000  0.5299260000000  0.5176850000000 1.0
C      1  0.4628770000000  0.5437310000000  0.6069830000000 1.0
C      1  0.5224760000000  0.5475830000000  0.4978040000000 1.0
C      1  0.5439740000000  0.4603290000000  0.5066090000000 1.0
C      1  0.4916660000000  0.4668310000000  0.4376850000000 1.0
C      1  0.4354920000000  0.5624040000000  0.3954320000000 1.0
C      1  0.5882320000000  0.5698290000000  0.5020810000000 1.0
C      1  0.4705710000000  0.5581200000000  0.4300720000000 1.0
C      1  0.5440300000000  0.4852580000000  0.3923790000000 1.0
C      1  0.4579620000000  0.4006020000000  0.5234990000000 1.0
C      1  0.5901480000000  0.4445310000000  0.5220870000000 1.0
END
