TITL C-627108-131-734 0.389317883894012 125000 -299.461292361067 0 0 51 (C1) n - 1
REM
REM in /home/nfs/bkarasulu/CARBON/AIRSS/Generating-Clusters/LCBOP/Only-C1/SD-CG/FIRE-CG
REM
REM
REM
REM
REM
REM ./C.cell (11c1c37f851c82e70ff6c80c92926a4b)
REM AIRSS Version 0.9.1 bugfix July 2018 build 013d7b7c2542+ Fri, 06 Jul 2018 19:26:36 +0100
REM compiler GCC version 9.2.1 20190827 (Red Hat 9.2.1-1)
REM options -cpp -mtune=generic -march=x86-64 -g -O0 -fpre-include=/usr/include/finclude/math-vector-fortran.h
REM seed -331872924 777228082 -705181148 1204566203 -978641020 -2145691996 -930528847 14754977 -1479334956 1301897972 1795091969 1668196877 318348557 -991427079 1081615073 422796407 -1151915385 1601060449 1873023174 -1238826915 -2044579702 -493788574 1952985680 165956197 1538694241 1027883189 1902999923 -1984490553 1890250751 -1809542920 -1977556072 -1833549295 -124529178
REM
CELL 1.54180   50.00000   50.00000   50.00000   90.00000   90.00000   90.00000
LATT -1
SFAC C  
C      1  0.3743720000000  0.5350960000000  0.4360130000000 1.0
C      1  0.3961600000000  0.5023690000000  0.4633070000000 1.0
C      1  0.5840850000000  0.3792820000000  0.4718700000000 1.0
C      1  0.5512020000000  0.4784460000000  0.5476820000000 1.0
C      1  0.5568670000000  0.4681800000000  0.4988410000000 1.0
C      1  0.5614690000000  0.3924960000000  0.4678200000000 1.0
C      1  0.5138440000000  0.5180010000000  0.4624980000000 1.0
C      1  0.5161610000000  0.4193320000000  0.4620160000000 1.0
C      1  0.5191180000000  0.5522340000000  0.4960350000000 1.0
C      1  0.5058440000000  0.5344310000000  0.5394250000000 1.0
C      1  0.5197790000000  0.5501880000000  0.5228360000000 1.0
C      1  0.5320230000000  0.5099300000000  0.5821470000000 1.0
C      1  0.5387350000000  0.4056430000000  0.4642840000000 1.0
C      1  0.4916900000000  0.5765370000000  0.5893800000000 1.0
C      1  0.4475700000000  0.4971830000000  0.4792930000000 1.0
C      1  0.3863110000000  0.5585010000000  0.4320590000000 1.0
C      1  0.6062740000000  0.3662430000000  0.4760240000000 1.0
C      1  0.4286470000000  0.5811540000000  0.4503800000000 1.0
C      1  0.5023730000000  0.5380520000000  0.4781970000000 1.0
C      1  0.4616760000000  0.5640570000000  0.4887990000000 1.0
C      1  0.3524250000000  0.4931340000000  0.4451670000000 1.0
C      1  0.4760850000000  0.4536550000000  0.4642490000000 1.0
C      1  0.4987940000000  0.4619940000000  0.5384790000000 1.0
C      1  0.5444450000000  0.4635800000000  0.5238850000000 1.0
C      1  0.4604350000000  0.4743910000000  0.4694190000000 1.0
C      1  0.4784100000000  0.5788550000000  0.5647310000000 1.0
C      1  0.5293960000000  0.4911370000000  0.5615400000000 1.0
C      1  0.4948570000000  0.4350920000000  0.4619430000000 1.0
C      1  0.4873940000000  0.5952300000000  0.6089190000000 1.0
C      1  0.5093380000000  0.5552140000000  0.5941510000000 1.0
C      1  0.4626370000000  0.5753900000000  0.5145020000000 1.0
C      1  0.4689220000000  0.5091310000000  0.5218980000000 1.0
C      1  0.4682490000000  0.5797200000000  0.5401540000000 1.0
C      1  0.5769430000000  0.4799790000000  0.5567510000000 1.0
C      1  0.5031080000000  0.4875310000000  0.5499840000000 1.0
C      1  0.4478400000000  0.5766680000000  0.4681300000000 1.0
C      1  0.6288170000000  0.4350740000000  0.4824180000000 1.0
C      1  0.5335620000000  0.4860210000000  0.4325780000000 1.0
C      1  0.4205070000000  0.5012960000000  0.4737610000000 1.0
C      1  0.5303880000000  0.4957990000000  0.4579310000000 1.0
C      1  0.3738290000000  0.5098270000000  0.4480920000000 1.0
C      1  0.4063410000000  0.5751660000000  0.4372700000000 1.0
C      1  0.5437180000000  0.4836750000000  0.4794720000000 1.0
C      1  0.5193840000000  0.4502280000000  0.5252320000000 1.0
C      1  0.6054600000000  0.4462580000000  0.4880600000000 1.0
C      1  0.4744250000000  0.5389010000000  0.4844630000000 1.0
C      1  0.5237450000000  0.5328630000000  0.5929550000000 1.0
C      1  0.4623280000000  0.5153280000000  0.4952350000000 1.0
C      1  0.5818630000000  0.4570660000000  0.4933330000000 1.0
C      1  0.4905700000000  0.5107130000000  0.5396770000000 1.0
C      1  0.6515850000000  0.4237280000000  0.4767140000000 1.0
END
