TITL C-627107-135-1717 3.42879714479759e-05 125000 -694.623210507696 0 0 111 (C1) n - 1
REM
REM in /home/nfs/bkarasulu/CARBON/AIRSS/Generating-Clusters/LCBOP/Only-C1/SD-CG/FIRE-CG
REM
REM
REM
REM
REM
REM ./C.cell (11c1c37f851c82e70ff6c80c92926a4b)
REM AIRSS Version 0.9.1 bugfix July 2018 build 013d7b7c2542+ Fri, 06 Jul 2018 19:26:36 +0100
REM compiler GCC version 9.2.1 20190827 (Red Hat 9.2.1-1)
REM options -cpp -mtune=generic -march=x86-64 -g -O0 -fpre-include=/usr/include/finclude/math-vector-fortran.h
REM seed 1686628985 -1413345824 1797090180 93999076 -2084686448 1526634003 -406800047 -440700106 281004002 2087627544 567591389 312938742 923158822 459050983 7379605 566762794 -728758245 -1310579903 -343332066 -1791753469 -1818424425 -1462675197 -983840233 1832780157 -744368354 1684707029 980137152 1315590502 1811419511 1463123593 -434418392 325019342 1368753102
REM
CELL 1.54180   50.00000   50.00000   50.00000   90.00000   90.00000   90.00000
LATT -1
SFAC C  
C      1  0.4396120000000  0.5600770000000  0.5628870000000 1.0
C      1  0.5847000000000  0.4196610000000  0.5347000000000 1.0
C      1  0.4177460000000  0.4899180000000  0.4587430000000 1.0
C      1  0.5229680000000  0.5242260000000  0.4987480000000 1.0
C      1  0.5793930000000  0.4271840000000  0.4735890000000 1.0
C      1  0.4280050000000  0.4703440000000  0.4162880000000 1.0
C      1  0.5043510000000  0.3718380000000  0.5023920000000 1.0
C      1  0.3840080000000  0.4898780000000  0.5068090000000 1.0
C      1  0.4540880000000  0.4856000000000  0.5429290000000 1.0
C      1  0.4626340000000  0.5071350000000  0.4677880000000 1.0
C      1  0.5201010000000  0.4596920000000  0.5324240000000 1.0
C      1  0.6247160000000  0.4125450000000  0.4626300000000 1.0
C      1  0.6064540000000  0.4853500000000  0.5619620000000 1.0
C      1  0.4438300000000  0.5797310000000  0.4527670000000 1.0
C      1  0.5688560000000  0.4018790000000  0.4799230000000 1.0
C      1  0.6068020000000  0.4329880000000  0.4690510000000 1.0
C      1  0.4242090000000  0.5155490000000  0.5691910000000 1.0
C      1  0.4874780000000  0.5255620000000  0.5802340000000 1.0
C      1  0.4214080000000  0.4259160000000  0.4705550000000 1.0
C      1  0.5046520000000  0.5290340000000  0.3513110000000 1.0
C      1  0.4773410000000  0.5663200000000  0.4180300000000 1.0
C      1  0.4166860000000  0.4553930000000  0.5076700000000 1.0
C      1  0.3766520000000  0.4495180000000  0.4822030000000 1.0
C      1  0.4415230000000  0.4462240000000  0.5158340000000 1.0
C      1  0.4890600000000  0.5265340000000  0.3720400000000 1.0
C      1  0.5752880000000  0.5421430000000  0.4488150000000 1.0
C      1  0.5019790000000  0.5556010000000  0.4294540000000 1.0
C      1  0.5264130000000  0.5510270000000  0.6145860000000 1.0
C      1  0.4815710000000  0.5828690000000  0.4839190000000 1.0
C      1  0.5562780000000  0.4475230000000  0.5656080000000 1.0
C      1  0.4831060000000  0.4969050000000  0.5397550000000 1.0
C      1  0.4407000000000  0.4923670000000  0.5699680000000 1.0
C      1  0.4859270000000  0.5519370000000  0.4878690000000 1.0
C      1  0.6058350000000  0.5014080000000  0.4396430000000 1.0
C      1  0.4275410000000  0.5375300000000  0.5511580000000 1.0
C      1  0.5435090000000  0.5037540000000  0.5997200000000 1.0
C      1  0.5299960000000  0.4544530000000  0.5584240000000 1.0
C      1  0.5145560000000  0.5760860000000  0.4452230000000 1.0
C      1  0.5056180000000  0.4840700000000  0.5261570000000 1.0
C      1  0.5988370000000  0.4583720000000  0.5623530000000 1.0
C      1  0.4515480000000  0.5865240000000  0.4799830000000 1.0
C      1  0.5422900000000  0.5297370000000  0.6105980000000 1.0
C      1  0.5197480000000  0.3943070000000  0.4995050000000 1.0
C      1  0.5019890000000  0.5607360000000  0.6085710000000 1.0
C      1  0.4799730000000  0.5313430000000  0.4671910000000 1.0
C      1  0.4678400000000  0.4990470000000  0.4076580000000 1.0
C      1  0.4497230000000  0.4822370000000  0.5944520000000 1.0
C      1  0.5459820000000  0.3919590000000  0.4896000000000 1.0
C      1  0.4769860000000  0.4363200000000  0.5403090000000 1.0
C      1  0.4733270000000  0.5242960000000  0.3948280000000 1.0
C      1  0.4322910000000  0.4992410000000  0.5229930000000 1.0
C      1  0.5243130000000  0.6057440000000  0.4943250000000 1.0
C      1  0.4586280000000  0.5640600000000  0.5816210000000 1.0
C      1  0.5675100000000  0.4906860000000  0.5914200000000 1.0
C      1  0.4603110000000  0.5469380000000  0.4074370000000 1.0
C      1  0.5257060000000  0.4814540000000  0.4801620000000 1.0
C      1  0.4596790000000  0.4322390000000  0.4974640000000 1.0
C      1  0.4716780000000  0.4894750000000  0.6081540000000 1.0
C      1  0.4351410000000  0.5422250000000  0.4213240000000 1.0
C      1  0.6414300000000  0.3934080000000  0.4568400000000 1.0
C      1  0.4675290000000  0.5860110000000  0.4367860000000 1.0
C      1  0.4892210000000  0.6086190000000  0.5273370000000 1.0
C      1  0.4815810000000  0.5511690000000  0.5916450000000 1.0
C      1  0.5603620000000  0.4476970000000  0.4745650000000 1.0
C      1  0.4306620000000  0.5546240000000  0.4479510000000 1.0
C      1  0.6126340000000  0.4777310000000  0.4495780000000 1.0
C      1  0.4390460000000  0.4943050000000  0.4068790000000 1.0
C      1  0.4106560000000  0.4827040000000  0.5135630000000 1.0
C      1  0.5907640000000  0.5018680000000  0.5792310000000 1.0
C      1  0.5036860000000  0.5424950000000  0.5084010000000 1.0
C      1  0.5253130000000  0.4432040000000  0.5091520000000 1.0
C      1  0.4341970000000  0.5110590000000  0.4674600000000 1.0
C      1  0.4282580000000  0.5284470000000  0.5239020000000 1.0
C      1  0.4971620000000  0.6016850000000  0.5013830000000 1.0
C      1  0.4555560000000  0.4556340000000  0.5388650000000 1.0
C      1  0.4280100000000  0.4677490000000  0.4442320000000 1.0
C      1  0.5368690000000  0.5257590000000  0.4729450000000 1.0
C      1  0.4234990000000  0.5181170000000  0.4117300000000 1.0
C      1  0.4852850000000  0.4893790000000  0.4299260000000 1.0
C      1  0.3680030000000  0.4735310000000  0.4919050000000 1.0
C      1  0.6227320000000  0.4932250000000  0.5407030000000 1.0
C      1  0.5366860000000  0.4563370000000  0.4862880000000 1.0
C      1  0.5665460000000  0.4629470000000  0.5868950000000 1.0
C      1  0.4231060000000  0.5428560000000  0.4996860000000 1.0
C      1  0.4975250000000  0.5316530000000  0.4436850000000 1.0
C      1  0.4990680000000  0.5442770000000  0.5363770000000 1.0
C      1  0.6298200000000  0.4851590000000  0.5162690000000 1.0
C      1  0.6162100000000  0.4598620000000  0.4708520000000 1.0
C      1  0.4532320000000  0.4585460000000  0.4557720000000 1.0
C      1  0.4029950000000  0.4403560000000  0.4870220000000 1.0
C      1  0.5806190000000  0.4403620000000  0.5515060000000 1.0
C      1  0.5084020000000  0.5055050000000  0.4382660000000 1.0
C      1  0.5384190000000  0.5730560000000  0.4599840000000 1.0
C      1  0.5182790000000  0.4907730000000  0.5943810000000 1.0
C      1  0.4934430000000  0.5037930000000  0.5975710000000 1.0
C      1  0.5508660000000  0.5474820000000  0.4612870000000 1.0
C      1  0.5426750000000  0.5930240000000  0.4793730000000 1.0
C      1  0.4258430000000  0.5377690000000  0.4715600000000 1.0
C      1  0.4823710000000  0.4243130000000  0.5138500000000 1.0
C      1  0.4708210000000  0.4817820000000  0.4542330000000 1.0
C      1  0.4957970000000  0.5942970000000  0.5490740000000 1.0
C      1  0.4910000000000  0.5903930000000  0.4549570000000 1.0
C      1  0.5287480000000  0.5004680000000  0.4581740000000 1.0
C      1  0.5165990000000  0.4667360000000  0.5799150000000 1.0
C      1  0.4892050000000  0.5223530000000  0.5518870000000 1.0
C      1  0.6272740000000  0.4700700000000  0.4945090000000 1.0
C      1  0.4494390000000  0.4344950000000  0.4710520000000 1.0
C      1  0.5035630000000  0.5686930000000  0.5494090000000 1.0
C      1  0.5092830000000  0.4197980000000  0.5065750000000 1.0
C      1  0.5168970000000  0.4966780000000  0.5034370000000 1.0
C      1  0.5937220000000  0.5250430000000  0.4402320000000 1.0
END
