TITL C-627112-676-693 -8.74839581524257e-08 125000 -438.621560417942 0 0 72 (C1) n - 1
REM
REM in /home/nfs/bkarasulu/CARBON/AIRSS/Generating-Clusters/LCBOP/Only-C1/SD-CG/FIRE-CG
REM
REM
REM
REM
REM
REM ./C.cell (11c1c37f851c82e70ff6c80c92926a4b)
REM AIRSS Version 0.9.1 bugfix July 2018 build 013d7b7c2542+ Fri, 06 Jul 2018 19:26:36 +0100
REM compiler GCC version 9.2.1 20190827 (Red Hat 9.2.1-1)
REM options -cpp -mtune=generic -march=x86-64 -g -O0 -fpre-include=/usr/include/finclude/math-vector-fortran.h
REM seed 408527762 -229079196 435060608 -474270758 631900257 735807619 1545442608 977202474 -2102757435 -1507723261 -1524613549 -1267528440 827569835 -683213164 1250731966 -1051892627 -1432671287 907733083 237993874 179950722 -2060600660 -1301275529 -984223208 1668859915 1291364791 784591910 -1684066876 752004049 -1539820801 -912050650 -1996138673 314139851 633822619
REM
CELL 1.54180   50.00000   50.00000   50.00000   90.00000   90.00000   90.00000
LATT -1
SFAC C  
C      1  0.5318900000000  0.5248190000000  0.5574570000000 1.0
C      1  0.5311310000000  0.4778610000000  0.5014300000000 1.0
C      1  0.5706980000000  0.5364520000000  0.4710460000000 1.0
C      1  0.4202060000000  0.4906190000000  0.4331660000000 1.0
C      1  0.5555880000000  0.4425010000000  0.5575030000000 1.0
C      1  0.4933030000000  0.4636950000000  0.5321150000000 1.0
C      1  0.5589540000000  0.4984570000000  0.4411570000000 1.0
C      1  0.5007250000000  0.6161480000000  0.4845800000000 1.0
C      1  0.5787640000000  0.4839690000000  0.5630130000000 1.0
C      1  0.4719800000000  0.5194110000000  0.5204010000000 1.0
C      1  0.4306360000000  0.5347140000000  0.4931850000000 1.0
C      1  0.4478310000000  0.5290130000000  0.5147480000000 1.0
C      1  0.4916090000000  0.5055480000000  0.5800420000000 1.0
C      1  0.5233110000000  0.4116870000000  0.4955370000000 1.0
C      1  0.4191650000000  0.4885120000000  0.4877890000000 1.0
C      1  0.5771040000000  0.4627590000000  0.4979140000000 1.0
C      1  0.4388070000000  0.4669300000000  0.5509240000000 1.0
C      1  0.4470930000000  0.4814370000000  0.5716910000000 1.0
C      1  0.4444690000000  0.4605440000000  0.5241510000000 1.0
C      1  0.5181200000000  0.5040030000000  0.5714650000000 1.0
C      1  0.5104960000000  0.5197440000000  0.4888430000000 1.0
C      1  0.4962270000000  0.6411270000000  0.4786670000000 1.0
C      1  0.5601070000000  0.4869120000000  0.5843450000000 1.0
C      1  0.4256080000000  0.5130360000000  0.4753640000000 1.0
C      1  0.4444440000000  0.5787710000000  0.4759430000000 1.0
C      1  0.5389490000000  0.4808970000000  0.4374620000000 1.0
C      1  0.4997210000000  0.4150520000000  0.5105210000000 1.0
C      1  0.5497280000000  0.4566670000000  0.4978190000000 1.0
C      1  0.5938850000000  0.4852290000000  0.4969220000000 1.0
C      1  0.4782310000000  0.4388000000000  0.4709440000000 1.0
C      1  0.4927670000000  0.5686670000000  0.4747610000000 1.0
C      1  0.5317560000000  0.5012670000000  0.4844080000000 1.0
C      1  0.5207180000000  0.5812040000000  0.5121740000000 1.0
C      1  0.4956690000000  0.5085590000000  0.5109930000000 1.0
C      1  0.4708000000000  0.4523850000000  0.5179220000000 1.0
C      1  0.5790850000000  0.4563810000000  0.5552960000000 1.0
C      1  0.4268340000000  0.4690250000000  0.5041990000000 1.0
C      1  0.5199560000000  0.5507580000000  0.5520690000000 1.0
C      1  0.5785210000000  0.5044310000000  0.5428720000000 1.0
C      1  0.5547700000000  0.5449640000000  0.5212530000000 1.0
C      1  0.5770520000000  0.5122110000000  0.4579890000000 1.0
C      1  0.4539080000000  0.4367310000000  0.4571290000000 1.0
C      1  0.5186720000000  0.4644990000000  0.4438140000000 1.0
C      1  0.4801440000000  0.4996230000000  0.3953660000000 1.0
C      1  0.5004490000000  0.5632780000000  0.5672070000000 1.0
C      1  0.4796220000000  0.4326690000000  0.4989530000000 1.0
C      1  0.4810290000000  0.5750310000000  0.5800070000000 1.0
C      1  0.3990850000000  0.4540850000000  0.4090470000000 1.0
C      1  0.4321060000000  0.5118440000000  0.4474970000000 1.0
C      1  0.5330590000000  0.4804980000000  0.5771380000000 1.0
C      1  0.5075530000000  0.4454440000000  0.5490130000000 1.0
C      1  0.5968380000000  0.4971400000000  0.4715810000000 1.0
C      1  0.5075600000000  0.4832480000000  0.5181650000000 1.0
C      1  0.4175930000000  0.4632230000000  0.4277900000000 1.0
C      1  0.4671900000000  0.5127780000000  0.4137600000000 1.0
C      1  0.5049130000000  0.5433640000000  0.4758290000000 1.0
C      1  0.5000170000000  0.4504300000000  0.4569500000000 1.0
C      1  0.5323800000000  0.5619640000000  0.5285920000000 1.0
C      1  0.4666410000000  0.4965490000000  0.5816090000000 1.0
C      1  0.3818100000000  0.4456150000000  0.3914670000000 1.0
C      1  0.4265450000000  0.5618430000000  0.4870070000000 1.0
C      1  0.5954830000000  0.5002870000000  0.5206620000000 1.0
C      1  0.5568280000000  0.5231130000000  0.5410610000000 1.0
C      1  0.4533380000000  0.5258570000000  0.4343510000000 1.0
C      1  0.5301610000000  0.4545860000000  0.5637000000000 1.0
C      1  0.5661050000000  0.5459750000000  0.4956910000000 1.0
C      1  0.5041370000000  0.4187950000000  0.5388870000000 1.0
C      1  0.5422270000000  0.4303190000000  0.4919800000000 1.0
C      1  0.4673950000000  0.5700430000000  0.4619990000000 1.0
C      1  0.5046040000000  0.5892120000000  0.4905050000000 1.0
C      1  0.4618670000000  0.5515520000000  0.4414950000000 1.0
C      1  0.4340350000000  0.4452320000000  0.4416680000000 1.0
END
