TITL C-627112-676-2147 585.691225760531 125000 -429.397899203635 0 0 72 (C1) n - 1
REM
REM in /home/nfs/bkarasulu/CARBON/AIRSS/Generating-Clusters/LCBOP/Only-C1/SD-CG/FIRE-CG
REM
REM
REM
REM
REM
REM ./C.cell (11c1c37f851c82e70ff6c80c92926a4b)
REM AIRSS Version 0.9.1 bugfix July 2018 build 013d7b7c2542+ Fri, 06 Jul 2018 19:26:36 +0100
REM compiler GCC version 9.2.1 20190827 (Red Hat 9.2.1-1)
REM options -cpp -mtune=generic -march=x86-64 -g -O0 -fpre-include=/usr/include/finclude/math-vector-fortran.h
REM seed -1792903397 -1179609912 1609066882 -34971746 1802672268 -626999139 479248945 -856868275 710078405 -1670690914 -367428735 -1914779217 -1602368450 1489346573 112579554 -2002047916 739126180 -390413900 300104824 -156279820 1353735593 -822554118 -82723647 -1648668528 479587855 -660265674 1073211925 1991489734 1641444801 -1995149976 951373658 -119710125 1451263739
REM
CELL 1.54180   50.00000   50.00000   50.00000   90.00000   90.00000   90.00000
LATT -1
SFAC C  
C      1  0.4395220000000  0.6066280000000  0.4844100000000 1.0
C      1  0.5616310000000  0.5647340000000  0.4674550000000 1.0
C      1  0.5508540000000  0.5684700000000  0.4407040000000 1.0
C      1  0.5685370000000  0.5058490000000  0.4973050000000 1.0
C      1  0.4523860000000  0.5350900000000  0.5286220000000 1.0
C      1  0.5507400000000  0.4228140000000  0.5862520000000 1.0
C      1  0.3899380000000  0.6644650000000  0.4632650000000 1.0
C      1  0.5464960000000  0.5724990000000  0.4911930000000 1.0
C      1  0.4192670000000  0.4566810000000  0.5209030000000 1.0
C      1  0.4927320000000  0.4905640000000  0.5040820000000 1.0
C      1  0.4730430000000  0.5286170000000  0.5485770000000 1.0
C      1  0.5682190000000  0.4927130000000  0.4523240000000 1.0
C      1  0.5326890000000  0.4616200000000  0.4494410000000 1.0
C      1  0.5394020000000  0.5541170000000  0.4203420000000 1.0
C      1  0.4445830000000  0.4343180000000  0.4553830000000 1.0
C      1  0.5215140000000  0.5693770000000  0.5056190000000 1.0
C      1  0.4246920000000  0.5011430000000  0.5073450000000 1.0
C      1  0.4345510000000  0.4110190000000  0.5230560000000 1.0
C      1  0.4262390000000  0.5260560000000  0.5212080000000 1.0
C      1  0.4573800000000  0.4841000000000  0.5372930000000 1.0
C      1  0.5337120000000  0.4586160000000  0.4997360000000 1.0
C      1  0.5287170000000  0.5296350000000  0.4148460000000 1.0
C      1  0.4948710000000  0.4149480000000  0.4974880000000 1.0
C      1  0.4766940000000  0.4721610000000  0.5192620000000 1.0
C      1  0.4213220000000  0.4569080000000  0.4914640000000 1.0
C      1  0.5658660000000  0.4681160000000  0.5810660000000 1.0
C      1  0.4464050000000  0.4845340000000  0.4576650000000 1.0
C      1  0.5415260000000  0.4871300000000  0.4377540000000 1.0
C      1  0.4880280000000  0.4129280000000  0.4716780000000 1.0
C      1  0.4432280000000  0.4597570000000  0.4433960000000 1.0
C      1  0.5801790000000  0.4914990000000  0.5864620000000 1.0
C      1  0.4295170000000  0.4849030000000  0.4821350000000 1.0
C      1  0.4306830000000  0.4815020000000  0.5287780000000 1.0
C      1  0.5830450000000  0.5446960000000  0.4688310000000 1.0
C      1  0.5388950000000  0.5295500000000  0.4561260000000 1.0
C      1  0.4835140000000  0.5171270000000  0.4955810000000 1.0
C      1  0.4287850000000  0.4089340000000  0.4951590000000 1.0
C      1  0.4735530000000  0.5002610000000  0.5556130000000 1.0
C      1  0.5497610000000  0.4467370000000  0.5730380000000 1.0
C      1  0.4558170000000  0.5864110000000  0.4896340000000 1.0
C      1  0.5405780000000  0.4459600000000  0.5240930000000 1.0
C      1  0.5760200000000  0.5140600000000  0.5704660000000 1.0
C      1  0.4614790000000  0.4087540000000  0.5311500000000 1.0
C      1  0.5207290000000  0.5043470000000  0.4258470000000 1.0
C      1  0.4931630000000  0.5009800000000  0.4346110000000 1.0
C      1  0.5215220000000  0.4845900000000  0.5030520000000 1.0
C      1  0.5031070000000  0.5332570000000  0.4829500000000 1.0
C      1  0.4888420000000  0.4494980000000  0.5317050000000 1.0
C      1  0.4063360000000  0.6456010000000  0.4706730000000 1.0
C      1  0.5395820000000  0.5064400000000  0.4985100000000 1.0
C      1  0.4682690000000  0.4192030000000  0.4546870000000 1.0
C      1  0.4999560000000  0.5614150000000  0.4883020000000 1.0
C      1  0.5812180000000  0.4796650000000  0.4971760000000 1.0
C      1  0.4969380000000  0.5454120000000  0.5468620000000 1.0
C      1  0.5324520000000  0.4502290000000  0.5510610000000 1.0
C      1  0.5460940000000  0.4547450000000  0.4740480000000 1.0
C      1  0.5283520000000  0.5239370000000  0.4797350000000 1.0
C      1  0.4646700000000  0.5381890000000  0.5033900000000 1.0
C      1  0.4694730000000  0.4988480000000  0.4480330000000 1.0
C      1  0.5054830000000  0.4589510000000  0.5535750000000 1.0
C      1  0.4841960000000  0.4231760000000  0.5222780000000 1.0
C      1  0.5721320000000  0.4684540000000  0.4717870000000 1.0
C      1  0.5772560000000  0.5164850000000  0.4703210000000 1.0
C      1  0.4197530000000  0.4322880000000  0.5346920000000 1.0
C      1  0.5980390000000  0.4923100000000  0.6071610000000 1.0
C      1  0.4954120000000  0.4836610000000  0.5655140000000 1.0
C      1  0.6091720000000  0.5531490000000  0.4687150000000 1.0
C      1  0.4719420000000  0.5644310000000  0.4935110000000 1.0
C      1  0.5730730000000  0.5358390000000  0.5564600000000 1.0
C      1  0.5151150000000  0.5605800000000  0.5326980000000 1.0
C      1  0.4281340000000  0.4320280000000  0.4785190000000 1.0
C      1  0.4229790000000  0.6262880000000  0.4779290000000 1.0
END
