TITL C-627110-360-1882 0.000534655048941209 125000 -177.241370960436 0 0 31 (C1) n - 1
REM
REM in /home/nfs/bkarasulu/CARBON/AIRSS/Generating-Clusters/LCBOP/Only-C1/SD-CG/FIRE-CG
REM
REM
REM
REM
REM
REM ./C.cell (11c1c37f851c82e70ff6c80c92926a4b)
REM AIRSS Version 0.9.1 bugfix July 2018 build 013d7b7c2542+ Fri, 06 Jul 2018 19:26:36 +0100
REM compiler GCC version 9.2.1 20190827 (Red Hat 9.2.1-1)
REM options -cpp -mtune=generic -march=x86-64 -g -O0 -fpre-include=/usr/include/finclude/math-vector-fortran.h
REM seed -2134540313 -200849791 1273896746 -1745317148 1324168798 966829357 1789095616 535414415 -1156680434 -1221849999 1233739582 -431438596 218586693 1219969758 1908296418 114971110 -521604270 -665912153 511671762 -1991845762 50583867 -1135765089 757769551 1934191290 119068238 -403417084 -1927072209 -121918759 -1490426482 171741970 -588874977 1116493594 675844204
REM
CELL 1.54180   50.00000   50.00000   50.00000   90.00000   90.00000   90.00000
LATT -1
SFAC C  
C      1  0.4713730000000  0.5450010000000  0.5777710000000 1.0
C      1  0.5765570000000  0.3730690000000  0.4611270000000 1.0
C      1  0.4934400000000  0.5048810000000  0.4859900000000 1.0
C      1  0.4529180000000  0.5696690000000  0.4816190000000 1.0
C      1  0.4674830000000  0.5446180000000  0.4410890000000 1.0
C      1  0.4657350000000  0.5484960000000  0.4689560000000 1.0
C      1  0.4481680000000  0.5810490000000  0.5556790000000 1.0
C      1  0.4933300000000  0.5031220000000  0.4372460000000 1.0
C      1  0.4757460000000  0.4400540000000  0.4634280000000 1.0
C      1  0.4784770000000  0.5286160000000  0.4843200000000 1.0
C      1  0.4990670000000  0.4999770000000  0.5649130000000 1.0
C      1  0.4797820000000  0.5244400000000  0.4281060000000 1.0
C      1  0.5102940000000  0.4830260000000  0.5840580000000 1.0
C      1  0.4850580000000  0.5228310000000  0.5729070000000 1.0
C      1  0.5195240000000  0.4192960000000  0.4622210000000 1.0
C      1  0.5625790000000  0.3950620000000  0.4615270000000 1.0
C      1  0.5586640000000  0.4932100000000  0.4634240000000 1.0
C      1  0.5002790000000  0.4951820000000  0.5112550000000 1.0
C      1  0.4566050000000  0.5687400000000  0.5793590000000 1.0
C      1  0.5011360000000  0.4916310000000  0.4617890000000 1.0
C      1  0.5589170000000  0.4443340000000  0.4621690000000 1.0
C      1  0.5477160000000  0.4184460000000  0.4619520000000 1.0
C      1  0.5450140000000  0.4689480000000  0.4626250000000 1.0
C      1  0.5162780000000  0.4677120000000  0.4623710000000 1.0
C      1  0.5029630000000  0.4422270000000  0.4626640000000 1.0
C      1  0.5017940000000  0.4941570000000  0.5377030000000 1.0
C      1  0.4505260000000  0.5797140000000  0.6036530000000 1.0
C      1  0.5207620000000  0.4672240000000  0.6019450000000 1.0
C      1  0.4455920000000  0.5825270000000  0.5036760000000 1.0
C      1  0.4441960000000  0.5861010000000  0.5299450000000 1.0
C      1  0.5700260000000  0.5166380000000  0.4645130000000 1.0
END
