TITL C-627111-6168-1658 1283.37623499715 125000 -961.928644966231 0 0 157 (C1) n - 1
REM
REM in /home/nfs/bkarasulu/CARBON/AIRSS/Generating-Clusters/LCBOP/Only-C1/SD-CG/FIRE-CG
REM
REM
REM
REM
REM
REM ./C.cell (11c1c37f851c82e70ff6c80c92926a4b)
REM AIRSS Version 0.9.1 bugfix July 2018 build 013d7b7c2542+ Fri, 06 Jul 2018 19:26:36 +0100
REM compiler GCC version 9.2.1 20190827 (Red Hat 9.2.1-1)
REM options -cpp -mtune=generic -march=x86-64 -g -O0 -fpre-include=/usr/include/finclude/math-vector-fortran.h
REM seed -2073220256 -1298055151 2085274903 760170147 877239768 -1505864790 623591858 322633330 -839765806 -1223204949 824577229 -1158576974 -358433415 -1818951552 1892910468 -32546722 -1420264012 170583363 92639381 -2136716331 1785830205 1454715176 929439563 -1561156394 -644935184 1203602787 1390283846 38574162 2131959262 -627964217 -898069820 -1262371947 757705236
REM
CELL 1.54180   50.00000   50.00000   50.00000   90.00000   90.00000   90.00000
LATT -1
SFAC C  
C      1  0.4980720000000  0.5810860000000  0.5302130000000 1.0
C      1  0.5381880000000  0.4701670000000  0.5944410000000 1.0
C      1  0.4380710000000  0.5459740000000  0.5854110000000 1.0
C      1  0.5113910000000  0.5088370000000  0.3878110000000 1.0
C      1  0.5591230000000  0.5556400000000  0.5609510000000 1.0
C      1  0.5274220000000  0.3977460000000  0.5461420000000 1.0
C      1  0.5831140000000  0.5786760000000  0.5047970000000 1.0
C      1  0.5223270000000  0.6100200000000  0.4779120000000 1.0
C      1  0.6064860000000  0.4140820000000  0.4347690000000 1.0
C      1  0.5024720000000  0.4743690000000  0.4738660000000 1.0
C      1  0.5353730000000  0.4412910000000  0.4641710000000 1.0
C      1  0.4407720000000  0.5407570000000  0.6120120000000 1.0
C      1  0.5212210000000  0.3885600000000  0.5716350000000 1.0
C      1  0.3722020000000  0.4848220000000  0.4921960000000 1.0
C      1  0.5432020000000  0.4472670000000  0.5430620000000 1.0
C      1  0.4664130000000  0.5252080000000  0.4041150000000 1.0
C      1  0.5689560000000  0.5250200000000  0.5015150000000 1.0
C      1  0.5679560000000  0.5260360000000  0.4224120000000 1.0
C      1  0.6766230000000  0.4640420000000  0.4779500000000 1.0
C      1  0.5727090000000  0.4528560000000  0.4345130000000 1.0
C      1  0.3979350000000  0.4956730000000  0.4952370000000 1.0
C      1  0.6054610000000  0.5017450000000  0.5653370000000 1.0
C      1  0.5796350000000  0.4588350000000  0.4840500000000 1.0
C      1  0.4137310000000  0.6019510000000  0.4979480000000 1.0
C      1  0.5884740000000  0.4444600000000  0.5477180000000 1.0
C      1  0.4672400000000  0.4344120000000  0.5907850000000 1.0
C      1  0.4431010000000  0.4417020000000  0.5300750000000 1.0
C      1  0.6201370000000  0.4726180000000  0.5252450000000 1.0
C      1  0.4886650000000  0.4533780000000  0.5147350000000 1.0
C      1  0.4136340000000  0.5540180000000  0.4541930000000 1.0
C      1  0.5629330000000  0.5880270000000  0.4611070000000 1.0
C      1  0.5537210000000  0.5702270000000  0.4393350000000 1.0
C      1  0.4418830000000  0.5732530000000  0.5479570000000 1.0
C      1  0.4804600000000  0.5446330000000  0.4211250000000 1.0
C      1  0.5275650000000  0.5278330000000  0.5368990000000 1.0
C      1  0.5493020000000  0.5472380000000  0.4985270000000 1.0
C      1  0.4937310000000  0.4449400000000  0.5866960000000 1.0
C      1  0.5086670000000  0.5133000000000  0.5190450000000 1.0
C      1  0.4007490000000  0.5436010000000  0.5050860000000 1.0
C      1  0.6004230000000  0.5297400000000  0.5609280000000 1.0
C      1  0.5648600000000  0.4650900000000  0.5833760000000 1.0
C      1  0.5490190000000  0.5106880000000  0.5730710000000 1.0
C      1  0.5495810000000  0.5087940000000  0.5440790000000 1.0
C      1  0.4765180000000  0.5461410000000  0.5038630000000 1.0
C      1  0.5582060000000  0.4987050000000  0.5156080000000 1.0
C      1  0.3424870000000  0.4616120000000  0.4608610000000 1.0
C      1  0.6530750000000  0.4624400000000  0.4889950000000 1.0
C      1  0.5134100000000  0.4115370000000  0.5026510000000 1.0
C      1  0.5094900000000  0.5505130000000  0.4158720000000 1.0
C      1  0.5094720000000  0.6119350000000  0.4542440000000 1.0
C      1  0.5514250000000  0.3900310000000  0.5328490000000 1.0
C      1  0.4420960000000  0.4842200000000  0.6191200000000 1.0
C      1  0.5128190000000  0.5967570000000  0.4322080000000 1.0
C      1  0.5330640000000  0.5101300000000  0.4762040000000 1.0
C      1  0.3665180000000  0.4746520000000  0.4662400000000 1.0
C      1  0.5019920000000  0.5042870000000  0.5798520000000 1.0
C      1  0.3561280000000  0.4882170000000  0.5154260000000 1.0
C      1  0.3948740000000  0.5875100000000  0.4830240000000 1.0
C      1  0.4968170000000  0.4399170000000  0.5384930000000 1.0
C      1  0.4133180000000  0.5425670000000  0.5701760000000 1.0
C      1  0.4445440000000  0.4497230000000  0.5816980000000 1.0
C      1  0.5098400000000  0.4146220000000  0.5311630000000 1.0
C      1  0.4001990000000  0.5591150000000  0.4796200000000 1.0
C      1  0.5930410000000  0.4641790000000  0.5284890000000 1.0
C      1  0.5286800000000  0.4956880000000  0.5858720000000 1.0
C      1  0.6050670000000  0.4165700000000  0.4847090000000 1.0
C      1  0.4550700000000  0.4241760000000  0.4514440000000 1.0
C      1  0.4525750000000  0.5305570000000  0.5068500000000 1.0
C      1  0.5123880000000  0.5543410000000  0.4674170000000 1.0
C      1  0.4201060000000  0.5434560000000  0.4077200000000 1.0
C      1  0.5656770000000  0.3862460000000  0.5086390000000 1.0
C      1  0.5036090000000  0.4550860000000  0.4289250000000 1.0
C      1  0.4344330000000  0.4553120000000  0.5533560000000 1.0
C      1  0.4638680000000  0.5528020000000  0.4428740000000 1.0
C      1  0.6131080000000  0.4064410000000  0.4596550000000 1.0
C      1  0.4070350000000  0.4845810000000  0.4306240000000 1.0
C      1  0.4332130000000  0.4852030000000  0.5502540000000 1.0
C      1  0.4597730000000  0.5037480000000  0.5154220000000 1.0
C      1  0.5072040000000  0.5674620000000  0.5531270000000 1.0
C      1  0.5263270000000  0.5721120000000  0.4272970000000 1.0
C      1  0.4387580000000  0.6055940000000  0.5102440000000 1.0
C      1  0.4407080000000  0.5463470000000  0.4579080000000 1.0
C      1  0.5537660000000  0.5752990000000  0.5040040000000 1.0
C      1  0.4865820000000  0.5553510000000  0.5702300000000 1.0
C      1  0.4415060000000  0.5312920000000  0.4811540000000 1.0
C      1  0.3769120000000  0.5991750000000  0.4647460000000 1.0
C      1  0.4856050000000  0.4987350000000  0.4778000000000 1.0
C      1  0.4841940000000  0.4883890000000  0.5607690000000 1.0
C      1  0.4050570000000  0.5574180000000  0.4271430000000 1.0
C      1  0.5530320000000  0.3706410000000  0.4887270000000 1.0
C      1  0.4508540000000  0.6301520000000  0.5095230000000 1.0
C      1  0.5159380000000  0.3791210000000  0.5953450000000 1.0
C      1  0.4832630000000  0.5093320000000  0.3880310000000 1.0
C      1  0.5881190000000  0.5774340000000  0.4748830000000 1.0
C      1  0.4932900000000  0.4576180000000  0.5608260000000 1.0
C      1  0.5633400000000  0.4999880000000  0.4326920000000 1.0
C      1  0.6277310000000  0.4602380000000  0.5001580000000 1.0
C      1  0.3195540000000  0.4490990000000  0.4564530000000 1.0
C      1  0.2970020000000  0.4367250000000  0.4522200000000 1.0
C      1  0.5749950000000  0.4743220000000  0.5085970000000 1.0
C      1  0.6250510000000  0.4899240000000  0.5473210000000 1.0
C      1  0.4886860000000  0.3835660000000  0.4504950000000 1.0
C      1  0.6059060000000  0.4451990000000  0.4872530000000 1.0
C      1  0.5970880000000  0.5620590000000  0.5239680000000 1.0
C      1  0.5626190000000  0.4507700000000  0.4617880000000 1.0
C      1  0.4072590000000  0.5154900000000  0.5127780000000 1.0
C      1  0.5318770000000  0.5537140000000  0.5488160000000 1.0
C      1  0.3846820000000  0.5761350000000  0.4223700000000 1.0
C      1  0.4147880000000  0.5636080000000  0.5499470000000 1.0
C      1  0.5144340000000  0.4686470000000  0.5019420000000 1.0
C      1  0.3725960000000  0.5118510000000  0.5589300000000 1.0
C      1  0.5902990000000  0.5492930000000  0.4644360000000 1.0
C      1  0.4520850000000  0.4624360000000  0.4862840000000 1.0
C      1  0.3981560000000  0.5606140000000  0.5278210000000 1.0
C      1  0.5239510000000  0.5321900000000  0.3986690000000 1.0
C      1  0.5903090000000  0.4331480000000  0.4251630000000 1.0
C      1  0.4544820000000  0.4923130000000  0.5699680000000 1.0
C      1  0.3575330000000  0.4992520000000  0.5401520000000 1.0
C      1  0.6111810000000  0.5419890000000  0.5081360000000 1.0
C      1  0.5105520000000  0.3704340000000  0.4583440000000 1.0
C      1  0.4153290000000  0.5055430000000  0.5398320000000 1.0
C      1  0.5352560000000  0.4528280000000  0.5180410000000 1.0
C      1  0.5313640000000  0.5385970000000  0.4784800000000 1.0
C      1  0.5275630000000  0.4860170000000  0.3845170000000 1.0
C      1  0.5137170000000  0.4575640000000  0.4540710000000 1.0
C      1  0.4602740000000  0.4891720000000  0.4894410000000 1.0
C      1  0.5477320000000  0.4993230000000  0.4556970000000 1.0
C      1  0.4762850000000  0.5724040000000  0.5146980000000 1.0
C      1  0.5889530000000  0.4007610000000  0.5017730000000 1.0
C      1  0.5487120000000  0.4735290000000  0.3955080000000 1.0
C      1  0.5643270000000  0.4467290000000  0.5614010000000 1.0
C      1  0.4379940000000  0.5212890000000  0.4073940000000 1.0
C      1  0.4515630000000  0.5839450000000  0.5235140000000 1.0
C      1  0.4264420000000  0.4973060000000  0.4171640000000 1.0
C      1  0.5645370000000  0.4751710000000  0.4188070000000 1.0
C      1  0.4697010000000  0.4021310000000  0.4479740000000 1.0
C      1  0.4464820000000  0.4769730000000  0.5934560000000 1.0
C      1  0.5269030000000  0.4201630000000  0.4809530000000 1.0
C      1  0.5862130000000  0.5525570000000  0.5492170000000 1.0
C      1  0.3860080000000  0.4780100000000  0.4458560000000 1.0
C      1  0.4839280000000  0.5006990000000  0.5327570000000 1.0
C      1  0.5569950000000  0.5362090000000  0.5826920000000 1.0
C      1  0.5179060000000  0.4507310000000  0.6005750000000 1.0
C      1  0.5444400000000  0.5939190000000  0.4834740000000 1.0
C      1  0.3728210000000  0.5940750000000  0.4385980000000 1.0
C      1  0.4000490000000  0.5190810000000  0.5606350000000 1.0
C      1  0.5939450000000  0.5312380000000  0.4874520000000 1.0
C      1  0.5291310000000  0.4957220000000  0.5035070000000 1.0
C      1  0.5522150000000  0.5326810000000  0.3998240000000 1.0
C      1  0.4943320000000  0.5314100000000  0.5835530000000 1.0
C      1  0.4940060000000  0.5246080000000  0.4945320000000 1.0
C      1  0.5875000000000  0.4844080000000  0.5813330000000 1.0
C      1  0.5730090000000  0.5473110000000  0.4405700000000 1.0
C      1  0.4581730000000  0.5606790000000  0.5690760000000 1.0
C      1  0.4476790000000  0.4468620000000  0.4635390000000 1.0
C      1  0.5332750000000  0.3655340000000  0.4714890000000 1.0
C      1  0.4610310000000  0.4487140000000  0.5092810000000 1.0
END
