TITL C-627113-6568-1785 -4.61456508525922e-09 125000 -936.540956397029 0 0 151 (C1) n - 1
REM
REM in /home/nfs/bkarasulu/CARBON/AIRSS/Generating-Clusters/LCBOP/Only-C1/SD-CG/FIRE-CG
REM
REM
REM
REM
REM
REM ./C.cell (11c1c37f851c82e70ff6c80c92926a4b)
REM AIRSS Version 0.9.1 bugfix July 2018 build 013d7b7c2542+ Fri, 06 Jul 2018 19:26:36 +0100
REM compiler GCC version 9.2.1 20190827 (Red Hat 9.2.1-1)
REM options -cpp -mtune=generic -march=x86-64 -g -O0 -fpre-include=/usr/include/finclude/math-vector-fortran.h
REM seed -1701045668 592756580 -1688833484 -414522095 -603002430 -1927364811 -660246268 1952491701 -342820598 -300115819 -1634703017 -2133947364 346298900 1373657758 -1850101918 1644296908 447186699 2138024124 1399058277 -798098647 -98442252 -1147314271 453883550 -1232129395 1617560566 364060633 -990930708 1234686558 1834578020 -1925825741 882997733 -1926893559 -353341624
REM
CELL 1.54180   50.00000   50.00000   50.00000   90.00000   90.00000   90.00000
LATT -1
SFAC C  
C      1  0.4165110000000  0.4200600000000  0.4166060000000 1.0
C      1  0.4237670000000  0.5759820000000  0.4310530000000 1.0
C      1  0.4378120000000  0.5635320000000  0.4120430000000 1.0
C      1  0.4720110000000  0.4018960000000  0.5120550000000 1.0
C      1  0.5840870000000  0.6027330000000  0.5332320000000 1.0
C      1  0.4090890000000  0.4801230000000  0.4114700000000 1.0
C      1  0.5596520000000  0.6061890000000  0.5195710000000 1.0
C      1  0.5076860000000  0.4501630000000  0.4770880000000 1.0
C      1  0.4684630000000  0.5828080000000  0.5633270000000 1.0
C      1  0.5548020000000  0.4825670000000  0.4796430000000 1.0
C      1  0.4238640000000  0.5161300000000  0.5456970000000 1.0
C      1  0.4012250000000  0.4658660000000  0.5045230000000 1.0
C      1  0.4806000000000  0.5458620000000  0.3977260000000 1.0
C      1  0.6184740000000  0.5173640000000  0.4978770000000 1.0
C      1  0.4240390000000  0.5321050000000  0.5223750000000 1.0
C      1  0.5184270000000  0.4590660000000  0.5483900000000 1.0
C      1  0.5505690000000  0.4454080000000  0.5125290000000 1.0
C      1  0.5059130000000  0.5530010000000  0.4023120000000 1.0
C      1  0.5279290000000  0.5107640000000  0.4991810000000 1.0
C      1  0.3985330000000  0.5628000000000  0.4737560000000 1.0
C      1  0.5607680000000  0.4213250000000  0.5247450000000 1.0
C      1  0.5053420000000  0.3911160000000  0.4741610000000 1.0
C      1  0.4707330000000  0.4127080000000  0.4122780000000 1.0
C      1  0.5148960000000  0.4336290000000  0.5932650000000 1.0
C      1  0.4498470000000  0.4362060000000  0.4799190000000 1.0
C      1  0.4621450000000  0.4549030000000  0.4981160000000 1.0
C      1  0.4772090000000  0.4514020000000  0.5730790000000 1.0
C      1  0.5175530000000  0.3992860000000  0.5285300000000 1.0
C      1  0.4900410000000  0.4934400000000  0.5306680000000 1.0
C      1  0.5179610000000  0.6147930000000  0.5491250000000 1.0
C      1  0.4483280000000  0.4850250000000  0.6004050000000 1.0
C      1  0.4140220000000  0.4515540000000  0.5274060000000 1.0
C      1  0.4264440000000  0.4677080000000  0.5465210000000 1.0
C      1  0.5249000000000  0.4510060000000  0.5222950000000 1.0
C      1  0.4061680000000  0.4520160000000  0.4521330000000 1.0
C      1  0.4491260000000  0.5140150000000  0.4508220000000 1.0
C      1  0.5359750000000  0.5869650000000  0.4774410000000 1.0
C      1  0.4712390000000  0.5274450000000  0.5588320000000 1.0
C      1  0.5173780000000  0.4783150000000  0.6084810000000 1.0
C      1  0.4645540000000  0.6269700000000  0.4696190000000 1.0
C      1  0.5857180000000  0.4471380000000  0.4800320000000 1.0
C      1  0.5152830000000  0.4872570000000  0.5486550000000 1.0
C      1  0.6050560000000  0.5858170000000  0.5317940000000 1.0
C      1  0.4872110000000  0.5894730000000  0.4808320000000 1.0
C      1  0.5349790000000  0.6189800000000  0.5264950000000 1.0
C      1  0.5467460000000  0.5292900000000  0.5405570000000 1.0
C      1  0.4052820000000  0.5220360000000  0.5029910000000 1.0
C      1  0.4999950000000  0.4501880000000  0.3973850000000 1.0
C      1  0.5047360000000  0.4442520000000  0.5688410000000 1.0
C      1  0.4706040000000  0.5663540000000  0.4815930000000 1.0
C      1  0.5470460000000  0.4426690000000  0.4165470000000 1.0
C      1  0.4240920000000  0.5196300000000  0.4447830000000 1.0
C      1  0.5439130000000  0.5083940000000  0.5832930000000 1.0
C      1  0.4821040000000  0.5416110000000  0.4708400000000 1.0
C      1  0.4553900000000  0.5099360000000  0.6138050000000 1.0
C      1  0.5230660000000  0.5981690000000  0.5711270000000 1.0
C      1  0.5638750000000  0.5585410000000  0.4486400000000 1.0
C      1  0.4494020000000  0.4271120000000  0.4529580000000 1.0
C      1  0.5048130000000  0.4404520000000  0.5048800000000 1.0
C      1  0.5886300000000  0.4419110000000  0.4349840000000 1.0
C      1  0.5335600000000  0.4428330000000  0.4653120000000 1.0
C      1  0.5191200000000  0.6255600000000  0.5037890000000 1.0
C      1  0.5134020000000  0.5752070000000  0.5843750000000 1.0
C      1  0.4812710000000  0.5199380000000  0.6047570000000 1.0
C      1  0.5624500000000  0.4383230000000  0.5725660000000 1.0
C      1  0.4271530000000  0.4690200000000  0.6054680000000 1.0
C      1  0.5731650000000  0.4332710000000  0.4126090000000 1.0
C      1  0.5430010000000  0.4834300000000  0.5962670000000 1.0
C      1  0.4745030000000  0.4797210000000  0.5060820000000 1.0
C      1  0.5005310000000  0.6100760000000  0.4921420000000 1.0
C      1  0.5210010000000  0.5635360000000  0.4848840000000 1.0
C      1  0.4243820000000  0.4332490000000  0.4393260000000 1.0
C      1  0.4965590000000  0.4236130000000  0.4065190000000 1.0
C      1  0.4095730000000  0.5769460000000  0.4537210000000 1.0
C      1  0.3840220000000  0.4957830000000  0.4491830000000 1.0
C      1  0.4511410000000  0.4107550000000  0.5556220000000 1.0
C      1  0.5570420000000  0.4858730000000  0.4325210000000 1.0
C      1  0.4798010000000  0.5391200000000  0.5833370000000 1.0
C      1  0.5652900000000  0.5607620000000  0.5007110000000 1.0
C      1  0.5396880000000  0.4706510000000  0.4150140000000 1.0
C      1  0.5576000000000  0.5894410000000  0.4964820000000 1.0
C      1  0.4860260000000  0.5670030000000  0.5802330000000 1.0
C      1  0.4951750000000  0.4938150000000  0.5986050000000 1.0
C      1  0.5458580000000  0.4978260000000  0.4564410000000 1.0
C      1  0.5467440000000  0.5497640000000  0.5211000000000 1.0
C      1  0.4542880000000  0.5982290000000  0.5146510000000 1.0
C      1  0.4245090000000  0.4968040000000  0.3970990000000 1.0
C      1  0.3968870000000  0.5352570000000  0.4793620000000 1.0
C      1  0.5752220000000  0.4276620000000  0.5490480000000 1.0
C      1  0.4678850000000  0.4094110000000  0.4410900000000 1.0
C      1  0.4972190000000  0.4781310000000  0.4362270000000 1.0
C      1  0.6028890000000  0.4673390000000  0.5485060000000 1.0
C      1  0.4954740000000  0.4023280000000  0.4499330000000 1.0
C      1  0.5833160000000  0.4716960000000  0.4357440000000 1.0
C      1  0.4702890000000  0.5159030000000  0.4685810000000 1.0
C      1  0.5121480000000  0.4148140000000  0.4302000000000 1.0
C      1  0.4526720000000  0.5428320000000  0.3998400000000 1.0
C      1  0.5109430000000  0.5421950000000  0.4686160000000 1.0
C      1  0.4682960000000  0.4973580000000  0.5544980000000 1.0
C      1  0.5143900000000  0.4506490000000  0.6147190000000 1.0
C      1  0.4588250000000  0.4303980000000  0.5720740000000 1.0
C      1  0.5536420000000  0.4978480000000  0.5036610000000 1.0
C      1  0.4388790000000  0.4925640000000  0.5491570000000 1.0
C      1  0.6035100000000  0.4686310000000  0.4863800000000 1.0
C      1  0.3982790000000  0.4940400000000  0.5048210000000 1.0
C      1  0.5871870000000  0.4883620000000  0.5420180000000 1.0
C      1  0.4805000000000  0.4917730000000  0.4799260000000 1.0
C      1  0.5580790000000  0.4606670000000  0.5874840000000 1.0
C      1  0.5145150000000  0.3830840000000  0.5503140000000 1.0
C      1  0.4518610000000  0.5709400000000  0.5033720000000 1.0
C      1  0.4681950000000  0.6010870000000  0.5409490000000 1.0
C      1  0.4478980000000  0.4096370000000  0.5275480000000 1.0
C      1  0.4397110000000  0.5185660000000  0.3931010000000 1.0
C      1  0.5842280000000  0.4263320000000  0.4599280000000 1.0
C      1  0.4725510000000  0.4800650000000  0.5806470000000 1.0
C      1  0.5312660000000  0.5949160000000  0.4501550000000 1.0
C      1  0.5332990000000  0.4309110000000  0.4386960000000 1.0
C      1  0.4850640000000  0.6241440000000  0.4511990000000 1.0
C      1  0.5392650000000  0.3964280000000  0.4842000000000 1.0
C      1  0.4044870000000  0.4491350000000  0.4806500000000 1.0
C      1  0.4718260000000  0.5422710000000  0.5345020000000 1.0
C      1  0.4536640000000  0.6191200000000  0.4938890000000 1.0
C      1  0.4474880000000  0.5488340000000  0.5202250000000 1.0
C      1  0.5436360000000  0.5333770000000  0.5961460000000 1.0
C      1  0.5042170000000  0.5151720000000  0.5145570000000 1.0
C      1  0.6016350000000  0.4947960000000  0.4979920000000 1.0
C      1  0.5315560000000  0.5572470000000  0.5962220000000 1.0
C      1  0.6004870000000  0.4404760000000  0.5459690000000 1.0
C      1  0.5194920000000  0.5578430000000  0.5132520000000 1.0
C      1  0.6227840000000  0.5416410000000  0.5085990000000 1.0
C      1  0.5423280000000  0.4007450000000  0.5137470000000 1.0
C      1  0.6179530000000  0.5644760000000  0.5218300000000 1.0
C      1  0.5638970000000  0.4047800000000  0.4675460000000 1.0
C      1  0.5110920000000  0.4718460000000  0.4125400000000 1.0
C      1  0.4827080000000  0.3838680000000  0.4917290000000 1.0
C      1  0.5283310000000  0.5625270000000  0.4133000000000 1.0
C      1  0.4946720000000  0.4727720000000  0.4637400000000 1.0
C      1  0.5791580000000  0.4972840000000  0.5165470000000 1.0
C      1  0.5719650000000  0.5513140000000  0.4739740000000 1.0
C      1  0.4254000000000  0.4257680000000  0.5184010000000 1.0
C      1  0.5092490000000  0.6127540000000  0.4441800000000 1.0
C      1  0.3985800000000  0.5187380000000  0.4562430000000 1.0
C      1  0.5434980000000  0.5735130000000  0.4342740000000 1.0
C      1  0.4973560000000  0.5418810000000  0.5216790000000 1.0
C      1  0.4961450000000  0.4162640000000  0.5182380000000 1.0
C      1  0.4239400000000  0.4291500000000  0.4902080000000 1.0
C      1  0.5269370000000  0.5178350000000  0.4694850000000 1.0
C      1  0.4900380000000  0.6193400000000  0.5436310000000 1.0
C      1  0.5562270000000  0.4533150000000  0.4841230000000 1.0
C      1  0.5351280000000  0.5080640000000  0.5559970000000 1.0
C      1  0.3968680000000  0.4738790000000  0.4364480000000 1.0
END
