TITL C-627109-622-2108 0.000201806201287276 125000 -398.878939564512 0 0 68 (C1) n - 1
REM
REM in /home/nfs/bkarasulu/CARBON/AIRSS/Generating-Clusters/LCBOP/Only-C1/SD-CG/FIRE-CG
REM
REM
REM
REM
REM
REM ./C.cell (11c1c37f851c82e70ff6c80c92926a4b)
REM AIRSS Version 0.9.1 bugfix July 2018 build 013d7b7c2542+ Fri, 06 Jul 2018 19:26:36 +0100
REM compiler GCC version 9.2.1 20190827 (Red Hat 9.2.1-1)
REM options -cpp -mtune=generic -march=x86-64 -g -O0 -fpre-include=/usr/include/finclude/math-vector-fortran.h
REM seed -128026594 688688019 -305231298 -971039102 503637283 -93820038 -708212491 2066380315 564655796 2076160903 -274398418 -431596220 2143802537 1888324546 1000399847 206711624 -457756942 2040868337 -2091745333 -1786507807 -444868107 1248325672 919438070 -126857347 1404084405 1054618210 -218382611 999265318 -2015727110 498210164 754270948 432519594 1527958174
REM
CELL 1.54180   50.00000   50.00000   50.00000   90.00000   90.00000   90.00000
LATT -1
SFAC C  
C      1  0.5333890000000  0.5821170000000  0.5208580000000 1.0
C      1  0.5563070000000  0.5208100000000  0.5620810000000 1.0
C      1  0.4986990000000  0.5067290000000  0.4705770000000 1.0
C      1  0.5128050000000  0.5231360000000  0.5677910000000 1.0
C      1  0.5305400000000  0.4920380000000  0.4153560000000 1.0
C      1  0.5213730000000  0.4471600000000  0.4430240000000 1.0
C      1  0.4570330000000  0.5002750000000  0.5744790000000 1.0
C      1  0.4687910000000  0.5039220000000  0.5270010000000 1.0
C      1  0.4811250000000  0.4846430000000  0.5722280000000 1.0
C      1  0.4897980000000  0.4576250000000  0.5756940000000 1.0
C      1  0.5756200000000  0.5091930000000  0.5042920000000 1.0
C      1  0.4831430000000  0.4213800000000  0.4636240000000 1.0
C      1  0.4531340000000  0.5070610000000  0.4515170000000 1.0
C      1  0.5287220000000  0.4729790000000  0.5086530000000 1.0
C      1  0.4688080000000  0.5688820000000  0.4102060000000 1.0
C      1  0.4699870000000  0.4393000000000  0.5621230000000 1.0
C      1  0.4143870000000  0.5296510000000  0.4767890000000 1.0
C      1  0.5262020000000  0.4979660000000  0.4669450000000 1.0
C      1  0.4137170000000  0.5400450000000  0.5237460000000 1.0
C      1  0.4534070000000  0.5841720000000  0.4255600000000 1.0
C      1  0.4726970000000  0.4297040000000  0.5120560000000 1.0
C      1  0.5316240000000  0.4997990000000  0.5208290000000 1.0
C      1  0.4985830000000  0.5487700000000  0.5334240000000 1.0
C      1  0.5431170000000  0.5392660000000  0.4888560000000 1.0
C      1  0.4237560000000  0.5227480000000  0.5413900000000 1.0
C      1  0.4162610000000  0.5755000000000  0.4892440000000 1.0
C      1  0.5159580000000  0.5045500000000  0.5451880000000 1.0
C      1  0.5472010000000  0.5434320000000  0.5487310000000 1.0
C      1  0.6057000000000  0.4490440000000  0.4825740000000 1.0
C      1  0.4392540000000  0.5926170000000  0.4464310000000 1.0
C      1  0.4658880000000  0.4817400000000  0.5066770000000 1.0
C      1  0.5493870000000  0.5193320000000  0.5082230000000 1.0
C      1  0.5437070000000  0.5445780000000  0.4624170000000 1.0
C      1  0.5448240000000  0.4667690000000  0.5633410000000 1.0
C      1  0.5874260000000  0.4636600000000  0.4967060000000 1.0
C      1  0.5270780000000  0.5581120000000  0.5326810000000 1.0
C      1  0.5271760000000  0.5201660000000  0.4175940000000 1.0
C      1  0.4903890000000  0.4928730000000  0.5457630000000 1.0
C      1  0.5178240000000  0.4528440000000  0.5646870000000 1.0
C      1  0.4262840000000  0.5904880000000  0.4695800000000 1.0
C      1  0.4901960000000  0.5296000000000  0.4868040000000 1.0
C      1  0.4954630000000  0.5437660000000  0.5618350000000 1.0
C      1  0.5103700000000  0.4392750000000  0.5396190000000 1.0
C      1  0.4735080000000  0.4148400000000  0.4881150000000 1.0
C      1  0.4774870000000  0.4938770000000  0.4556320000000 1.0
C      1  0.4327650000000  0.4725870000000  0.5460700000000 1.0
C      1  0.4803550000000  0.4577430000000  0.5073590000000 1.0
C      1  0.4831680000000  0.4257040000000  0.5396980000000 1.0
C      1  0.5758720000000  0.4876350000000  0.4857920000000 1.0
C      1  0.4864210000000  0.5505940000000  0.4023270000000 1.0
C      1  0.5405580000000  0.5357710000000  0.4372040000000 1.0
C      1  0.5407330000000  0.4557150000000  0.4891180000000 1.0
C      1  0.5532110000000  0.4911690000000  0.4674300000000 1.0
C      1  0.5071020000000  0.4580040000000  0.5178710000000 1.0
C      1  0.4128210000000  0.5488570000000  0.4972180000000 1.0
C      1  0.4297260000000  0.5167130000000  0.4594110000000 1.0
C      1  0.5794460000000  0.4558950000000  0.5231350000000 1.0
C      1  0.5523360000000  0.4944590000000  0.5698300000000 1.0
C      1  0.4838590000000  0.5296320000000  0.5152860000000 1.0
C      1  0.5383670000000  0.4434900000000  0.4652750000000 1.0
C      1  0.4935140000000  0.4431220000000  0.4486900000000 1.0
C      1  0.5284110000000  0.4662820000000  0.4230730000000 1.0
C      1  0.4439130000000  0.4500010000000  0.5566840000000 1.0
C      1  0.5063770000000  0.5330710000000  0.4038210000000 1.0
C      1  0.4432990000000  0.5016380000000  0.5468040000000 1.0
C      1  0.4788010000000  0.4670060000000  0.4478990000000 1.0
C      1  0.5643120000000  0.4548890000000  0.5454850000000 1.0
C      1  0.4864840000000  0.5535880000000  0.4735770000000 1.0
END
