TITL C-627113-6568-683 0.613014464951259 125000 -271.831176897332 0 0 46 (C1) n - 1
REM
REM in /home/nfs/bkarasulu/CARBON/AIRSS/Generating-Clusters/LCBOP/Only-C1/SD-CG/FIRE-CG
REM
REM
REM
REM
REM
REM ./C.cell (11c1c37f851c82e70ff6c80c92926a4b)
REM AIRSS Version 0.9.1 bugfix July 2018 build 013d7b7c2542+ Fri, 06 Jul 2018 19:26:36 +0100
REM compiler GCC version 9.2.1 20190827 (Red Hat 9.2.1-1)
REM options -cpp -mtune=generic -march=x86-64 -g -O0 -fpre-include=/usr/include/finclude/math-vector-fortran.h
REM seed 1982108109 1079643488 -101993674 -314357082 1326106238 816442297 -1400942088 49398314 -54507089 -1628573872 1294518182 -1876364847 2082692819 -1027403497 -1528743619 320502121 494124893 -442379983 28812495 -497591308 857779361 930959641 638203972 -1957468285 -1992848371 449232735 405612062 1238114804 421667088 -163074593 -1207382405 -772666130 -135957997
REM
CELL 1.54180   50.00000   50.00000   50.00000   90.00000   90.00000   90.00000
LATT -1
SFAC C  
C      1  0.4373680000000  0.5174630000000  0.5725820000000 1.0
C      1  0.5497080000000  0.5359360000000  0.5568990000000 1.0
C      1  0.5133640000000  0.4783510000000  0.5522730000000 1.0
C      1  0.5348740000000  0.4738050000000  0.4720790000000 1.0
C      1  0.5221610000000  0.5388470000000  0.5625480000000 1.0
C      1  0.4466720000000  0.4947070000000  0.4313040000000 1.0
C      1  0.5386740000000  0.4296670000000  0.3459620000000 1.0
C      1  0.5645230000000  0.5163400000000  0.5459400000000 1.0
C      1  0.4235930000000  0.5004960000000  0.4434770000000 1.0
C      1  0.3987000000000  0.5441960000000  0.5628770000000 1.0
C      1  0.5004510000000  0.5393390000000  0.4393680000000 1.0
C      1  0.4894700000000  0.5089360000000  0.5822970000000 1.0
C      1  0.4923100000000  0.5134030000000  0.4471370000000 1.0
C      1  0.4954910000000  0.5626990000000  0.4519960000000 1.0
C      1  0.5290570000000  0.5131140000000  0.6049900000000 1.0
C      1  0.4990540000000  0.4875270000000  0.5292930000000 1.0
C      1  0.5386620000000  0.4378660000000  0.3711690000000 1.0
C      1  0.5733160000000  0.4818680000000  0.5113810000000 1.0
C      1  0.6267230000000  0.4746470000000  0.5085750000000 1.0
C      1  0.4729340000000  0.4994920000000  0.4323970000000 1.0
C      1  0.5049120000000  0.5358380000000  0.5402660000000 1.0
C      1  0.4138030000000  0.5147360000000  0.4638740000000 1.0
C      1  0.4215750000000  0.5311860000000  0.4834470000000 1.0
C      1  0.5614440000000  0.4901790000000  0.5358100000000 1.0
C      1  0.5385660000000  0.4543120000000  0.4215500000000 1.0
C      1  0.4822190000000  0.5656350000000  0.4753460000000 1.0
C      1  0.3943830000000  0.4813610000000  0.5279270000000 1.0
C      1  0.4968020000000  0.5059830000000  0.4743090000000 1.0
C      1  0.6009110000000  0.4780300000000  0.5097930000000 1.0
C      1  0.5386850000000  0.4216020000000  0.3211710000000 1.0
C      1  0.4708860000000  0.5451990000000  0.4912820000000 1.0
C      1  0.5378470000000  0.4630010000000  0.4465600000000 1.0
C      1  0.4998440000000  0.4710690000000  0.5062100000000 1.0
C      1  0.4953580000000  0.5156750000000  0.5230820000000 1.0
C      1  0.4622840000000  0.5133640000000  0.5805530000000 1.0
C      1  0.5247560000000  0.4859770000000  0.6000980000000 1.0
C      1  0.5117360000000  0.5285170000000  0.5871200000000 1.0
C      1  0.4874020000000  0.5224210000000  0.4963720000000 1.0
C      1  0.5410590000000  0.4745120000000  0.5475720000000 1.0
C      1  0.5093190000000  0.4814520000000  0.4816490000000 1.0
C      1  0.5570370000000  0.4773690000000  0.4889560000000 1.0
C      1  0.5386490000000  0.4460640000000  0.3963680000000 1.0
C      1  0.4431120000000  0.5428570000000  0.4940870000000 1.0
C      1  0.4127920000000  0.5209710000000  0.5597150000000 1.0
C      1  0.5046590000000  0.4835060000000  0.5788650000000 1.0
C      1  0.4028560000000  0.5004860000000  0.5434720000000 1.0
END
