TITL C-627109-622-1987 12202.6318815256 125000 -930.595794538534 0 0 151 (C1) n - 1
REM
REM in /home/nfs/bkarasulu/CARBON/AIRSS/Generating-Clusters/LCBOP/Only-C1/SD-CG/FIRE-CG
REM
REM
REM
REM
REM
REM ./C.cell (11c1c37f851c82e70ff6c80c92926a4b)
REM AIRSS Version 0.9.1 bugfix July 2018 build 013d7b7c2542+ Fri, 06 Jul 2018 19:26:36 +0100
REM compiler GCC version 9.2.1 20190827 (Red Hat 9.2.1-1)
REM options -cpp -mtune=generic -march=x86-64 -g -O0 -fpre-include=/usr/include/finclude/math-vector-fortran.h
REM seed 996640769 -643246829 -19721498 -394730307 135947761 -1387569392 827188816 569786823 -1636581229 1198961833 937552356 1223140943 30851894 -308291327 -1129223549 478760430 1064352576 -1516674984 14755193 1246302546 -45385391 -1990407511 1665742383 2053281875 -892981421 -918115129 -1170596551 -400442212 688867547 138716265 -788430246 1931494576 -1429099969
REM
CELL 1.54180   50.00000   50.00000   50.00000   90.00000   90.00000   90.00000
LATT -1
SFAC C  
C      1  0.4669540000000  0.5182860000000  0.5772600000000 1.0
C      1  0.5505130000000  0.3954410000000  0.5329840000000 1.0
C      1  0.4781450000000  0.4695910000000  0.4910070000000 1.0
C      1  0.5891720000000  0.4670490000000  0.4194890000000 1.0
C      1  0.5706320000000  0.4213910000000  0.4382870000000 1.0
C      1  0.5717070000000  0.4903850000000  0.5257700000000 1.0
C      1  0.3877970000000  0.5055140000000  0.4478830000000 1.0
C      1  0.5692920000000  0.4603270000000  0.5713420000000 1.0
C      1  0.4692830000000  0.4409550000000  0.4434460000000 1.0
C      1  0.4855290000000  0.5152220000000  0.4843330000000 1.0
C      1  0.4653470000000  0.4772760000000  0.4014830000000 1.0
C      1  0.4484060000000  0.5897790000000  0.5154990000000 1.0
C      1  0.4128110000000  0.4446620000000  0.5051740000000 1.0
C      1  0.5508370000000  0.5717970000000  0.4706700000000 1.0
C      1  0.4963500000000  0.4738680000000  0.5125860000000 1.0
C      1  0.4095920000000  0.5048720000000  0.5669650000000 1.0
C      1  0.4809620000000  0.4422090000000  0.5779160000000 1.0
C      1  0.4245110000000  0.4390900000000  0.4494800000000 1.0
C      1  0.5035880000000  0.5902180000000  0.4365390000000 1.0
C      1  0.5009900000000  0.4132330000000  0.4219090000000 1.0
C      1  0.5248930000000  0.3986880000000  0.4605210000000 1.0
C      1  0.4906530000000  0.5718030000000  0.5411000000000 1.0
C      1  0.5293640000000  0.5201550000000  0.4686540000000 1.0
C      1  0.4952200000000  0.5511240000000  0.4568750000000 1.0
C      1  0.5100090000000  0.6028070000000  0.5848260000000 1.0
C      1  0.5111560000000  0.5621570000000  0.4356230000000 1.0
C      1  0.5422530000000  0.3865200000000  0.5086520000000 1.0
C      1  0.5566820000000  0.5719840000000  0.5379050000000 1.0
C      1  0.5256260000000  0.4748710000000  0.4505190000000 1.0
C      1  0.5894650000000  0.5041510000000  0.4724330000000 1.0
C      1  0.4420600000000  0.4329460000000  0.5418940000000 1.0
C      1  0.5122750000000  0.4227290000000  0.5025610000000 1.0
C      1  0.4736280000000  0.5978200000000  0.5044250000000 1.0
C      1  0.4193500000000  0.4401990000000  0.5580270000000 1.0
C      1  0.5352160000000  0.5987710000000  0.5703460000000 1.0
C      1  0.5902320000000  0.4557200000000  0.4846010000000 1.0
C      1  0.5983350000000  0.4847940000000  0.5177870000000 1.0
C      1  0.4785720000000  0.5939310000000  0.4224220000000 1.0
C      1  0.5217920000000  0.4436900000000  0.4864570000000 1.0
C      1  0.5661550000000  0.5305850000000  0.5760450000000 1.0
C      1  0.4437200000000  0.5540970000000  0.4300990000000 1.0
C      1  0.5826860000000  0.4930590000000  0.4158750000000 1.0
C      1  0.5092610000000  0.4421800000000  0.5738190000000 1.0
C      1  0.5658750000000  0.5599480000000  0.5632140000000 1.0
C      1  0.5658280000000  0.5487390000000  0.4556590000000 1.0
C      1  0.4561010000000  0.4885410000000  0.5768020000000 1.0
C      1  0.5330580000000  0.4476060000000  0.4022800000000 1.0
C      1  0.5197960000000  0.5141010000000  0.5230450000000 1.0
C      1  0.4718530000000  0.5649760000000  0.4664870000000 1.0
C      1  0.4956350000000  0.5924170000000  0.5219590000000 1.0
C      1  0.5752860000000  0.4719380000000  0.5979810000000 1.0
C      1  0.5924300000000  0.5342500000000  0.5268290000000 1.0
C      1  0.5618900000000  0.5124160000000  0.4146240000000 1.0
C      1  0.3791380000000  0.5147120000000  0.4993200000000 1.0
C      1  0.4766520000000  0.5639810000000  0.6006320000000 1.0
C      1  0.4901460000000  0.5259800000000  0.3959760000000 1.0
C      1  0.4387910000000  0.4947430000000  0.5307570000000 1.0
C      1  0.4755590000000  0.4915250000000  0.4738790000000 1.0
C      1  0.4508100000000  0.5606740000000  0.5186070000000 1.0
C      1  0.4803120000000  0.4817280000000  0.4248270000000 1.0
C      1  0.4120190000000  0.4625640000000  0.4376460000000 1.0
C      1  0.5047070000000  0.5310050000000  0.4728590000000 1.0
C      1  0.5196330000000  0.4271710000000  0.5521630000000 1.0
C      1  0.6070310000000  0.5482630000000  0.4835050000000 1.0
C      1  0.4319840000000  0.5084590000000  0.4824090000000 1.0
C      1  0.4212190000000  0.5968210000000  0.5211210000000 1.0
C      1  0.5658690000000  0.4616430000000  0.4709930000000 1.0
C      1  0.5467930000000  0.5089100000000  0.5683470000000 1.0
C      1  0.6022760000000  0.4828630000000  0.4895030000000 1.0
C      1  0.3955520000000  0.5236150000000  0.5213070000000 1.0
C      1  0.4542350000000  0.5386920000000  0.3665070000000 1.0
C      1  0.4400240000000  0.4396250000000  0.5129670000000 1.0
C      1  0.5042210000000  0.5193060000000  0.5461520000000 1.0
C      1  0.5438370000000  0.5288360000000  0.5184700000000 1.0
C      1  0.5239570000000  0.4650020000000  0.5812160000000 1.0
C      1  0.5406430000000  0.4982890000000  0.4569170000000 1.0
C      1  0.5468410000000  0.5127030000000  0.6196190000000 1.0
C      1  0.5296370000000  0.5911320000000  0.4837370000000 1.0
C      1  0.4313920000000  0.3629890000000  0.4480300000000 1.0
C      1  0.4422200000000  0.5307530000000  0.4131810000000 1.0
C      1  0.5523260000000  0.5782410000000  0.5836080000000 1.0
C      1  0.4258460000000  0.4106400000000  0.4440840000000 1.0
C      1  0.5208670000000  0.5220050000000  0.5690280000000 1.0
C      1  0.5461140000000  0.5560950000000  0.5174080000000 1.0
C      1  0.4720740000000  0.3884210000000  0.4516870000000 1.0
C      1  0.4496880000000  0.4436240000000  0.4633630000000 1.0
C      1  0.5882900000000  0.5333580000000  0.4683240000000 1.0
C      1  0.4305190000000  0.5487160000000  0.5036500000000 1.0
C      1  0.4139740000000  0.4871020000000  0.4791330000000 1.0
C      1  0.4159650000000  0.4586420000000  0.5775790000000 1.0
C      1  0.4471860000000  0.5521980000000  0.4584840000000 1.0
C      1  0.4034300000000  0.4652750000000  0.4907340000000 1.0
C      1  0.4896080000000  0.5880860000000  0.5966380000000 1.0
C      1  0.6087380000000  0.5478500000000  0.5103900000000 1.0
C      1  0.4334520000000  0.5366610000000  0.4779090000000 1.0
C      1  0.4625340000000  0.5315770000000  0.3917780000000 1.0
C      1  0.4053380000000  0.5503190000000  0.5170140000000 1.0
C      1  0.5888800000000  0.4345420000000  0.5325360000000 1.0
C      1  0.4079080000000  0.4917430000000  0.4324120000000 1.0
C      1  0.5928910000000  0.4372970000000  0.5059550000000 1.0
C      1  0.5370670000000  0.5026540000000  0.4009390000000 1.0
C      1  0.4011300000000  0.5778460000000  0.5240530000000 1.0
C      1  0.5300550000000  0.4696520000000  0.6086260000000 1.0
C      1  0.5664770000000  0.4901150000000  0.4633310000000 1.0
C      1  0.4578250000000  0.4487540000000  0.4905620000000 1.0
C      1  0.5191710000000  0.5164180000000  0.6276430000000 1.0
C      1  0.4846220000000  0.4607710000000  0.5338410000000 1.0
C      1  0.5435920000000  0.4130380000000  0.4402550000000 1.0
C      1  0.5272450000000  0.4240650000000  0.4179770000000 1.0
C      1  0.5404610000000  0.5964860000000  0.5401060000000 1.0
C      1  0.4469010000000  0.5022110000000  0.5055070000000 1.0
C      1  0.4433550000000  0.3878290000000  0.4479000000000 1.0
C      1  0.4270720000000  0.5050080000000  0.4142990000000 1.0
C      1  0.5061340000000  0.4741040000000  0.4312090000000 1.0
C      1  0.5216280000000  0.4859310000000  0.5179700000000 1.0
C      1  0.4255630000000  0.4854390000000  0.5804990000000 1.0
C      1  0.5556170000000  0.5380580000000  0.4297530000000 1.0
C      1  0.4703470000000  0.5519020000000  0.5366950000000 1.0
C      1  0.5348330000000  0.4742570000000  0.3957670000000 1.0
C      1  0.5172620000000  0.5243120000000  0.4035950000000 1.0
C      1  0.4590090000000  0.4800690000000  0.5462580000000 1.0
C      1  0.4400640000000  0.4858320000000  0.3971660000000 1.0
C      1  0.4704540000000  0.4658140000000  0.5903140000000 1.0
C      1  0.4939970000000  0.5222080000000  0.6194200000000 1.0
C      1  0.5852690000000  0.4416110000000  0.4276800000000 1.0
C      1  0.5282310000000  0.5452460000000  0.4210460000000 1.0
C      1  0.5447680000000  0.4779030000000  0.5627510000000 1.0
C      1  0.5058000000000  0.5979050000000  0.4656170000000 1.0
C      1  0.5235020000000  0.5975470000000  0.5148380000000 1.0
C      1  0.5391070000000  0.5577200000000  0.5998170000000 1.0
C      1  0.5030890000000  0.4299120000000  0.5292160000000 1.0
C      1  0.5702080000000  0.4361960000000  0.5541280000000 1.0
C      1  0.5246670000000  0.3990290000000  0.4901790000000 1.0
C      1  0.4760830000000  0.5345590000000  0.6005610000000 1.0
C      1  0.4130310000000  0.5070160000000  0.5388580000000 1.0
C      1  0.5469800000000  0.4184400000000  0.5498040000000 1.0
C      1  0.5539880000000  0.4850180000000  0.6138460000000 1.0
C      1  0.5187610000000  0.5478560000000  0.5807630000000 1.0
C      1  0.4769930000000  0.5276120000000  0.5507430000000 1.0
C      1  0.4669900000000  0.4914700000000  0.4474650000000 1.0
C      1  0.5692120000000  0.5182520000000  0.5246250000000 1.0
C      1  0.4795730000000  0.5906790000000  0.4775820000000 1.0
C      1  0.4560840000000  0.5783830000000  0.4194630000000 1.0
C      1  0.4643670000000  0.4278840000000  0.5591730000000 1.0
C      1  0.5572810000000  0.5351850000000  0.6048700000000 1.0
C      1  0.5461470000000  0.4773940000000  0.5319090000000 1.0
C      1  0.4991340000000  0.3956070000000  0.4453580000000 1.0
C      1  0.3771730000000  0.5123290000000  0.4721340000000 1.0
C      1  0.5066850000000  0.5657220000000  0.5627770000000 1.0
C      1  0.5380030000000  0.4551160000000  0.4674800000000 1.0
C      1  0.4790980000000  0.4303840000000  0.4209000000000 1.0
END
