TITL C-627111-6168-1337 42633.5739592145 125000 -509.839447304851 0 0 87 (C1) n - 1
REM
REM in /home/nfs/bkarasulu/CARBON/AIRSS/Generating-Clusters/LCBOP/Only-C1/SD-CG/FIRE-CG
REM
REM
REM
REM
REM
REM ./C.cell (11c1c37f851c82e70ff6c80c92926a4b)
REM AIRSS Version 0.9.1 bugfix July 2018 build 013d7b7c2542+ Fri, 06 Jul 2018 19:26:36 +0100
REM compiler GCC version 9.2.1 20190827 (Red Hat 9.2.1-1)
REM options -cpp -mtune=generic -march=x86-64 -g -O0 -fpre-include=/usr/include/finclude/math-vector-fortran.h
REM seed -1168948415 -406992127 -1252733731 57937686 1174675584 253397223 151593301 -1350846876 610286383 2144811622 1219573674 1164107493 -110457700 -323131038 1944746706 -2048149992 -694321188 -1773090726 -1045850201 493599125 -1278422627 -1463141517 1648792157 1063137805 2120112878 642666637 -1022767228 -1688034773 1874421209 363219612 2112308552 -345700347 -523538367
REM
CELL 1.54180   50.00000   50.00000   50.00000   90.00000   90.00000   90.00000
LATT -1
SFAC C  
C      1  0.4545660000000  0.5206920000000  0.4592610000000 1.0
C      1  0.5299260000000  0.5032950000000  0.4785000000000 1.0
C      1  0.4410230000000  0.5486750000000  0.5358490000000 1.0
C      1  0.5650380000000  0.5195960000000  0.5302170000000 1.0
C      1  0.6052900000000  0.4977510000000  0.4874800000000 1.0
C      1  0.4404820000000  0.4786610000000  0.5731110000000 1.0
C      1  0.5405680000000  0.4633780000000  0.5018140000000 1.0
C      1  0.4381250000000  0.4965060000000  0.5015470000000 1.0
C      1  0.4840030000000  0.5369790000000  0.3956450000000 1.0
C      1  0.4515470000000  0.4835500000000  0.5983150000000 1.0
C      1  0.5240820000000  0.4223260000000  0.5663800000000 1.0
C      1  0.4201910000000  0.4692660000000  0.4631850000000 1.0
C      1  0.4449750000000  0.4800460000000  0.5239590000000 1.0
C      1  0.5020820000000  0.5284660000000  0.5113450000000 1.0
C      1  0.5835910000000  0.5126190000000  0.4801080000000 1.0
C      1  0.5754220000000  0.4722140000000  0.5511580000000 1.0
C      1  0.5185030000000  0.5692400000000  0.4483270000000 1.0
C      1  0.4558760000000  0.4290730000000  0.5007660000000 1.0
C      1  0.4177450000000  0.4851180000000  0.4851160000000 1.0
C      1  0.4435720000000  0.4702940000000  0.4469260000000 1.0
C      1  0.5386200000000  0.4464540000000  0.6056700000000 1.0
C      1  0.5051860000000  0.5481740000000  0.5737450000000 1.0
C      1  0.4723770000000  0.5106780000000  0.5533400000000 1.0
C      1  0.4961310000000  0.4564980000000  0.4961760000000 1.0
C      1  0.5145100000000  0.4818200000000  0.5451650000000 1.0
C      1  0.4834640000000  0.4581190000000  0.5193540000000 1.0
C      1  0.4394340000000  0.5675240000000  0.4629400000000 1.0
C      1  0.5168180000000  0.5540860000000  0.5206650000000 1.0
C      1  0.5292920000000  0.3930720000000  0.4834590000000 1.0
C      1  0.5313890000000  0.3771360000000  0.4629460000000 1.0
C      1  0.5402130000000  0.4353190000000  0.5056490000000 1.0
C      1  0.4014510000000  0.4419620000000  0.5678950000000 1.0
C      1  0.4832310000000  0.5295680000000  0.4545320000000 1.0
C      1  0.4574760000000  0.4324280000000  0.4721060000000 1.0
C      1  0.4520590000000  0.4904530000000  0.5498950000000 1.0
C      1  0.5421500000000  0.4399640000000  0.5786870000000 1.0
C      1  0.5135770000000  0.5478610000000  0.4694770000000 1.0
C      1  0.5200980000000  0.5245520000000  0.5656320000000 1.0
C      1  0.4899220000000  0.5727240000000  0.4385930000000 1.0
C      1  0.4636110000000  0.5388450000000  0.5506630000000 1.0
C      1  0.4349050000000  0.5418750000000  0.4517600000000 1.0
C      1  0.5226670000000  0.5205700000000  0.4342350000000 1.0
C      1  0.5693610000000  0.5320700000000  0.5011990000000 1.0
C      1  0.5453400000000  0.5301540000000  0.5499360000000 1.0
C      1  0.5323490000000  0.5263930000000  0.4606420000000 1.0
C      1  0.4926280000000  0.4577520000000  0.4458800000000 1.0
C      1  0.5143560000000  0.4661500000000  0.4265100000000 1.0
C      1  0.5256310000000  0.5644110000000  0.4941870000000 1.0
C      1  0.5392590000000  0.5557630000000  0.5391390000000 1.0
C      1  0.5376190000000  0.5047620000000  0.4152850000000 1.0
C      1  0.4912970000000  0.5102490000000  0.4058970000000 1.0
C      1  0.4839450000000  0.5601980000000  0.4119260000000 1.0
C      1  0.4274620000000  0.5707260000000  0.4892560000000 1.0
C      1  0.5552440000000  0.5643090000000  0.4591480000000 1.0
C      1  0.5078910000000  0.4112620000000  0.5482910000000 1.0
C      1  0.5240870000000  0.4119330000000  0.5033280000000 1.0
C      1  0.5590730000000  0.5373660000000  0.4515780000000 1.0
C      1  0.4187480000000  0.4612490000000  0.5707490000000 1.0
C      1  0.5013750000000  0.5036000000000  0.5577200000000 1.0
C      1  0.4642790000000  0.4508160000000  0.4506870000000 1.0
C      1  0.4752890000000  0.5649270000000  0.4899510000000 1.0
C      1  0.5058290000000  0.4614770000000  0.4711490000000 1.0
C      1  0.4643900000000  0.4863160000000  0.6208260000000 1.0
C      1  0.5417180000000  0.4699250000000  0.4434460000000 1.0
C      1  0.4846180000000  0.5580450000000  0.5560250000000 1.0
C      1  0.5015100000000  0.4085360000000  0.5209860000000 1.0
C      1  0.4942320000000  0.5712600000000  0.5325230000000 1.0
C      1  0.4744590000000  0.4094100000000  0.5114790000000 1.0
C      1  0.4555160000000  0.5167550000000  0.4899490000000 1.0
C      1  0.5138160000000  0.4882310000000  0.4050910000000 1.0
C      1  0.5269260000000  0.4830070000000  0.5199120000000 1.0
C      1  0.5583360000000  0.4922700000000  0.4333450000000 1.0
C      1  0.5335570000000  0.4563690000000  0.6292370000000 1.0
C      1  0.4508070000000  0.4967790000000  0.4421620000000 1.0
C      1  0.4683930000000  0.5732260000000  0.4621220000000 1.0
C      1  0.4554270000000  0.4536400000000  0.5175550000000 1.0
C      1  0.4760860000000  0.5357140000000  0.4994360000000 1.0
C      1  0.4950030000000  0.5180150000000  0.4337540000000 1.0
C      1  0.5188820000000  0.5064120000000  0.5046610000000 1.0
C      1  0.4292650000000  0.5614530000000  0.5148900000000 1.0
C      1  0.5119600000000  0.5921230000000  0.4949700000000 1.0
C      1  0.4862790000000  0.5848830000000  0.5081540000000 1.0
C      1  0.5334540000000  0.4735160000000  0.4724570000000 1.0
C      1  0.5736300000000  0.5122520000000  0.4518370000000 1.0
C      1  0.5625470000000  0.4528060000000  0.5641790000000 1.0
C      1  0.5774810000000  0.4954890000000  0.5381800000000 1.0
C      1  0.5554600000000  0.5605780000000  0.4887710000000 1.0
END
