TITL C-627110-360-1511 0.580341477013211 125000 -944.030390181524 0 0 155 (C1) n - 1
REM
REM in /home/nfs/bkarasulu/CARBON/AIRSS/Generating-Clusters/LCBOP/Only-C1/SD-CG/FIRE-CG
REM
REM
REM
REM
REM
REM ./C.cell (11c1c37f851c82e70ff6c80c92926a4b)
REM AIRSS Version 0.9.1 bugfix July 2018 build 013d7b7c2542+ Fri, 06 Jul 2018 19:26:36 +0100
REM compiler GCC version 9.2.1 20190827 (Red Hat 9.2.1-1)
REM options -cpp -mtune=generic -march=x86-64 -g -O0 -fpre-include=/usr/include/finclude/math-vector-fortran.h
REM seed 571001589 2094623643 -269478034 609580660 260230509 1855587994 1971103373 694430400 -64851552 1317340629 -1550161358 -2102556675 2130796004 716932943 404752831 -599245284 -1014195259 98063497 -1612191587 -518703891 -14318026 -727796120 -1384104847 -746982585 -1057695828 561961266 1269216031 691340707 -191747510 924851220 1914959829 1181580027 -1506677390
REM
CELL 1.54180   50.00000   50.00000   50.00000   90.00000   90.00000   90.00000
LATT -1
SFAC C  
C      1  0.6245860000000  0.5232020000000  0.5488330000000 1.0
C      1  0.4789900000000  0.6003770000000  0.4762060000000 1.0
C      1  0.4559830000000  0.4131580000000  0.5239180000000 1.0
C      1  0.5684140000000  0.4923140000000  0.5859110000000 1.0
C      1  0.4578520000000  0.5472220000000  0.4897450000000 1.0
C      1  0.5197690000000  0.5381210000000  0.3980780000000 1.0
C      1  0.4978550000000  0.4373550000000  0.4358600000000 1.0
C      1  0.4279460000000  0.4166700000000  0.3709510000000 1.0
C      1  0.5450110000000  0.4787470000000  0.4756480000000 1.0
C      1  0.4281470000000  0.5577500000000  0.5721180000000 1.0
C      1  0.5570480000000  0.4047990000000  0.5348880000000 1.0
C      1  0.4998730000000  0.5376540000000  0.4443710000000 1.0
C      1  0.4964090000000  0.3471650000000  0.5065290000000 1.0
C      1  0.4750140000000  0.5579560000000  0.3955260000000 1.0
C      1  0.5459720000000  0.4867620000000  0.3786880000000 1.0
C      1  0.5311900000000  0.4316390000000  0.4719610000000 1.0
C      1  0.4031770000000  0.5323760000000  0.5238720000000 1.0
C      1  0.4231710000000  0.5713580000000  0.4059380000000 1.0
C      1  0.5797420000000  0.5406440000000  0.5165710000000 1.0
C      1  0.5602960000000  0.4713270000000  0.4516930000000 1.0
C      1  0.4870950000000  0.3806060000000  0.4723740000000 1.0
C      1  0.5640640000000  0.5867550000000  0.4851670000000 1.0
C      1  0.4528360000000  0.6088260000000  0.4868820000000 1.0
C      1  0.5723570000000  0.5512050000000  0.5423140000000 1.0
C      1  0.5611090000000  0.4787280000000  0.5318480000000 1.0
C      1  0.5366540000000  0.4937890000000  0.5444780000000 1.0
C      1  0.5950200000000  0.4895510000000  0.5743800000000 1.0
C      1  0.5143590000000  0.4977220000000  0.6261850000000 1.0
C      1  0.4571160000000  0.4495530000000  0.4910340000000 1.0
C      1  0.4837080000000  0.3038890000000  0.5343490000000 1.0
C      1  0.4457010000000  0.4909500000000  0.5718540000000 1.0
C      1  0.5658240000000  0.5799720000000  0.4588650000000 1.0
C      1  0.4221110000000  0.5334000000000  0.5821200000000 1.0
C      1  0.4973640000000  0.4073770000000  0.5566420000000 1.0
C      1  0.4496860000000  0.5029110000000  0.5108600000000 1.0
C      1  0.4850860000000  0.5500560000000  0.5595990000000 1.0
C      1  0.4365070000000  0.5632900000000  0.5455790000000 1.0
C      1  0.5102230000000  0.5393430000000  0.5506210000000 1.0
C      1  0.5434330000000  0.5258460000000  0.4643310000000 1.0
C      1  0.5622360000000  0.5949570000000  0.5127250000000 1.0
C      1  0.5693950000000  0.5214490000000  0.4500710000000 1.0
C      1  0.4521040000000  0.6246210000000  0.5100760000000 1.0
C      1  0.4862660000000  0.6054650000000  0.4492300000000 1.0
C      1  0.4927440000000  0.4646360000000  0.4390320000000 1.0
C      1  0.4411760000000  0.4319660000000  0.5077500000000 1.0
C      1  0.5211210000000  0.5488980000000  0.5272150000000 1.0
C      1  0.5864010000000  0.4825640000000  0.5168040000000 1.0
C      1  0.4380120000000  0.4803350000000  0.4442080000000 1.0
C      1  0.5455090000000  0.5071200000000  0.4859190000000 1.0
C      1  0.5486150000000  0.5299970000000  0.6087570000000 1.0
C      1  0.5647440000000  0.5779680000000  0.5359260000000 1.0
C      1  0.4957030000000  0.5128620000000  0.4998820000000 1.0
C      1  0.4103100000000  0.4685050000000  0.5171270000000 1.0
C      1  0.4718730000000  0.5642330000000  0.5088960000000 1.0
C      1  0.5114820000000  0.5585280000000  0.4834530000000 1.0
C      1  0.4929790000000  0.4941270000000  0.6083220000000 1.0
C      1  0.5664690000000  0.5198460000000  0.5026800000000 1.0
C      1  0.4474730000000  0.5623340000000  0.3950320000000 1.0
C      1  0.5333410000000  0.5167990000000  0.6265100000000 1.0
C      1  0.5332710000000  0.4076320000000  0.4853210000000 1.0
C      1  0.5284800000000  0.4573530000000  0.4840690000000 1.0
C      1  0.4891940000000  0.4719060000000  0.5893550000000 1.0
C      1  0.4339030000000  0.5753740000000  0.4586580000000 1.0
C      1  0.4773060000000  0.5399790000000  0.5849660000000 1.0
C      1  0.4222800000000  0.5770310000000  0.4334720000000 1.0
C      1  0.5031270000000  0.3708240000000  0.4934110000000 1.0
C      1  0.3797940000000  0.4053120000000  0.5366130000000 1.0
C      1  0.4780780000000  0.4170610000000  0.4336110000000 1.0
C      1  0.4730890000000  0.4840400000000  0.5671410000000 1.0
C      1  0.5941030000000  0.4490750000000  0.4831620000000 1.0
C      1  0.5477800000000  0.4970130000000  0.4040700000000 1.0
C      1  0.5394400000000  0.6269880000000  0.5402800000000 1.0
C      1  0.4897790000000  0.5982190000000  0.4235130000000 1.0
C      1  0.4798320000000  0.5188840000000  0.6015890000000 1.0
C      1  0.4158850000000  0.5788730000000  0.5037920000000 1.0
C      1  0.4010380000000  0.5744840000000  0.3902380000000 1.0
C      1  0.5232700000000  0.4296310000000  0.4449840000000 1.0
C      1  0.6136240000000  0.5608250000000  0.4859920000000 1.0
C      1  0.5412590000000  0.3838610000000  0.5245640000000 1.0
C      1  0.4666370000000  0.5682640000000  0.5400090000000 1.0
C      1  0.5445030000000  0.5255670000000  0.4079880000000 1.0
C      1  0.6033260000000  0.4620410000000  0.5074180000000 1.0
C      1  0.5215790000000  0.5443640000000  0.4607030000000 1.0
C      1  0.4958740000000  0.4896500000000  0.4518420000000 1.0
C      1  0.4900540000000  0.3254720000000  0.5203320000000 1.0
C      1  0.4915380000000  0.5786240000000  0.4909510000000 1.0
C      1  0.5644580000000  0.5381320000000  0.4265530000000 1.0
C      1  0.4899470000000  0.4448060000000  0.5294230000000 1.0
C      1  0.5186050000000  0.4236810000000  0.5692480000000 1.0
C      1  0.4948610000000  0.5117880000000  0.4358740000000 1.0
C      1  0.4534700000000  0.4950490000000  0.4230390000000 1.0
C      1  0.5910640000000  0.4991140000000  0.4677780000000 1.0
C      1  0.4300440000000  0.5913460000000  0.4819940000000 1.0
C      1  0.4829550000000  0.4534900000000  0.5033880000000 1.0
C      1  0.4089940000000  0.4811130000000  0.4412070000000 1.0
C      1  0.6069550000000  0.5470720000000  0.5085650000000 1.0
C      1  0.5571490000000  0.4503110000000  0.5397800000000 1.0
C      1  0.4578800000000  0.6178120000000  0.5353310000000 1.0
C      1  0.3975210000000  0.4226030000000  0.5272010000000 1.0
C      1  0.3871570000000  0.4657890000000  0.3941880000000 1.0
C      1  0.4428320000000  0.4177740000000  0.3923230000000 1.0
C      1  0.4555150000000  0.5575880000000  0.4629580000000 1.0
C      1  0.5848820000000  0.4231140000000  0.4939810000000 1.0
C      1  0.5626660000000  0.5214090000000  0.5861730000000 1.0
C      1  0.4972530000000  0.6049220000000  0.5595240000000 1.0
C      1  0.5566250000000  0.6223610000000  0.5186170000000 1.0
C      1  0.6096440000000  0.4407980000000  0.5577260000000 1.0
C      1  0.4762950000000  0.5041750000000  0.5201130000000 1.0
C      1  0.4161970000000  0.4409060000000  0.5173980000000 1.0
C      1  0.4732130000000  0.5974020000000  0.5473480000000 1.0
C      1  0.4144090000000  0.5106370000000  0.5405450000000 1.0
C      1  0.4165470000000  0.5591590000000  0.5247550000000 1.0
C      1  0.4434630000000  0.5236080000000  0.4923430000000 1.0
C      1  0.5784280000000  0.5342870000000  0.5651140000000 1.0
C      1  0.3836500000000  0.4974360000000  0.4877800000000 1.0
C      1  0.3983570000000  0.4721820000000  0.4168340000000 1.0
C      1  0.6268140000000  0.5370680000000  0.5259580000000 1.0
C      1  0.5132350000000  0.5111460000000  0.5488650000000 1.0
C      1  0.5530110000000  0.4794780000000  0.4258010000000 1.0
C      1  0.4869260000000  0.4983810000000  0.5457870000000 1.0
C      1  0.5260200000000  0.3857430000000  0.5010190000000 1.0
C      1  0.5444430000000  0.4260700000000  0.5511720000000 1.0
C      1  0.5042400000000  0.4452470000000  0.5873500000000 1.0
C      1  0.3907360000000  0.4899840000000  0.4610730000000 1.0
C      1  0.5468660000000  0.4737500000000  0.5843380000000 1.0
C      1  0.4802040000000  0.4191140000000  0.5373050000000 1.0
C      1  0.3851660000000  0.4763840000000  0.5064430000000 1.0
C      1  0.3951580000000  0.5224480000000  0.4970230000000 1.0
C      1  0.4979780000000  0.4923620000000  0.4798110000000 1.0
C      1  0.5082650000000  0.4586360000000  0.5458960000000 1.0
C      1  0.4769100000000  0.5104920000000  0.4135210000000 1.0
C      1  0.5279220000000  0.4721460000000  0.5628220000000 1.0
C      1  0.4889180000000  0.5314790000000  0.3961110000000 1.0
C      1  0.5676480000000  0.6427980000000  0.5042760000000 1.0
C      1  0.4784930000000  0.3960930000000  0.4524510000000 1.0
C      1  0.5884010000000  0.5026390000000  0.4962320000000 1.0
C      1  0.6020190000000  0.5156640000000  0.5634650000000 1.0
C      1  0.4938900000000  0.5791980000000  0.4031180000000 1.0
C      1  0.4774660000000  0.2826630000000  0.5481380000000 1.0
C      1  0.4767080000000  0.5532280000000  0.4459190000000 1.0
C      1  0.4481450000000  0.4641360000000  0.4669950000000 1.0
C      1  0.4272090000000  0.4906340000000  0.5237400000000 1.0
C      1  0.6072270000000  0.4648300000000  0.5694100000000 1.0
C      1  0.4590980000000  0.4177360000000  0.4132330000000 1.0
C      1  0.5199620000000  0.6183500000000  0.5561730000000 1.0
C      1  0.5873290000000  0.4698620000000  0.4618580000000 1.0
C      1  0.6022590000000  0.4217080000000  0.5402660000000 1.0
C      1  0.4181790000000  0.5256320000000  0.4804350000000 1.0
C      1  0.5821390000000  0.4131980000000  0.5217290000000 1.0
C      1  0.3623480000000  0.3882980000000  0.5458780000000 1.0
C      1  0.5196820000000  0.5675970000000  0.3977860000000 1.0
C      1  0.4245870000000  0.5096340000000  0.5672640000000 1.0
C      1  0.5663660000000  0.5656420000000  0.4355300000000 1.0
C      1  0.5110410000000  0.5378710000000  0.5034820000000 1.0
C      1  0.5032650000000  0.4668760000000  0.4907830000000 1.0
END
