TITL C-627111-6168-445 0.571366019916257 125000 -571.267680413786 0 0 97 (C1) n - 1
REM
REM in /home/nfs/bkarasulu/CARBON/AIRSS/Generating-Clusters/LCBOP/Only-C1/SD-CG/FIRE-CG
REM
REM
REM
REM
REM
REM ./C.cell (11c1c37f851c82e70ff6c80c92926a4b)
REM AIRSS Version 0.9.1 bugfix July 2018 build 013d7b7c2542+ Fri, 06 Jul 2018 19:26:36 +0100
REM compiler GCC version 9.2.1 20190827 (Red Hat 9.2.1-1)
REM options -cpp -mtune=generic -march=x86-64 -g -O0 -fpre-include=/usr/include/finclude/math-vector-fortran.h
REM seed 565191107 1195003313 -405075180 1879521114 -440207741 980392215 1650600248 -793474864 1454717357 137931780 -945316926 -147580395 454887288 742261457 1315063702 1615126381 1578699489 -2039032333 -1671875790 -1897289971 449414762 447671082 1701208719 -261666583 1989042636 584036308 -784822671 -730366713 -1238792926 -400714383 1410727743 -284714557 -1798866062
REM
CELL 1.54180   50.00000   50.00000   50.00000   90.00000   90.00000   90.00000
LATT -1
SFAC C  
C      1  0.3982600000000  0.4998120000000  0.4851550000000 1.0
C      1  0.5849090000000  0.5368760000000  0.5401810000000 1.0
C      1  0.4942720000000  0.4383640000000  0.4501460000000 1.0
C      1  0.4879110000000  0.4420340000000  0.4228320000000 1.0
C      1  0.4304600000000  0.5411810000000  0.5602990000000 1.0
C      1  0.5335470000000  0.5770680000000  0.4746490000000 1.0
C      1  0.5933560000000  0.5154200000000  0.4689440000000 1.0
C      1  0.5534790000000  0.4448490000000  0.4598790000000 1.0
C      1  0.5606020000000  0.4753570000000  0.5562750000000 1.0
C      1  0.5510620000000  0.4866860000000  0.4198510000000 1.0
C      1  0.5532410000000  0.5137600000000  0.4307180000000 1.0
C      1  0.4475080000000  0.5464950000000  0.5176820000000 1.0
C      1  0.4674500000000  0.4836580000000  0.4129360000000 1.0
C      1  0.4881500000000  0.4467370000000  0.5288090000000 1.0
C      1  0.3977980000000  0.5156920000000  0.5302420000000 1.0
C      1  0.4362810000000  0.5660680000000  0.4697710000000 1.0
C      1  0.4407030000000  0.4518430000000  0.5135320000000 1.0
C      1  0.5093830000000  0.5171910000000  0.4047730000000 1.0
C      1  0.5179810000000  0.5193430000000  0.5172060000000 1.0
C      1  0.5339320000000  0.4673680000000  0.4100370000000 1.0
C      1  0.4204180000000  0.4722440000000  0.4496620000000 1.0
C      1  0.4757730000000  0.5207000000000  0.4818850000000 1.0
C      1  0.5437470000000  0.4712790000000  0.4660140000000 1.0
C      1  0.4950390000000  0.5745100000000  0.5228260000000 1.0
C      1  0.4387380000000  0.4947200000000  0.4574450000000 1.0
C      1  0.5107250000000  0.4412350000000  0.5110860000000 1.0
C      1  0.4831420000000  0.5226620000000  0.4541500000000 1.0
C      1  0.5756280000000  0.4417360000000  0.4439360000000 1.0
C      1  0.4883790000000  0.4945690000000  0.5548280000000 1.0
C      1  0.4956490000000  0.4852290000000  0.5081220000000 1.0
C      1  0.4372370000000  0.5202450000000  0.5785680000000 1.0
C      1  0.4864530000000  0.5020240000000  0.4052350000000 1.0
C      1  0.4635780000000  0.5795080000000  0.4752240000000 1.0
C      1  0.4543270000000  0.4823110000000  0.4795240000000 1.0
C      1  0.5739880000000  0.4848960000000  0.5789710000000 1.0
C      1  0.4263100000000  0.4945360000000  0.5729170000000 1.0
C      1  0.4767900000000  0.5677280000000  0.5452310000000 1.0
C      1  0.5666570000000  0.5114550000000  0.5852340000000 1.0
C      1  0.5551170000000  0.4483410000000  0.5529200000000 1.0
C      1  0.4996040000000  0.4619390000000  0.4619630000000 1.0
C      1  0.5180690000000  0.4829860000000  0.4564230000000 1.0
C      1  0.4623050000000  0.4433880000000  0.5652110000000 1.0
C      1  0.5247410000000  0.4224530000000  0.4957560000000 1.0
C      1  0.5391990000000  0.5120330000000  0.5959670000000 1.0
C      1  0.5516600000000  0.4221580000000  0.5550770000000 1.0
C      1  0.4785320000000  0.5713390000000  0.4510900000000 1.0
C      1  0.4421090000000  0.5450090000000  0.4483030000000 1.0
C      1  0.5241340000000  0.5314180000000  0.4658930000000 1.0
C      1  0.5211910000000  0.5290610000000  0.4930540000000 1.0
C      1  0.4837620000000  0.5114260000000  0.5748120000000 1.0
C      1  0.5472250000000  0.3965860000000  0.5575120000000 1.0
C      1  0.5278410000000  0.5379490000000  0.5949510000000 1.0
C      1  0.5219910000000  0.4879660000000  0.5976210000000 1.0
C      1  0.5846410000000  0.5362640000000  0.5111260000000 1.0
C      1  0.4623210000000  0.5382020000000  0.4977440000000 1.0
C      1  0.4073870000000  0.5257430000000  0.4749430000000 1.0
C      1  0.4121570000000  0.5540790000000  0.4820640000000 1.0
C      1  0.5480410000000  0.3961660000000  0.4624790000000 1.0
C      1  0.5431780000000  0.5664650000000  0.4996030000000 1.0
C      1  0.5281770000000  0.5543790000000  0.5735430000000 1.0
C      1  0.4604820000000  0.4410670000000  0.5353250000000 1.0
C      1  0.5603650000000  0.4886940000000  0.5112100000000 1.0
C      1  0.4511650000000  0.5539600000000  0.5445370000000 1.0
C      1  0.5420670000000  0.4214490000000  0.4730400000000 1.0
C      1  0.4228080000000  0.4765720000000  0.5531470000000 1.0
C      1  0.4628330000000  0.4574030000000  0.4246490000000 1.0
C      1  0.5532820000000  0.4961510000000  0.5376830000000 1.0
C      1  0.5284660000000  0.5577630000000  0.4546390000000 1.0
C      1  0.6275920000000  0.5117790000000  0.5045320000000 1.0
C      1  0.5309710000000  0.5566110000000  0.4267010000000 1.0
C      1  0.5329400000000  0.5487150000000  0.5463590000000 1.0
C      1  0.5786740000000  0.5304800000000  0.5663220000000 1.0
C      1  0.4472210000000  0.4538530000000  0.4822600000000 1.0
C      1  0.4212050000000  0.4727100000000  0.5245740000000 1.0
C      1  0.5637670000000  0.5460530000000  0.4935060000000 1.0
C      1  0.4045200000000  0.4940940000000  0.5125240000000 1.0
C      1  0.3969640000000  0.4785190000000  0.4653090000000 1.0
C      1  0.4703960000000  0.5449120000000  0.4420260000000 1.0
C      1  0.5330050000000  0.5302510000000  0.4161820000000 1.0
C      1  0.5687550000000  0.5258890000000  0.4614480000000 1.0
C      1  0.5247020000000  0.5665160000000  0.5237330000000 1.0
C      1  0.6034640000000  0.5205240000000  0.4954540000000 1.0
C      1  0.5112600000000  0.4518200000000  0.4082720000000 1.0
C      1  0.4631730000000  0.5208510000000  0.5890030000000 1.0
C      1  0.5182450000000  0.4683480000000  0.5035390000000 1.0
C      1  0.4285070000000  0.5208240000000  0.4549740000000 1.0
C      1  0.5028470000000  0.4683220000000  0.5930330000000 1.0
C      1  0.4758740000000  0.4947100000000  0.4913380000000 1.0
C      1  0.5432310000000  0.4760310000000  0.4937830000000 1.0
C      1  0.5360620000000  0.5201800000000  0.5386590000000 1.0
C      1  0.4814610000000  0.4535840000000  0.5830300000000 1.0
C      1  0.5530290000000  0.3726790000000  0.4523470000000 1.0
C      1  0.4400080000000  0.4498820000000  0.4519100000000 1.0
C      1  0.4884870000000  0.4763480000000  0.5342590000000 1.0
C      1  0.5095000000000  0.5106670000000  0.4527980000000 1.0
C      1  0.4803240000000  0.5833130000000  0.4987800000000 1.0
C      1  0.4060990000000  0.5357340000000  0.5462860000000 1.0
END
