TITL C-627109-622-603 5.03936760872281e-08 125000 -243.292651840165 0 0 42 (C1) n - 1
REM
REM in /home/nfs/bkarasulu/CARBON/AIRSS/Generating-Clusters/LCBOP/Only-C1/SD-CG/FIRE-CG
REM
REM
REM
REM
REM
REM ./C.cell (11c1c37f851c82e70ff6c80c92926a4b)
REM AIRSS Version 0.9.1 bugfix July 2018 build 013d7b7c2542+ Fri, 06 Jul 2018 19:26:36 +0100
REM compiler GCC version 9.2.1 20190827 (Red Hat 9.2.1-1)
REM options -cpp -mtune=generic -march=x86-64 -g -O0 -fpre-include=/usr/include/finclude/math-vector-fortran.h
REM seed 539807172 -724395648 1162085988 -1884250132 -792580525 -1883860368 -2056677846 -1902054757 706904410 2067137406 401489834 1188922845 233690541 -966762908 -1670235923 1215006294 -733943120 1752301773 525903880 2123665267 -390850237 -2136871760 731988358 68607117 -405422430 681903078 287139107 2051627468 -540720865 1821975429 559095223 126961828 1126059983
REM
CELL 1.54180   50.00000   50.00000   50.00000   90.00000   90.00000   90.00000
LATT -1
SFAC C  
C      1  0.4637280000000  0.5586350000000  0.4404380000000 1.0
C      1  0.4385320000000  0.5210590000000  0.5048070000000 1.0
C      1  0.4593020000000  0.4491430000000  0.5041660000000 1.0
C      1  0.4461530000000  0.5756940000000  0.4315150000000 1.0
C      1  0.5451770000000  0.5319020000000  0.4606840000000 1.0
C      1  0.5039100000000  0.4702300000000  0.5782180000000 1.0
C      1  0.4871630000000  0.4999500000000  0.5120020000000 1.0
C      1  0.4498490000000  0.4752430000000  0.4496270000000 1.0
C      1  0.5230410000000  0.5159710000000  0.4544610000000 1.0
C      1  0.4908660000000  0.4940250000000  0.5377850000000 1.0
C      1  0.4420960000000  0.4717400000000  0.5058430000000 1.0
C      1  0.5566420000000  0.5309940000000  0.4882200000000 1.0
C      1  0.5853060000000  0.5552570000000  0.4605790000000 1.0
C      1  0.5214660000000  0.4473300000000  0.5112870000000 1.0
C      1  0.5818130000000  0.5454440000000  0.4863470000000 1.0
C      1  0.4809790000000  0.5411630000000  0.4503810000000 1.0
C      1  0.4888590000000  0.5098570000000  0.4872830000000 1.0
C      1  0.5270060000000  0.4695100000000  0.4713170000000 1.0
C      1  0.5636590000000  0.5476580000000  0.4449240000000 1.0
C      1  0.4355450000000  0.4959000000000  0.4923850000000 1.0
C      1  0.5430550000000  0.4938000000000  0.5188130000000 1.0
C      1  0.5426870000000  0.5215510000000  0.5106960000000 1.0
C      1  0.4674380000000  0.4561810000000  0.4571010000000 1.0
C      1  0.4741860000000  0.4299660000000  0.5733220000000 1.0
C      1  0.4631010000000  0.4232410000000  0.5500080000000 1.0
C      1  0.5132220000000  0.5787120000000  0.4993860000000 1.0
C      1  0.5245440000000  0.4300560000000  0.5316400000000 1.0
C      1  0.5056930000000  0.4467650000000  0.4864340000000 1.0
C      1  0.5273620000000  0.5409210000000  0.5258790000000 1.0
C      1  0.5106400000000  0.4860730000000  0.5562720000000 1.0
C      1  0.4898990000000  0.4483970000000  0.5845850000000 1.0
C      1  0.5369220000000  0.4892430000000  0.5463580000000 1.0
C      1  0.4589640000000  0.4301070000000  0.5246170000000 1.0
C      1  0.5387610000000  0.4710830000000  0.5020680000000 1.0
C      1  0.4971000000000  0.5229070000000  0.4637720000000 1.0
C      1  0.4546000000000  0.5405350000000  0.5140320000000 1.0
C      1  0.4355400000000  0.4930540000000  0.4641310000000 1.0
C      1  0.5062860000000  0.5568100000000  0.5144630000000 1.0
C      1  0.5346790000000  0.5461390000000  0.5518890000000 1.0
C      1  0.4780150000000  0.4479890000000  0.4821170000000 1.0
C      1  0.5274620000000  0.4883530000000  0.4516690000000 1.0
C      1  0.4787540000000  0.5514140000000  0.5184760000000 1.0
END
