TITL C-627110-360-1586 5.53619147409674e-08 125000 -97.6004850914814 0 0 17 (Cs) n - 1
REM
REM in /home/nfs/bkarasulu/CARBON/AIRSS/Generating-Clusters/LCBOP/Only-C1/SD-CG/FIRE-CG
REM
REM
REM
REM
REM
REM ./C.cell (11c1c37f851c82e70ff6c80c92926a4b)
REM AIRSS Version 0.9.1 bugfix July 2018 build 013d7b7c2542+ Fri, 06 Jul 2018 19:26:36 +0100
REM compiler GCC version 9.2.1 20190827 (Red Hat 9.2.1-1)
REM options -cpp -mtune=generic -march=x86-64 -g -O0 -fpre-include=/usr/include/finclude/math-vector-fortran.h
REM seed -1128580536 1314720341 -1143820636 342329574 -2087002107 882384774 659913496 -1598965578 -427000220 -123959631 274423142 -1603344571 -520086658 -1062311886 -1913988583 335397457 2064434853 -2112631356 774598496 -726145647 -461790969 993850472 911044440 -759823157 -912704517 -1942558952 554005712 -2026595675 1823642269 -1466430002 -1086335311 2079479387 30104850
REM
CELL 1.54180   50.00000   50.00000   50.00000   90.00000   90.00000   90.00000
LATT -1
SFAC C  
C      1  0.5707580000000  0.5043340000000  0.4734180000000 1.0
C      1  0.4376480000000  0.4971290000000  0.5213150000000 1.0
C      1  0.4495130000000  0.5068540000000  0.4968370000000 1.0
C      1  0.5074950000000  0.4824000000000  0.5373630000000 1.0
C      1  0.5786580000000  0.4832550000000  0.5184250000000 1.0
C      1  0.5332750000000  0.4777160000000  0.5416140000000 1.0
C      1  0.5834390000000  0.4935880000000  0.4942920000000 1.0
C      1  0.5592100000000  0.4775700000000  0.5357290000000 1.0
C      1  0.4324040000000  0.5452530000000  0.4738300000000 1.0
C      1  0.5466800000000  0.5110650000000  0.4642070000000 1.0
C      1  0.4783370000000  0.5023030000000  0.5000620000000 1.0
C      1  0.4277550000000  0.5020470000000  0.4544110000000 1.0
C      1  0.4571420000000  0.4873960000000  0.5383030000000 1.0
C      1  0.4833150000000  0.4899730000000  0.5263020000000 1.0
C      1  0.4975900000000  0.5087400000000  0.4811320000000 1.0
C      1  0.4364010000000  0.5181760000000  0.4747870000000 1.0
C      1  0.5203800000000  0.5122020000000  0.4679730000000 1.0
END
