TITL C-627107-135-58 0.0681950755733143 125000 -354.467378940145 0 0 59 (C1) n - 1
REM
REM in /home/nfs/bkarasulu/CARBON/AIRSS/Generating-Clusters/LCBOP/Only-C1/SD-CG/FIRE-CG
REM
REM
REM
REM
REM
REM ./C.cell (11c1c37f851c82e70ff6c80c92926a4b)
REM AIRSS Version 0.9.1 bugfix July 2018 build 013d7b7c2542+ Fri, 06 Jul 2018 19:26:36 +0100
REM compiler GCC version 9.2.1 20190827 (Red Hat 9.2.1-1)
REM options -cpp -mtune=generic -march=x86-64 -g -O0 -fpre-include=/usr/include/finclude/math-vector-fortran.h
REM seed -690046691 -424431836 -609056013 -704412067 2054513810 2024751993 507542654 -45712097 -2051938085 1926686965 -282222513 -1344971834 -1969929621 -397732218 -1445279557 -2007254537 -1168670055 1960797880 801629616 604831432 1973866532 -29696328 826625482 1175298869 1490454203 543471476 1881360992 1754702294 328837155 2093503511 -1495830132 -1356825347 -1649548094
REM
CELL 1.54180   50.00000   50.00000   50.00000   90.00000   90.00000   90.00000
LATT -1
SFAC C  
C      1  0.5017180000000  0.6116660000000  0.5134920000000 1.0
C      1  0.4292640000000  0.5450120000000  0.4883370000000 1.0
C      1  0.4446950000000  0.4339650000000  0.4986480000000 1.0
C      1  0.5202670000000  0.4608510000000  0.5820400000000 1.0
C      1  0.4436010000000  0.5508270000000  0.4426480000000 1.0
C      1  0.4394760000000  0.4328380000000  0.4724700000000 1.0
C      1  0.5453900000000  0.4213410000000  0.5592440000000 1.0
C      1  0.4773210000000  0.4396200000000  0.4441530000000 1.0
C      1  0.4848800000000  0.5653210000000  0.4646770000000 1.0
C      1  0.3989150000000  0.5021720000000  0.4949350000000 1.0
C      1  0.5050050000000  0.5231130000000  0.4608610000000 1.0
C      1  0.4627700000000  0.4412180000000  0.5169150000000 1.0
C      1  0.6455730000000  0.4342580000000  0.6047760000000 1.0
C      1  0.4084570000000  0.5191970000000  0.4536300000000 1.0
C      1  0.4335660000000  0.4564510000000  0.4303550000000 1.0
C      1  0.5595580000000  0.4141880000000  0.5379200000000 1.0
C      1  0.4494360000000  0.4408960000000  0.4473820000000 1.0
C      1  0.5127790000000  0.5579890000000  0.5609080000000 1.0
C      1  0.4721620000000  0.5518130000000  0.4409580000000 1.0
C      1  0.5490360000000  0.4918060000000  0.4585430000000 1.0
C      1  0.5527860000000  0.4889130000000  0.5263120000000 1.0
C      1  0.4884390000000  0.6069060000000  0.4909390000000 1.0
C      1  0.4280280000000  0.5287810000000  0.4341740000000 1.0
C      1  0.5762280000000  0.4501750000000  0.4739970000000 1.0
C      1  0.5662620000000  0.4719540000000  0.4624690000000 1.0
C      1  0.4210940000000  0.4812960000000  0.4291740000000 1.0
C      1  0.5776310000000  0.4307030000000  0.4920350000000 1.0
C      1  0.5924420000000  0.4699390000000  0.5583660000000 1.0
C      1  0.5003490000000  0.4431110000000  0.4571710000000 1.0
C      1  0.4950650000000  0.5425330000000  0.4805330000000 1.0
C      1  0.4096080000000  0.5257860000000  0.4822650000000 1.0
C      1  0.4456430000000  0.5890770000000  0.4730990000000 1.0
C      1  0.5073720000000  0.5103740000000  0.5707590000000 1.0
C      1  0.3950620000000  0.4817070000000  0.4765810000000 1.0
C      1  0.5713020000000  0.4176970000000  0.5143340000000 1.0
C      1  0.5122120000000  0.4861130000000  0.5803920000000 1.0
C      1  0.5600130000000  0.5648360000000  0.5007000000000 1.0
C      1  0.4739750000000  0.5894490000000  0.4748840000000 1.0
C      1  0.6282740000000  0.4463870000000  0.5895020000000 1.0
C      1  0.5316360000000  0.4379580000000  0.5747740000000 1.0
C      1  0.5582180000000  0.5404240000000  0.5096660000000 1.0
C      1  0.4805280000000  0.5361570000000  0.5043470000000 1.0
C      1  0.5312090000000  0.4728560000000  0.5186000000000 1.0
C      1  0.5276920000000  0.5073540000000  0.4613060000000 1.0
C      1  0.5546260000000  0.5153860000000  0.5175590000000 1.0
C      1  0.5728980000000  0.4786890000000  0.5427780000000 1.0
C      1  0.5125730000000  0.4495000000000  0.4799680000000 1.0
C      1  0.4521940000000  0.5387540000000  0.5037620000000 1.0
C      1  0.4891710000000  0.5287190000000  0.4372090000000 1.0
C      1  0.5111340000000  0.4574600000000  0.5068890000000 1.0
C      1  0.4875550000000  0.4504980000000  0.5205180000000 1.0
C      1  0.4030060000000  0.4897160000000  0.4500630000000 1.0
C      1  0.4337980000000  0.5640420000000  0.4669860000000 1.0
C      1  0.5044500000000  0.5322370000000  0.5536560000000 1.0
C      1  0.4932460000000  0.5291050000000  0.5281420000000 1.0
C      1  0.4330700000000  0.5052990000000  0.4180620000000 1.0
C      1  0.6106220000000  0.4586130000000  0.5739640000000 1.0
C      1  0.5153150000000  0.5836570000000  0.5543500000000 1.0
C      1  0.5114040000000  0.6032930000000  0.5368170000000 1.0
END
