TITL C-627107-135-1609 5980.95444077567 125000 -199.773375022903 0 0 35 (C1) n - 1
REM
REM in /home/nfs/bkarasulu/CARBON/AIRSS/Generating-Clusters/LCBOP/Only-C1/SD-CG/FIRE-CG
REM
REM
REM
REM
REM
REM ./C.cell (11c1c37f851c82e70ff6c80c92926a4b)
REM AIRSS Version 0.9.1 bugfix July 2018 build 013d7b7c2542+ Fri, 06 Jul 2018 19:26:36 +0100
REM compiler GCC version 9.2.1 20190827 (Red Hat 9.2.1-1)
REM options -cpp -mtune=generic -march=x86-64 -g -O0 -fpre-include=/usr/include/finclude/math-vector-fortran.h
REM seed 301729181 -1654087026 -196061710 -1575315930 2081561686 1816342447 -841811402 -863734089 -611116210 238647115 1783258252 -530206987 -785689933 -2010998146 1951125038 -1441914310 768561890 -439707112 48851695 1094972343 628021474 -1444966161 -1016084063 1709080820 1539345841 -1709002321 -823049630 -1492563500 -1622129023 2036087909 -503573968 1459743268 -1146566188
REM
CELL 1.54180   50.00000   50.00000   50.00000   90.00000   90.00000   90.00000
LATT -1
SFAC C  
C      1  0.4530060000000  0.4936170000000  0.3762150000000 1.0
C      1  0.5259480000000  0.4728630000000  0.5972520000000 1.0
C      1  0.4947810000000  0.4110740000000  0.5638090000000 1.0
C      1  0.4620180000000  0.4881090000000  0.4649900000000 1.0
C      1  0.4916710000000  0.4289760000000  0.5445090000000 1.0
C      1  0.5175220000000  0.5337410000000  0.4503240000000 1.0
C      1  0.5487930000000  0.3841360000000  0.6495580000000 1.0
C      1  0.5034890000000  0.5716640000000  0.5207970000000 1.0
C      1  0.4987180000000  0.5082680000000  0.3759960000000 1.0
C      1  0.4835160000000  0.4637130000000  0.5053470000000 1.0
C      1  0.4935210000000  0.5112600000000  0.4884620000000 1.0
C      1  0.5200710000000  0.6475800000000  0.5062200000000 1.0
C      1  0.4972910000000  0.5447710000000  0.5249440000000 1.0
C      1  0.5146260000000  0.6225430000000  0.5110320000000 1.0
C      1  0.4876640000000  0.4460000000000  0.5246000000000 1.0
C      1  0.4785950000000  0.5020680000000  0.4452470000000 1.0
C      1  0.4971400000000  0.3927570000000  0.5822080000000 1.0
C      1  0.5383050000000  0.4292950000000  0.6247680000000 1.0
C      1  0.4370370000000  0.4995420000000  0.4720410000000 1.0
C      1  0.4347190000000  0.5202020000000  0.4895520000000 1.0
C      1  0.5090960000000  0.5970910000000  0.5159450000000 1.0
C      1  0.5437560000000  0.5218350000000  0.3515870000000 1.0
C      1  0.4819780000000  0.5306510000000  0.5059390000000 1.0
C      1  0.5660220000000  0.5282360000000  0.3396330000000 1.0
C      1  0.4537580000000  0.5333110000000  0.5036500000000 1.0
C      1  0.4801300000000  0.4849870000000  0.4881540000000 1.0
C      1  0.5437240000000  0.4066540000000  0.6374410000000 1.0
C      1  0.5322210000000  0.4512950000000  0.6113100000000 1.0
C      1  0.5063610000000  0.5314790000000  0.5477800000000 1.0
C      1  0.5136130000000  0.5141420000000  0.5664500000000 1.0
C      1  0.4758790000000  0.5007610000000  0.4177860000000 1.0
C      1  0.4756040000000  0.5007990000000  0.3898430000000 1.0
C      1  0.5199020000000  0.4941040000000  0.5826110000000 1.0
C      1  0.4983670000000  0.5172910000000  0.4602600000000 1.0
C      1  0.5211590000000  0.5151850000000  0.3637400000000 1.0
END
