TITL C-627112-676-742 5.71999952643839e-06 125000 -102.758019701882 0 0 18 (C1) n - 1
REM
REM in /home/nfs/bkarasulu/CARBON/AIRSS/Generating-Clusters/LCBOP/Only-C1/SD-CG/FIRE-CG
REM
REM
REM
REM
REM
REM ./C.cell (11c1c37f851c82e70ff6c80c92926a4b)
REM AIRSS Version 0.9.1 bugfix July 2018 build 013d7b7c2542+ Fri, 06 Jul 2018 19:26:36 +0100
REM compiler GCC version 9.2.1 20190827 (Red Hat 9.2.1-1)
REM options -cpp -mtune=generic -march=x86-64 -g -O0 -fpre-include=/usr/include/finclude/math-vector-fortran.h
REM seed 1717583430 2123369222 -831490087 -924693263 560114123 415974830 -80387574 1518124925 -339212416 580446409 992738941 -767326522 1033875038 1205513584 1570532838 -69968805 -1361778063 1159753452 930735577 1259603164 -1128936810 1202804899 -2120610976 -2055841999 -355203772 1749308349 -1597953093 -1611089586 -776081208 -108396857 935025873 -122031532 688063135
REM
CELL 1.54180   50.00000   50.00000   50.00000   90.00000   90.00000   90.00000
LATT -1
SFAC C  
C      1  0.5212220000000  0.4537330000000  0.4044280000000 1.0
C      1  0.4713520000000  0.4696180000000  0.5447700000000 1.0
C      1  0.4901560000000  0.4681840000000  0.4965360000000 1.0
C      1  0.4947590000000  0.5321630000000  0.5571420000000 1.0
C      1  0.5045500000000  0.4833300000000  0.4778110000000 1.0
C      1  0.5265970000000  0.4441910000000  0.3807700000000 1.0
C      1  0.5316890000000  0.5273630000000  0.5266870000000 1.0
C      1  0.5157580000000  0.4634350000000  0.4284820000000 1.0
C      1  0.4913520000000  0.5465600000000  0.5088780000000 1.0
C      1  0.4797620000000  0.5614520000000  0.4892240000000 1.0
C      1  0.4715990000000  0.4876460000000  0.5644440000000 1.0
C      1  0.4823850000000  0.5467400000000  0.5359440000000 1.0
C      1  0.5226700000000  0.5286390000000  0.5523830000000 1.0
C      1  0.5102970000000  0.4731300000000  0.4525200000000 1.0
C      1  0.5140510000000  0.5293400000000  0.5043570000000 1.0
C      1  0.4803280000000  0.5122190000000  0.5704660000000 1.0
C      1  0.5129950000000  0.5090300000000  0.4852420000000 1.0
C      1  0.4784780000000  0.4632260000000  0.5199150000000 1.0
END
