TITL C-627109-622-709 3.41671989594304e-06 125000 -592.50173207058 0 0 97 (C1) n - 1
REM
REM in /home/nfs/bkarasulu/CARBON/AIRSS/Generating-Clusters/LCBOP/Only-C1/SD-CG/FIRE-CG
REM
REM
REM
REM
REM
REM ./C.cell (11c1c37f851c82e70ff6c80c92926a4b)
REM AIRSS Version 0.9.1 bugfix July 2018 build 013d7b7c2542+ Fri, 06 Jul 2018 19:26:36 +0100
REM compiler GCC version 9.2.1 20190827 (Red Hat 9.2.1-1)
REM options -cpp -mtune=generic -march=x86-64 -g -O0 -fpre-include=/usr/include/finclude/math-vector-fortran.h
REM seed -1045371298 345499573 -2008193193 -503612554 759375159 -1152584576 1057664397 1948905831 -1138596598 926056746 675748701 -1399409624 -1821635448 119987504 604294857 -1278276653 1675635241 -570010361 -440508686 -1343599481 1309684557 1822614553 -1313677836 260389363 802757426 -247304263 364409242 469107117 -1346150276 34800092 -739904218 246048169 -86797907
REM
CELL 1.54180   50.00000   50.00000   50.00000   90.00000   90.00000   90.00000
LATT -1
SFAC C  
C      1  0.4683980000000  0.4388700000000  0.4380180000000 1.0
C      1  0.5837820000000  0.5003390000000  0.5281930000000 1.0
C      1  0.4870490000000  0.5607300000000  0.5676320000000 1.0
C      1  0.5417600000000  0.5389120000000  0.4455360000000 1.0
C      1  0.5258320000000  0.4705860000000  0.4428620000000 1.0
C      1  0.4814920000000  0.5074050000000  0.5225170000000 1.0
C      1  0.5603790000000  0.4734560000000  0.4764210000000 1.0
C      1  0.5298260000000  0.4820710000000  0.5862960000000 1.0
C      1  0.4470190000000  0.5773080000000  0.5156590000000 1.0
C      1  0.4584230000000  0.4653130000000  0.4396670000000 1.0
C      1  0.6371800000000  0.6181920000000  0.5204140000000 1.0
C      1  0.5509400000000  0.4690190000000  0.5046690000000 1.0
C      1  0.5194290000000  0.6119490000000  0.5309460000000 1.0
C      1  0.4307090000000  0.4709200000000  0.4402370000000 1.0
C      1  0.5381790000000  0.5585260000000  0.5633810000000 1.0
C      1  0.4975180000000  0.4622420000000  0.5545990000000 1.0
C      1  0.5018040000000  0.6003530000000  0.4560660000000 1.0
C      1  0.4346170000000  0.5233430000000  0.4178030000000 1.0
C      1  0.4665600000000  0.4887640000000  0.5335390000000 1.0
C      1  0.4788040000000  0.5067670000000  0.3957420000000 1.0
C      1  0.4279040000000  0.5214970000000  0.5423230000000 1.0
C      1  0.4205230000000  0.4944530000000  0.4826290000000 1.0
C      1  0.4856590000000  0.5363250000000  0.4664850000000 1.0
C      1  0.4497540000000  0.4173590000000  0.4369880000000 1.0
C      1  0.5005030000000  0.4920610000000  0.4011090000000 1.0
C      1  0.4748850000000  0.3920870000000  0.4686780000000 1.0
C      1  0.5118040000000  0.4518090000000  0.4591630000000 1.0
C      1  0.4870630000000  0.5316880000000  0.5141190000000 1.0
C      1  0.4533690000000  0.4565190000000  0.5032960000000 1.0
C      1  0.4669360000000  0.5801570000000  0.5621050000000 1.0
C      1  0.5231570000000  0.3915580000000  0.4619940000000 1.0
C      1  0.4225870000000  0.5385290000000  0.4646860000000 1.0
C      1  0.5166310000000  0.4781310000000  0.4172970000000 1.0
C      1  0.5060190000000  0.4845880000000  0.5716950000000 1.0
C      1  0.4954120000000  0.5559900000000  0.4485420000000 1.0
C      1  0.4475060000000  0.4651880000000  0.5709180000000 1.0
C      1  0.4556890000000  0.5891130000000  0.5394660000000 1.0
C      1  0.6154050000000  0.6039490000000  0.5220250000000 1.0
C      1  0.5879620000000  0.4656090000000  0.4756900000000 1.0
C      1  0.4553620000000  0.5182000000000  0.4016930000000 1.0
C      1  0.5698510000000  0.5745380000000  0.5248320000000 1.0
C      1  0.5243090000000  0.5604150000000  0.4496950000000 1.0
C      1  0.5776500000000  0.4715900000000  0.5223780000000 1.0
C      1  0.5462280000000  0.4860010000000  0.4554930000000 1.0
C      1  0.4203550000000  0.5226810000000  0.4903960000000 1.0
C      1  0.5437970000000  0.3900390000000  0.4443630000000 1.0
C      1  0.4802240000000  0.5815640000000  0.4508190000000 1.0
C      1  0.4241360000000  0.4788960000000  0.5692840000000 1.0
C      1  0.4220850000000  0.5194720000000  0.4425780000000 1.0
C      1  0.4984110000000  0.4044700000000  0.4565650000000 1.0
C      1  0.5981560000000  0.4626890000000  0.5010520000000 1.0
C      1  0.4817410000000  0.5099140000000  0.4589940000000 1.0
C      1  0.4783950000000  0.4599540000000  0.4914120000000 1.0
C      1  0.4773770000000  0.5335030000000  0.5676260000000 1.0
C      1  0.5288270000000  0.6100680000000  0.5059500000000 1.0
C      1  0.5270180000000  0.5867550000000  0.4628320000000 1.0
C      1  0.5060370000000  0.4574890000000  0.4869520000000 1.0
C      1  0.5132370000000  0.5713740000000  0.5638360000000 1.0
C      1  0.5788670000000  0.4557780000000  0.5475080000000 1.0
C      1  0.5231310000000  0.4211460000000  0.5406610000000 1.0
C      1  0.5150910000000  0.4484030000000  0.5355840000000 1.0
C      1  0.4312840000000  0.4725450000000  0.4964310000000 1.0
C      1  0.4743560000000  0.4870980000000  0.4476170000000 1.0
C      1  0.5561730000000  0.4785090000000  0.5868880000000 1.0
C      1  0.4327020000000  0.5646290000000  0.4595090000000 1.0
C      1  0.4800020000000  0.5471170000000  0.4925850000000 1.0
C      1  0.5489920000000  0.5132740000000  0.4486710000000 1.0
C      1  0.4565110000000  0.3943460000000  0.5147490000000 1.0
C      1  0.4506770000000  0.5305490000000  0.5573300000000 1.0
C      1  0.5494050000000  0.4162670000000  0.5490400000000 1.0
C      1  0.5730770000000  0.4284510000000  0.5476160000000 1.0
C      1  0.5091460000000  0.3992040000000  0.5305100000000 1.0
C      1  0.5388440000000  0.5901980000000  0.4885300000000 1.0
C      1  0.4149940000000  0.4993710000000  0.5542330000000 1.0
C      1  0.4555940000000  0.4434040000000  0.5286240000000 1.0
C      1  0.4766130000000  0.3867850000000  0.4966460000000 1.0
C      1  0.4508950000000  0.4159220000000  0.5296460000000 1.0
C      1  0.5369780000000  0.5196820000000  0.5042700000000 1.0
C      1  0.4515610000000  0.3956860000000  0.4532320000000 1.0
C      1  0.4949130000000  0.4315780000000  0.4477490000000 1.0
C      1  0.4673340000000  0.4623520000000  0.5489750000000 1.0
C      1  0.4565280000000  0.5783830000000  0.4668790000000 1.0
C      1  0.5603730000000  0.5633080000000  0.5489800000000 1.0
C      1  0.4925900000000  0.5099740000000  0.5731040000000 1.0
C      1  0.4638570000000  0.5707500000000  0.4937810000000 1.0
C      1  0.4193530000000  0.4928680000000  0.4535670000000 1.0
C      1  0.5141070000000  0.5977630000000  0.5529800000000 1.0
C      1  0.5469470000000  0.5428100000000  0.4978160000000 1.0
C      1  0.5932680000000  0.5894850000000  0.5236230000000 1.0
C      1  0.5241960000000  0.4593690000000  0.5096610000000 1.0
C      1  0.5237000000000  0.3804040000000  0.4880230000000 1.0
C      1  0.4213880000000  0.5338010000000  0.5168790000000 1.0
C      1  0.5980310000000  0.5213670000000  0.5339860000000 1.0
C      1  0.5763590000000  0.4694730000000  0.5719580000000 1.0
C      1  0.4232960000000  0.5620830000000  0.5172610000000 1.0
C      1  0.5033130000000  0.3850200000000  0.5071580000000 1.0
C      1  0.5538890000000  0.5695650000000  0.5015880000000 1.0
END
