TITL C-627111-6168-1795 -8.00761216525545e-07 125000 -348.849391946133 0 0 59 (C1) n - 1
REM
REM in /home/nfs/bkarasulu/CARBON/AIRSS/Generating-Clusters/LCBOP/Only-C1/SD-CG/FIRE-CG
REM
REM
REM
REM
REM
REM ./C.cell (11c1c37f851c82e70ff6c80c92926a4b)
REM AIRSS Version 0.9.1 bugfix July 2018 build 013d7b7c2542+ Fri, 06 Jul 2018 19:26:36 +0100
REM compiler GCC version 9.2.1 20190827 (Red Hat 9.2.1-1)
REM options -cpp -mtune=generic -march=x86-64 -g -O0 -fpre-include=/usr/include/finclude/math-vector-fortran.h
REM seed -1273001014 -417504308 141498553 809699678 -1772412538 -1955431950 1535975474 1893515285 1810278091 -1180898892 199512604 1670440068 1147827138 -1782851898 2060468687 639466084 -588748212 -714409043 -1022947517 23545757 -1807519103 -1110782288 1543149569 323356704 -1883207621 -1305823394 73343710 60616175 -458424450 1271813582 180452574 1787276299 -1835846483
REM
CELL 1.54180   50.00000   50.00000   50.00000   90.00000   90.00000   90.00000
LATT -1
SFAC C  
C      1  0.5172320000000  0.5278970000000  0.5524150000000 1.0
C      1  0.4888800000000  0.4966990000000  0.4166370000000 1.0
C      1  0.5494730000000  0.4730720000000  0.4616280000000 1.0
C      1  0.4852890000000  0.4881050000000  0.4655460000000 1.0
C      1  0.4533050000000  0.3944820000000  0.5467430000000 1.0
C      1  0.5348430000000  0.4846450000000  0.5651180000000 1.0
C      1  0.4981240000000  0.4755580000000  0.4907960000000 1.0
C      1  0.6083390000000  0.5557870000000  0.4776790000000 1.0
C      1  0.4808040000000  0.4837980000000  0.5156550000000 1.0
C      1  0.5103730000000  0.4423300000000  0.5563230000000 1.0
C      1  0.5140090000000  0.4499360000000  0.4895700000000 1.0
C      1  0.5148610000000  0.5478110000000  0.5306400000000 1.0
C      1  0.5471580000000  0.5234060000000  0.4544670000000 1.0
C      1  0.4835300000000  0.4792640000000  0.4387280000000 1.0
C      1  0.5023030000000  0.4269110000000  0.5005700000000 1.0
C      1  0.5149460000000  0.4693960000000  0.5521790000000 1.0
C      1  0.5015220000000  0.5350780000000  0.5083460000000 1.0
C      1  0.5593770000000  0.4632140000000  0.5069190000000 1.0
C      1  0.5829490000000  0.5511740000000  0.4740490000000 1.0
C      1  0.4833880000000  0.5173610000000  0.4685160000000 1.0
C      1  0.4740200000000  0.4145590000000  0.5435390000000 1.0
C      1  0.4906400000000  0.5117230000000  0.5595910000000 1.0
C      1  0.4750790000000  0.4728580000000  0.5920480000000 1.0
C      1  0.4959000000000  0.5629630000000  0.4554590000000 1.0
C      1  0.5219180000000  0.4943480000000  0.4942890000000 1.0
C      1  0.4492530000000  0.5541130000000  0.4368070000000 1.0
C      1  0.4501550000000  0.3802280000000  0.5231840000000 1.0
C      1  0.5611750000000  0.4979530000000  0.4533510000000 1.0
C      1  0.4847270000000  0.4322120000000  0.5624710000000 1.0
C      1  0.5410830000000  0.5103410000000  0.5540650000000 1.0
C      1  0.4678370000000  0.3899650000000  0.5041440000000 1.0
C      1  0.4939280000000  0.4860540000000  0.5411410000000 1.0
C      1  0.4837010000000  0.4119410000000  0.5150770000000 1.0
C      1  0.5867180000000  0.4974970000000  0.4431980000000 1.0
C      1  0.5151140000000  0.5082670000000  0.4175390000000 1.0
C      1  0.4678410000000  0.5136860000000  0.4081100000000 1.0
C      1  0.4630120000000  0.5061310000000  0.5096780000000 1.0
C      1  0.4279590000000  0.5495590000000  0.4546350000000 1.0
C      1  0.4381180000000  0.5156340000000  0.5191480000000 1.0
C      1  0.5341970000000  0.5645950000000  0.5158660000000 1.0
C      1  0.4170280000000  0.5314660000000  0.5604810000000 1.0
C      1  0.4540910000000  0.5353980000000  0.4160620000000 1.0
C      1  0.5234310000000  0.5201590000000  0.4978500000000 1.0
C      1  0.4391460000000  0.5252530000000  0.5458730000000 1.0
C      1  0.5553860000000  0.5461340000000  0.4716270000000 1.0
C      1  0.5225830000000  0.5242950000000  0.4397960000000 1.0
C      1  0.4178050000000  0.5383300000000  0.4766390000000 1.0
C      1  0.4855650000000  0.4972850000000  0.5865410000000 1.0
C      1  0.5619660000000  0.5071370000000  0.5350050000000 1.0
C      1  0.5373570000000  0.5643880000000  0.4863840000000 1.0
C      1  0.4780410000000  0.5258300000000  0.4953980000000 1.0
C      1  0.4716770000000  0.4477620000000  0.5823630000000 1.0
C      1  0.5424760000000  0.4569900000000  0.4845800000000 1.0
C      1  0.5680760000000  0.4849820000000  0.5204820000000 1.0
C      1  0.4200780000000  0.5252450000000  0.4998530000000 1.0
C      1  0.4999570000000  0.5348700000000  0.4533120000000 1.0
C      1  0.4653820000000  0.5273810000000  0.5560300000000 1.0
C      1  0.4708880000000  0.5708460000000  0.4450820000000 1.0
C      1  0.5159900000000  0.5756970000000  0.4707820000000 1.0
END
