TITL C-627113-6568-1966 -9053.94557533402 125000 -882.854685883907 0 0 145 (C1) n - 1
REM
REM in /home/nfs/bkarasulu/CARBON/AIRSS/Generating-Clusters/LCBOP/Only-C1/SD-CG/FIRE-CG
REM
REM
REM
REM
REM
REM ./C.cell (11c1c37f851c82e70ff6c80c92926a4b)
REM AIRSS Version 0.9.1 bugfix July 2018 build 013d7b7c2542+ Fri, 06 Jul 2018 19:26:36 +0100
REM compiler GCC version 9.2.1 20190827 (Red Hat 9.2.1-1)
REM options -cpp -mtune=generic -march=x86-64 -g -O0 -fpre-include=/usr/include/finclude/math-vector-fortran.h
REM seed -418628337 393789651 503886713 -1829328190 -307261793 593096325 148889263 -1879312135 851353432 111854417 46739410 -1958865066 116450463 -20423948 316260676 -870178809 479893197 490543639 -808449635 192217277 537060291 -1344521537 1889803805 -1943675219 -139614560 913729969 1934633473 -823179537 -669111781 1814156507 1399833685 1345137257 -161235328
REM
CELL 1.54180   50.00000   50.00000   50.00000   90.00000   90.00000   90.00000
LATT -1
SFAC C  
C      1  0.5204880000000  0.3749500000000  0.4493040000000 1.0
C      1  0.3612050000000  0.5550940000000  0.5476940000000 1.0
C      1  0.4287400000000  0.4172970000000  0.4764520000000 1.0
C      1  0.6033150000000  0.5053990000000  0.5341130000000 1.0
C      1  0.3891230000000  0.5241740000000  0.4278500000000 1.0
C      1  0.4180680000000  0.4931600000000  0.5824000000000 1.0
C      1  0.5210500000000  0.5510680000000  0.5776960000000 1.0
C      1  0.5973800000000  0.4535790000000  0.4512810000000 1.0
C      1  0.5909420000000  0.5171290000000  0.6229780000000 1.0
C      1  0.4258120000000  0.4580060000000  0.5283350000000 1.0
C      1  0.4350260000000  0.5443060000000  0.4984220000000 1.0
C      1  0.4828310000000  0.4314080000000  0.5280540000000 1.0
C      1  0.4752840000000  0.5272820000000  0.4190850000000 1.0
C      1  0.3584100000000  0.4983660000000  0.4985890000000 1.0
C      1  0.5307810000000  0.3907470000000  0.5471530000000 1.0
C      1  0.5697400000000  0.5577850000000  0.5647890000000 1.0
C      1  0.4931780000000  0.6095140000000  0.5572410000000 1.0
C      1  0.5176370000000  0.5571770000000  0.3473570000000 1.0
C      1  0.6104490000000  0.4682960000000  0.4717170000000 1.0
C      1  0.6216130000000  0.4942900000000  0.4648280000000 1.0
C      1  0.4224230000000  0.4358550000000  0.4548640000000 1.0
C      1  0.5834250000000  0.5586890000000  0.5398180000000 1.0
C      1  0.4783640000000  0.4641260000000  0.5715460000000 1.0
C      1  0.5195870000000  0.5402610000000  0.6040230000000 1.0
C      1  0.4395250000000  0.4427780000000  0.5478220000000 1.0
C      1  0.5074120000000  0.5093170000000  0.5342480000000 1.0
C      1  0.3711850000000  0.5308420000000  0.5382280000000 1.0
C      1  0.3941310000000  0.4624690000000  0.4860470000000 1.0
C      1  0.4172490000000  0.4857800000000  0.4475620000000 1.0
C      1  0.5165830000000  0.4544940000000  0.5570740000000 1.0
C      1  0.4362850000000  0.5927600000000  0.4902630000000 1.0
C      1  0.4494640000000  0.5238340000000  0.4302300000000 1.0
C      1  0.4463530000000  0.5721350000000  0.4305790000000 1.0
C      1  0.5104620000000  0.5579760000000  0.4346720000000 1.0
C      1  0.4440230000000  0.4987220000000  0.4436180000000 1.0
C      1  0.5443230000000  0.4818260000000  0.4026120000000 1.0
C      1  0.3940630000000  0.5194180000000  0.5495840000000 1.0
C      1  0.4859000000000  0.5176730000000  0.5529570000000 1.0
C      1  0.4167430000000  0.5049020000000  0.5570920000000 1.0
C      1  0.4519820000000  0.4243040000000  0.4917900000000 1.0
C      1  0.5288750000000  0.3903870000000  0.4708330000000 1.0
C      1  0.5089910000000  0.5217690000000  0.6208390000000 1.0
C      1  0.5499990000000  0.4096400000000  0.4685740000000 1.0
C      1  0.5828070000000  0.5126570000000  0.5774700000000 1.0
C      1  0.5104350000000  0.5910550000000  0.2762830000000 1.0
C      1  0.5847180000000  0.5424800000000  0.6133840000000 1.0
C      1  0.6066060000000  0.4287090000000  0.4444600000000 1.0
C      1  0.4055050000000  0.5452530000000  0.4256060000000 1.0
C      1  0.4887410000000  0.4731080000000  0.6194230000000 1.0
C      1  0.3452000000000  0.6022510000000  0.5645140000000 1.0
C      1  0.5542470000000  0.4573900000000  0.4843750000000 1.0
C      1  0.5234050000000  0.4326190000000  0.5732280000000 1.0
C      1  0.5168280000000  0.3882400000000  0.4970420000000 1.0
C      1  0.4980980000000  0.5452510000000  0.5612810000000 1.0
C      1  0.5095810000000  0.4430550000000  0.4859130000000 1.0
C      1  0.4689810000000  0.5985190000000  0.5624120000000 1.0
C      1  0.5114400000000  0.3610700000000  0.4286390000000 1.0
C      1  0.4705500000000  0.4119380000000  0.5097460000000 1.0
C      1  0.4969960000000  0.5830780000000  0.4397280000000 1.0
C      1  0.5073240000000  0.5463740000000  0.4999770000000 1.0
C      1  0.3952720000000  0.4994570000000  0.4360020000000 1.0
C      1  0.4389450000000  0.5028540000000  0.5392820000000 1.0
C      1  0.5376000000000  0.5857930000000  0.5410940000000 1.0
C      1  0.5160910000000  0.4998270000000  0.4565250000000 1.0
C      1  0.5039450000000  0.4868270000000  0.5186870000000 1.0
C      1  0.5757380000000  0.5402170000000  0.4930720000000 1.0
C      1  0.5131320000000  0.5802140000000  0.2998390000000 1.0
C      1  0.5286680000000  0.4564220000000  0.4700830000000 1.0
C      1  0.5185520000000  0.5444680000000  0.3705780000000 1.0
C      1  0.5467810000000  0.5686720000000  0.4660190000000 1.0
C      1  0.5497800000000  0.4730380000000  0.5323130000000 1.0
C      1  0.5251340000000  0.6080770000000  0.4763710000000 1.0
C      1  0.5182620000000  0.6059490000000  0.5475670000000 1.0
C      1  0.5133230000000  0.4947340000000  0.5825260000000 1.0
C      1  0.4331400000000  0.5474480000000  0.4292590000000 1.0
C      1  0.4870240000000  0.4536080000000  0.5983610000000 1.0
C      1  0.5942840000000  0.4545310000000  0.5205840000000 1.0
C      1  0.5715500000000  0.5606040000000  0.5141110000000 1.0
C      1  0.5753520000000  0.4647580000000  0.4371800000000 1.0
C      1  0.5599790000000  0.4268810000000  0.5399400000000 1.0
C      1  0.5326000000000  0.5068210000000  0.3977590000000 1.0
C      1  0.4464330000000  0.4414300000000  0.4400570000000 1.0
C      1  0.5089580000000  0.6038150000000  0.4549590000000 1.0
C      1  0.4612960000000  0.6013620000000  0.4946630000000 1.0
C      1  0.5504000000000  0.4651970000000  0.3817350000000 1.0
C      1  0.5597870000000  0.4875870000000  0.4878430000000 1.0
C      1  0.4887770000000  0.3914980000000  0.5014410000000 1.0
C      1  0.5286640000000  0.4751830000000  0.4488920000000 1.0
C      1  0.4862840000000  0.4879160000000  0.4966930000000 1.0
C      1  0.4484520000000  0.5513090000000  0.5537260000000 1.0
C      1  0.5412720000000  0.4150430000000  0.5597500000000 1.0
C      1  0.5065670000000  0.4324150000000  0.5961490000000 1.0
C      1  0.4587040000000  0.5332580000000  0.5091040000000 1.0
C      1  0.4697130000000  0.5846570000000  0.4332770000000 1.0
C      1  0.4526180000000  0.5770140000000  0.5609740000000 1.0
C      1  0.5423780000000  0.5661780000000  0.5633400000000 1.0
C      1  0.4988560000000  0.5700290000000  0.5140560000000 1.0
C      1  0.5898560000000  0.4989410000000  0.6019630000000 1.0
C      1  0.5501120000000  0.5807380000000  0.5137360000000 1.0
C      1  0.4615500000000  0.4743860000000  0.5014320000000 1.0
C      1  0.4679090000000  0.4847430000000  0.4521470000000 1.0
C      1  0.6081990000000  0.4693700000000  0.5012780000000 1.0
C      1  0.5319320000000  0.5494310000000  0.4513750000000 1.0
C      1  0.5005190000000  0.5390890000000  0.4155530000000 1.0
C      1  0.5063270000000  0.4420160000000  0.5143200000000 1.0
C      1  0.3530060000000  0.5787950000000  0.5562360000000 1.0
C      1  0.5174150000000  0.5301180000000  0.3944930000000 1.0
C      1  0.4932420000000  0.3341420000000  0.3873110000000 1.0
C      1  0.3707570000000  0.4778250000000  0.4870680000000 1.0
C      1  0.4944780000000  0.5644490000000  0.5410230000000 1.0
C      1  0.5156770000000  0.5689840000000  0.3237140000000 1.0
C      1  0.5203740000000  0.4640980000000  0.5292740000000 1.0
C      1  0.5790490000000  0.5411190000000  0.5850700000000 1.0
C      1  0.5022650000000  0.3474570000000  0.4078290000000 1.0
C      1  0.5194820000000  0.3697360000000  0.5601370000000 1.0
C      1  0.5700670000000  0.4527940000000  0.5352960000000 1.0
C      1  0.5587470000000  0.4277150000000  0.4894990000000 1.0
C      1  0.5349570000000  0.3930800000000  0.5185920000000 1.0
C      1  0.5343490000000  0.5222810000000  0.4605430000000 1.0
C      1  0.4825140000000  0.5338110000000  0.4939130000000 1.0
C      1  0.5519920000000  0.5203120000000  0.4861190000000 1.0
C      1  0.5548470000000  0.5006970000000  0.5387580000000 1.0
C      1  0.6016680000000  0.5354580000000  0.4834920000000 1.0
C      1  0.6139480000000  0.4967980000000  0.5097920000000 1.0
C      1  0.4871160000000  0.4927140000000  0.5710290000000 1.0
C      1  0.4973460000000  0.4979040000000  0.6265320000000 1.0
C      1  0.4195890000000  0.4824420000000  0.6061040000000 1.0
C      1  0.4045940000000  0.4530770000000  0.5107280000000 1.0
C      1  0.6181860000000  0.5131910000000  0.4861580000000 1.0
C      1  0.5803320000000  0.5060820000000  0.5503790000000 1.0
C      1  0.4585810000000  0.5256560000000  0.5393860000000 1.0
C      1  0.4682130000000  0.4448520000000  0.5507460000000 1.0
C      1  0.5337960000000  0.5188660000000  0.5314300000000 1.0
C      1  0.4096340000000  0.4610790000000  0.4619570000000 1.0
C      1  0.4598200000000  0.4512490000000  0.4845890000000 1.0
C      1  0.5422770000000  0.5880920000000  0.4867650000000 1.0
C      1  0.4848080000000  0.5912550000000  0.5023500000000 1.0
C      1  0.3587890000000  0.5175570000000  0.5169580000000 1.0
C      1  0.4252450000000  0.5683180000000  0.4916460000000 1.0
C      1  0.5495160000000  0.4736280000000  0.4293470000000 1.0
C      1  0.4638000000000  0.4569220000000  0.4562540000000 1.0
C      1  0.5552560000000  0.4139310000000  0.5146680000000 1.0
C      1  0.4419340000000  0.4808400000000  0.5212240000000 1.0
C      1  0.5317630000000  0.5316610000000  0.5059930000000 1.0
C      1  0.4899720000000  0.4951800000000  0.4682860000000 1.0
END
