TITL C-627108-131-841 0.000429868163742581 125000 -1120.04946726652 0 0 178 (C1) n - 1
REM
REM in /home/nfs/bkarasulu/CARBON/AIRSS/Generating-Clusters/LCBOP/Only-C1/SD-CG/FIRE-CG
REM
REM
REM
REM
REM
REM ./C.cell (11c1c37f851c82e70ff6c80c92926a4b)
REM AIRSS Version 0.9.1 bugfix July 2018 build 013d7b7c2542+ Fri, 06 Jul 2018 19:26:36 +0100
REM compiler GCC version 9.2.1 20190827 (Red Hat 9.2.1-1)
REM options -cpp -mtune=generic -march=x86-64 -g -O0 -fpre-include=/usr/include/finclude/math-vector-fortran.h
REM seed -907608633 24350439 513549687 1807719165 -1647790697 1930641066 -10673066 314159028 1625501451 -864729184 -2082898264 1748788652 -861973796 -1758115272 1505411598 -1236704189 662534641 856670015 1476450017 282888854 1904127858 -1995078150 -787674483 -1834940714 86415168 -1580930526 1631723470 -1887923284 -1502637791 -965390199 1737963670 -1870723978 293786386
REM
CELL 1.54180   50.00000   50.00000   50.00000   90.00000   90.00000   90.00000
LATT -1
SFAC C  
C      1  0.5201260000000  0.4968760000000  0.3774470000000 1.0
C      1  0.4551950000000  0.5361370000000  0.6199010000000 1.0
C      1  0.5736830000000  0.4485340000000  0.4468700000000 1.0
C      1  0.4415200000000  0.3946090000000  0.5296540000000 1.0
C      1  0.5478810000000  0.4401020000000  0.4062290000000 1.0
C      1  0.4905940000000  0.5206840000000  0.4403270000000 1.0
C      1  0.4494440000000  0.6318090000000  0.4917010000000 1.0
C      1  0.5312980000000  0.4951220000000  0.5454310000000 1.0
C      1  0.3804640000000  0.4994390000000  0.5115110000000 1.0
C      1  0.5291420000000  0.5200270000000  0.5576400000000 1.0
C      1  0.5671930000000  0.4208720000000  0.4552120000000 1.0
C      1  0.4525940000000  0.6227040000000  0.5566970000000 1.0
C      1  0.4941230000000  0.6092770000000  0.5801720000000 1.0
C      1  0.5638700000000  0.3918390000000  0.4510790000000 1.0
C      1  0.5117620000000  0.4589880000000  0.4761280000000 1.0
C      1  0.4555870000000  0.4877910000000  0.4768950000000 1.0
C      1  0.3966120000000  0.5047890000000  0.5643900000000 1.0
C      1  0.3911880000000  0.4893410000000  0.4860850000000 1.0
C      1  0.5658730000000  0.4575960000000  0.4198480000000 1.0
C      1  0.5020840000000  0.4574160000000  0.4171740000000 1.0
C      1  0.4273540000000  0.4717500000000  0.5095320000000 1.0
C      1  0.4193720000000  0.5306120000000  0.4253910000000 1.0
C      1  0.4772190000000  0.5619230000000  0.3961660000000 1.0
C      1  0.5003320000000  0.3660190000000  0.4885010000000 1.0
C      1  0.4104710000000  0.4388550000000  0.4793780000000 1.0
C      1  0.4621660000000  0.5169750000000  0.4409180000000 1.0
C      1  0.5140150000000  0.6053300000000  0.4352270000000 1.0
C      1  0.5396480000000  0.4711760000000  0.6088350000000 1.0
C      1  0.5027580000000  0.5283270000000  0.5496400000000 1.0
C      1  0.5290660000000  0.5603300000000  0.5257170000000 1.0
C      1  0.4683640000000  0.5635730000000  0.4411500000000 1.0
C      1  0.4238000000000  0.5412570000000  0.5862700000000 1.0
C      1  0.4500320000000  0.4205700000000  0.4590570000000 1.0
C      1  0.6506760000000  0.5394930000000  0.4822410000000 1.0
C      1  0.4055940000000  0.4639290000000  0.4921060000000 1.0
C      1  0.5345790000000  0.6191530000000  0.5003160000000 1.0
C      1  0.4204260000000  0.5521820000000  0.4679600000000 1.0
C      1  0.4563120000000  0.5257760000000  0.5464490000000 1.0
C      1  0.4301660000000  0.6143200000000  0.5443560000000 1.0
C      1  0.5187990000000  0.4898030000000  0.6129830000000 1.0
C      1  0.4851260000000  0.3824800000000  0.5060390000000 1.0
C      1  0.5294290000000  0.5552990000000  0.4769960000000 1.0
C      1  0.4287470000000  0.4606000000000  0.4373240000000 1.0
C      1  0.5352930000000  0.4969420000000  0.4041020000000 1.0
C      1  0.4153430000000  0.4041390000000  0.5201120000000 1.0
C      1  0.4368940000000  0.5176500000000  0.5280290000000 1.0
C      1  0.4793500000000  0.5143470000000  0.5587360000000 1.0
C      1  0.6301920000000  0.5522350000000  0.4723610000000 1.0
C      1  0.4920830000000  0.6128050000000  0.5318580000000 1.0
C      1  0.5369460000000  0.3820030000000  0.4598390000000 1.0
C      1  0.4234640000000  0.5377910000000  0.5135080000000 1.0
C      1  0.5318370000000  0.3339650000000  0.4685410000000 1.0
C      1  0.5034030000000  0.5532400000000  0.5366390000000 1.0
C      1  0.4807390000000  0.5014310000000  0.5849450000000 1.0
C      1  0.4428910000000  0.4460520000000  0.5724990000000 1.0
C      1  0.4995930000000  0.3995940000000  0.5521300000000 1.0
C      1  0.4788050000000  0.5900030000000  0.5211400000000 1.0
C      1  0.4694290000000  0.5873530000000  0.4949160000000 1.0
C      1  0.4610510000000  0.4823560000000  0.5947940000000 1.0
C      1  0.4230120000000  0.4929880000000  0.5276470000000 1.0
C      1  0.5959220000000  0.4690290000000  0.5142010000000 1.0
C      1  0.5687800000000  0.5342960000000  0.4189830000000 1.0
C      1  0.4742620000000  0.4258050000000  0.4448930000000 1.0
C      1  0.4522620000000  0.4694940000000  0.4968320000000 1.0
C      1  0.4011820000000  0.5022870000000  0.4611590000000 1.0
C      1  0.5410630000000  0.4531970000000  0.4825250000000 1.0
C      1  0.5870150000000  0.4929970000000  0.6040410000000 1.0
C      1  0.4948290000000  0.5605930000000  0.6003080000000 1.0
C      1  0.4468270000000  0.5273410000000  0.4190320000000 1.0
C      1  0.5485740000000  0.5620550000000  0.5700930000000 1.0
C      1  0.4631190000000  0.6112000000000  0.4797680000000 1.0
C      1  0.4476250000000  0.5580640000000  0.5794370000000 1.0
C      1  0.5979280000000  0.5267670000000  0.5403980000000 1.0
C      1  0.4522220000000  0.4924770000000  0.3775380000000 1.0
C      1  0.5500620000000  0.5711120000000  0.5430280000000 1.0
C      1  0.4092850000000  0.5826650000000  0.5074580000000 1.0
C      1  0.4935280000000  0.5218040000000  0.5007790000000 1.0
C      1  0.4012060000000  0.5323480000000  0.5714570000000 1.0
C      1  0.5834150000000  0.5448100000000  0.5246210000000 1.0
C      1  0.5172100000000  0.5606200000000  0.4523270000000 1.0
C      1  0.5151990000000  0.4761370000000  0.5588460000000 1.0
C      1  0.6567470000000  0.3872830000000  0.4833330000000 1.0
C      1  0.5217200000000  0.4111220000000  0.5662560000000 1.0
C      1  0.4788630000000  0.5674700000000  0.5378710000000 1.0
C      1  0.4757780000000  0.4053580000000  0.5661170000000 1.0
C      1  0.5366130000000  0.4479850000000  0.5923380000000 1.0
C      1  0.5037300000000  0.5600390000000  0.3862200000000 1.0
C      1  0.4965060000000  0.5080360000000  0.3704410000000 1.0
C      1  0.3916450000000  0.4014160000000  0.5331470000000 1.0
C      1  0.5655970000000  0.5328130000000  0.5052930000000 1.0
C      1  0.4639910000000  0.4526560000000  0.5917500000000 1.0
C      1  0.5312970000000  0.4891250000000  0.5170060000000 1.0
C      1  0.5226150000000  0.4073180000000  0.4630860000000 1.0
C      1  0.4855570000000  0.6047260000000  0.4308550000000 1.0
C      1  0.4093580000000  0.5298170000000  0.4527030000000 1.0
C      1  0.5552780000000  0.4931080000000  0.4566590000000 1.0
C      1  0.4577530000000  0.3903660000000  0.5047940000000 1.0
C      1  0.6299460000000  0.4288390000000  0.5011860000000 1.0
C      1  0.5000450000000  0.3995180000000  0.5232080000000 1.0
C      1  0.4766080000000  0.4561550000000  0.5344070000000 1.0
C      1  0.6148930000000  0.4492390000000  0.5088480000000 1.0
C      1  0.5208560000000  0.4394490000000  0.4057170000000 1.0
C      1  0.4759280000000  0.4481750000000  0.4263010000000 1.0
C      1  0.6078540000000  0.5637240000000  0.4639410000000 1.0
C      1  0.5313850000000  0.6200330000000  0.4526670000000 1.0
C      1  0.5084150000000  0.4867960000000  0.4721840000000 1.0
C      1  0.4699780000000  0.5144200000000  0.3781100000000 1.0
C      1  0.5638950000000  0.4854400000000  0.4112050000000 1.0
C      1  0.4141390000000  0.5574010000000  0.4956800000000 1.0
C      1  0.4948650000000  0.4423510000000  0.4930190000000 1.0
C      1  0.4185690000000  0.4149610000000  0.4938610000000 1.0
C      1  0.4342850000000  0.4944380000000  0.5984270000000 1.0
C      1  0.4976550000000  0.4119880000000  0.4517870000000 1.0
C      1  0.5026740000000  0.5102800000000  0.6020150000000 1.0
C      1  0.5980010000000  0.5018980000000  0.5537100000000 1.0
C      1  0.4506750000000  0.4602390000000  0.4186960000000 1.0
C      1  0.5350550000000  0.5386430000000  0.5790580000000 1.0
C      1  0.5404720000000  0.4269270000000  0.5509640000000 1.0
C      1  0.4337960000000  0.5219760000000  0.6070360000000 1.0
C      1  0.3955610000000  0.4973000000000  0.5365980000000 1.0
C      1  0.4493610000000  0.4020020000000  0.5563990000000 1.0
C      1  0.5816740000000  0.4809750000000  0.4924900000000 1.0
C      1  0.4709130000000  0.5328630000000  0.4879770000000 1.0
C      1  0.5464080000000  0.6110810000000  0.4754770000000 1.0
C      1  0.5428060000000  0.4259280000000  0.4711710000000 1.0
C      1  0.5513610000000  0.5780340000000  0.4216900000000 1.0
C      1  0.5403090000000  0.5476380000000  0.5017910000000 1.0
C      1  0.5816670000000  0.5082340000000  0.4169430000000 1.0
C      1  0.5031980000000  0.4561230000000  0.5439150000000 1.0
C      1  0.5907270000000  0.4766820000000  0.5415690000000 1.0
C      1  0.4707440000000  0.6148120000000  0.4528440000000 1.0
C      1  0.5134560000000  0.4294860000000  0.5890840000000 1.0
C      1  0.5263560000000  0.5799100000000  0.4336020000000 1.0
C      1  0.5401130000000  0.3095010000000  0.4650460000000 1.0
C      1  0.5991940000000  0.5017420000000  0.5819320000000 1.0
C      1  0.5767590000000  0.4585780000000  0.5584990000000 1.0
C      1  0.5265110000000  0.5469370000000  0.3915540000000 1.0
C      1  0.5398710000000  0.4612630000000  0.5117320000000 1.0
C      1  0.4622560000000  0.5362600000000  0.3957650000000 1.0
C      1  0.4668770000000  0.5555530000000  0.6020970000000 1.0
C      1  0.6435870000000  0.4079280000000  0.4922880000000 1.0
C      1  0.4733520000000  0.4546560000000  0.5064180000000 1.0
C      1  0.4108880000000  0.4874710000000  0.5829230000000 1.0
C      1  0.4637170000000  0.5610270000000  0.4854520000000 1.0
C      1  0.5124820000000  0.5011990000000  0.4971810000000 1.0
C      1  0.5815920000000  0.5719460000000  0.4574200000000 1.0
C      1  0.4474500000000  0.5618910000000  0.4609260000000 1.0
C      1  0.4577960000000  0.5545240000000  0.5527940000000 1.0
C      1  0.5708320000000  0.5605200000000  0.4323370000000 1.0
C      1  0.4732270000000  0.5807330000000  0.4184560000000 1.0
C      1  0.5259450000000  0.4406210000000  0.5286020000000 1.0
C      1  0.5153810000000  0.6216010000000  0.5188830000000 1.0
C      1  0.5549870000000  0.4444740000000  0.5689110000000 1.0
C      1  0.4276800000000  0.4391150000000  0.4556010000000 1.0
C      1  0.5422070000000  0.5285170000000  0.4058950000000 1.0
C      1  0.5778730000000  0.5880980000000  0.5048030000000 1.0
C      1  0.4932520000000  0.5481920000000  0.4454520000000 1.0
C      1  0.5232950000000  0.3602290000000  0.4721550000000 1.0
C      1  0.5129200000000  0.5377840000000  0.5982810000000 1.0
C      1  0.5088810000000  0.4235580000000  0.5107950000000 1.0
C      1  0.5657940000000  0.4803260000000  0.6141530000000 1.0
C      1  0.5139080000000  0.4834780000000  0.4228600000000 1.0
C      1  0.4112420000000  0.4823500000000  0.4423850000000 1.0
C      1  0.5752670000000  0.5721080000000  0.5283940000000 1.0
C      1  0.4527200000000  0.4574130000000  0.5486540000000 1.0
C      1  0.4321240000000  0.4202620000000  0.5700460000000 1.0
C      1  0.5687240000000  0.5913050000000  0.4771570000000 1.0
C      1  0.5651760000000  0.4683290000000  0.4697870000000 1.0
C      1  0.5487380000000  0.5181390000000  0.4566840000000 1.0
C      1  0.4448320000000  0.4047200000000  0.4828360000000 1.0
C      1  0.5054700000000  0.4976990000000  0.4458280000000 1.0
C      1  0.4844860000000  0.4315750000000  0.5894410000000 1.0
C      1  0.4578120000000  0.5141130000000  0.4692050000000 1.0
C      1  0.4472060000000  0.4716270000000  0.3933970000000 1.0
C      1  0.4155280000000  0.6006540000000  0.5264460000000 1.0
C      1  0.5013660000000  0.5874000000000  0.5940250000000 1.0
C      1  0.4808830000000  0.6195460000000  0.5573980000000 1.0
C      1  0.5757010000000  0.5087770000000  0.4952010000000 1.0
END
