TITL C-627110-360-2089 0.0127872567776187 125000 -1212.49418865281 0 0 196 (C1) n - 1
REM
REM in /home/nfs/bkarasulu/CARBON/AIRSS/Generating-Clusters/LCBOP/Only-C1/SD-CG/FIRE-CG
REM
REM
REM
REM
REM
REM ./C.cell (11c1c37f851c82e70ff6c80c92926a4b)
REM AIRSS Version 0.9.1 bugfix July 2018 build 013d7b7c2542+ Fri, 06 Jul 2018 19:26:36 +0100
REM compiler GCC version 9.2.1 20190827 (Red Hat 9.2.1-1)
REM options -cpp -mtune=generic -march=x86-64 -g -O0 -fpre-include=/usr/include/finclude/math-vector-fortran.h
REM seed 52142680 1909903726 1939005006 -753057812 1683087611 635809653 82024004 -1202911898 1700998785 44388817 -1743962688 656776808 1253374077 -1317474513 375934282 596339173 1071681519 -1579976926 -2146181152 -437485839 2125836613 1790816705 459107537 -384962269 1059964379 1225981285 -524449113 -189466135 -35339532 505674529 -903434221 223311656 -518048581
REM
CELL 1.54180   50.00000   50.00000   50.00000   90.00000   90.00000   90.00000
LATT -1
SFAC C  
C      1  0.3526910000000  0.5243990000000  0.4687420000000 1.0
C      1  0.4243700000000  0.5785660000000  0.4299060000000 1.0
C      1  0.5716970000000  0.5704620000000  0.5563450000000 1.0
C      1  0.5287520000000  0.3579920000000  0.4237950000000 1.0
C      1  0.3941860000000  0.5195130000000  0.3857680000000 1.0
C      1  0.4853250000000  0.5148340000000  0.3811150000000 1.0
C      1  0.5285300000000  0.5291570000000  0.5491580000000 1.0
C      1  0.4655420000000  0.5228490000000  0.5473760000000 1.0
C      1  0.5313340000000  0.6177000000000  0.4837050000000 1.0
C      1  0.5790310000000  0.4531750000000  0.4503880000000 1.0
C      1  0.4474180000000  0.4056230000000  0.4394540000000 1.0
C      1  0.4962020000000  0.4566760000000  0.6307590000000 1.0
C      1  0.4596630000000  0.5518380000000  0.5567760000000 1.0
C      1  0.5077260000000  0.4059560000000  0.5564760000000 1.0
C      1  0.3957170000000  0.5888920000000  0.5301850000000 1.0
C      1  0.4590670000000  0.3900380000000  0.5020080000000 1.0
C      1  0.4367840000000  0.3836540000000  0.3976970000000 1.0
C      1  0.4872140000000  0.5105820000000  0.5645960000000 1.0
C      1  0.5187300000000  0.5318130000000  0.4898760000000 1.0
C      1  0.6948640000000  0.4250330000000  0.4801600000000 1.0
C      1  0.5311870000000  0.5727760000000  0.4679300000000 1.0
C      1  0.5221020000000  0.5607260000000  0.4933940000000 1.0
C      1  0.5351630000000  0.4059350000000  0.5975700000000 1.0
C      1  0.4397620000000  0.4954570000000  0.5972680000000 1.0
C      1  0.5653160000000  0.4361560000000  0.4318550000000 1.0
C      1  0.3786190000000  0.5154060000000  0.5758600000000 1.0
C      1  0.5259360000000  0.5535160000000  0.5401850000000 1.0
C      1  0.3994870000000  0.5369000000000  0.4823830000000 1.0
C      1  0.6801780000000  0.4856830000000  0.4601750000000 1.0
C      1  0.5705510000000  0.4493630000000  0.5232340000000 1.0
C      1  0.5979910000000  0.4504770000000  0.5233700000000 1.0
C      1  0.4825840000000  0.6052360000000  0.5017220000000 1.0
C      1  0.4365860000000  0.5487440000000  0.5790400000000 1.0
C      1  0.4380750000000  0.4377270000000  0.5339290000000 1.0
C      1  0.5515860000000  0.4715750000000  0.5668430000000 1.0
C      1  0.5817650000000  0.5219430000000  0.4262310000000 1.0
C      1  0.4785690000000  0.3740450000000  0.4201310000000 1.0
C      1  0.4498070000000  0.4288940000000  0.6058010000000 1.0
C      1  0.6139900000000  0.4946670000000  0.4516370000000 1.0
C      1  0.5708690000000  0.3349280000000  0.4266860000000 1.0
C      1  0.4600190000000  0.5279970000000  0.3815050000000 1.0
C      1  0.4129950000000  0.5196580000000  0.3665830000000 1.0
C      1  0.5222450000000  0.5709140000000  0.5195210000000 1.0
C      1  0.4465620000000  0.4122990000000  0.4895960000000 1.0
C      1  0.6032230000000  0.5413600000000  0.4671920000000 1.0
C      1  0.4595950000000  0.6071770000000  0.5656730000000 1.0
C      1  0.5234120000000  0.5984960000000  0.5242180000000 1.0
C      1  0.5535860000000  0.5658860000000  0.5805030000000 1.0
C      1  0.4726090000000  0.5790190000000  0.4214340000000 1.0
C      1  0.3876240000000  0.5194160000000  0.4132990000000 1.0
C      1  0.4395890000000  0.5223770000000  0.3625390000000 1.0
C      1  0.3516700000000  0.5109420000000  0.5767430000000 1.0
C      1  0.4465990000000  0.5676520000000  0.4139680000000 1.0
C      1  0.6541940000000  0.4510010000000  0.4837580000000 1.0
C      1  0.4803190000000  0.5660860000000  0.5752320000000 1.0
C      1  0.4857970000000  0.5044640000000  0.5929590000000 1.0
C      1  0.5113020000000  0.6008270000000  0.5792790000000 1.0
C      1  0.4845380000000  0.5942380000000  0.5728530000000 1.0
C      1  0.4545760000000  0.4703750000000  0.4435450000000 1.0
C      1  0.4039370000000  0.3760940000000  0.3573610000000 1.0
C      1  0.4484320000000  0.5388210000000  0.4057590000000 1.0
C      1  0.4770660000000  0.4205870000000  0.5973170000000 1.0
C      1  0.4676420000000  0.5741710000000  0.4691230000000 1.0
C      1  0.4124030000000  0.5547100000000  0.5017210000000 1.0
C      1  0.4396420000000  0.4829930000000  0.5017680000000 1.0
C      1  0.5424060000000  0.4439940000000  0.4168540000000 1.0
C      1  0.6012110000000  0.4702170000000  0.4437130000000 1.0
C      1  0.5858300000000  0.5502070000000  0.5415220000000 1.0
C      1  0.4384400000000  0.5931360000000  0.5513740000000 1.0
C      1  0.5852130000000  0.6174000000000  0.5010010000000 1.0
C      1  0.3971430000000  0.4938840000000  0.5772240000000 1.0
C      1  0.4827340000000  0.4671150000000  0.4451100000000 1.0
C      1  0.6331330000000  0.4936700000000  0.4730320000000 1.0
C      1  0.6277470000000  0.5112780000000  0.4945090000000 1.0
C      1  0.3623150000000  0.5118780000000  0.4225170000000 1.0
C      1  0.5865150000000  0.4900790000000  0.6026060000000 1.0
C      1  0.5118980000000  0.4923110000000  0.5977900000000 1.0
C      1  0.5563320000000  0.6193530000000  0.5002170000000 1.0
C      1  0.4608490000000  0.5120110000000  0.6044920000000 1.0
C      1  0.4950580000000  0.4754040000000  0.4707300000000 1.0
C      1  0.5272700000000  0.6003030000000  0.4603730000000 1.0
C      1  0.5059170000000  0.4297650000000  0.4580470000000 1.0
C      1  0.4824290000000  0.4061970000000  0.5724340000000 1.0
C      1  0.5566270000000  0.3582500000000  0.4263720000000 1.0
C      1  0.5061360000000  0.4705810000000  0.3937420000000 1.0
C      1  0.6556980000000  0.4767900000000  0.4724020000000 1.0
C      1  0.4452950000000  0.4218280000000  0.4618650000000 1.0
C      1  0.5080180000000  0.4984340000000  0.3863950000000 1.0
C      1  0.4519120000000  0.5709320000000  0.5341130000000 1.0
C      1  0.4837460000000  0.4543850000000  0.5288760000000 1.0
C      1  0.4395580000000  0.5566510000000  0.5098220000000 1.0
C      1  0.4377700000000  0.4340000000000  0.5059890000000 1.0
C      1  0.5728530000000  0.4092180000000  0.4302870000000 1.0
C      1  0.5565440000000  0.4496220000000  0.5482330000000 1.0
C      1  0.5289500000000  0.4385730000000  0.4978080000000 1.0
C      1  0.7097590000000  0.4434960000000  0.4671960000000 1.0
C      1  0.4496530000000  0.4451130000000  0.6294670000000 1.0
C      1  0.4700650000000  0.6240420000000  0.4595070000000 1.0
C      1  0.5979780000000  0.5425590000000  0.5185040000000 1.0
C      1  0.5670740000000  0.4600330000000  0.4755110000000 1.0
C      1  0.5488570000000  0.5172740000000  0.6164690000000 1.0
C      1  0.6821190000000  0.5107130000000  0.4492600000000 1.0
C      1  0.4102760000000  0.5876030000000  0.4517750000000 1.0
C      1  0.5029990000000  0.3638890000000  0.4216600000000 1.0
C      1  0.5611520000000  0.5029600000000  0.4329820000000 1.0
C      1  0.4803620000000  0.5253400000000  0.5210540000000 1.0
C      1  0.3995800000000  0.5809520000000  0.5029720000000 1.0
C      1  0.3921470000000  0.5870680000000  0.4746880000000 1.0
C      1  0.5024360000000  0.4032490000000  0.5268700000000 1.0
C      1  0.5663440000000  0.4435010000000  0.6398270000000 1.0
C      1  0.4139880000000  0.4472170000000  0.5458160000000 1.0
C      1  0.4086930000000  0.5238360000000  0.4320190000000 1.0
C      1  0.5265300000000  0.4252260000000  0.6157590000000 1.0
C      1  0.3923640000000  0.4663520000000  0.5833470000000 1.0
C      1  0.4542180000000  0.5001630000000  0.4855170000000 1.0
C      1  0.4985580000000  0.4322360000000  0.6138120000000 1.0
C      1  0.5053950000000  0.4689000000000  0.5253780000000 1.0
C      1  0.4638810000000  0.3946040000000  0.5531050000000 1.0
C      1  0.3482320000000  0.5122440000000  0.4452650000000 1.0
C      1  0.5652630000000  0.4882010000000  0.4787090000000 1.0
C      1  0.5748440000000  0.4784300000000  0.5815540000000 1.0
C      1  0.7023490000000  0.4682040000000  0.4595520000000 1.0
C      1  0.5989580000000  0.5677910000000  0.4613220000000 1.0
C      1  0.4619870000000  0.4486320000000  0.5449880000000 1.0
C      1  0.4933590000000  0.5414660000000  0.4389130000000 1.0
C      1  0.4741390000000  0.3940630000000  0.5258580000000 1.0
C      1  0.4273120000000  0.4902560000000  0.5260350000000 1.0
C      1  0.4458230000000  0.4975760000000  0.4391150000000 1.0
C      1  0.5491600000000  0.5419510000000  0.5987660000000 1.0
C      1  0.4063850000000  0.4719800000000  0.5335350000000 1.0
C      1  0.5565050000000  0.4458440000000  0.4983750000000 1.0
C      1  0.5695460000000  0.3829700000000  0.4286220000000 1.0
C      1  0.5942800000000  0.6049380000000  0.5243280000000 1.0
C      1  0.5266100000000  0.4841030000000  0.5215540000000 1.0
C      1  0.5691700000000  0.4991700000000  0.5039880000000 1.0
C      1  0.5754290000000  0.5072250000000  0.6202300000000 1.0
C      1  0.5455160000000  0.5357740000000  0.3925410000000 1.0
C      1  0.5155400000000  0.4125060000000  0.5028860000000 1.0
C      1  0.5497510000000  0.4973180000000  0.5220440000000 1.0
C      1  0.5235280000000  0.4693200000000  0.6341410000000 1.0
C      1  0.5150860000000  0.4509220000000  0.4126960000000 1.0
C      1  0.6024880000000  0.5211980000000  0.4460440000000 1.0
C      1  0.4697930000000  0.4601310000000  0.6398280000000 1.0
C      1  0.5093850000000  0.6135570000000  0.5038260000000 1.0
C      1  0.4357170000000  0.5181390000000  0.4210670000000 1.0
C      1  0.5119940000000  0.4524970000000  0.4778820000000 1.0
C      1  0.5515390000000  0.4238450000000  0.5574620000000 1.0
C      1  0.4776670000000  0.5636480000000  0.4454410000000 1.0
C      1  0.4631210000000  0.4591530000000  0.5700400000000 1.0
C      1  0.5367990000000  0.5494730000000  0.4518310000000 1.0
C      1  0.5145180000000  0.5067820000000  0.5564750000000 1.0
C      1  0.4569520000000  0.5565150000000  0.4876710000000 1.0
C      1  0.5269880000000  0.4867680000000  0.5729640000000 1.0
C      1  0.4958140000000  0.5179970000000  0.4986100000000 1.0
C      1  0.3716900000000  0.5433170000000  0.4764660000000 1.0
C      1  0.4829710000000  0.4976750000000  0.4837810000000 1.0
C      1  0.4533840000000  0.5397780000000  0.6029540000000 1.0
C      1  0.5343280000000  0.5088120000000  0.3918220000000 1.0
C      1  0.4260060000000  0.4296230000000  0.5901970000000 1.0
C      1  0.5730570000000  0.5368620000000  0.4030610000000 1.0
C      1  0.3684960000000  0.5710090000000  0.4703920000000 1.0
C      1  0.4112800000000  0.5833580000000  0.5539440000000 1.0
C      1  0.5369610000000  0.5254950000000  0.4682690000000 1.0
C      1  0.4355550000000  0.4576620000000  0.4896620000000 1.0
C      1  0.4136980000000  0.5239510000000  0.4615280000000 1.0
C      1  0.4700570000000  0.6017490000000  0.4766750000000 1.0
C      1  0.5282140000000  0.4955070000000  0.6208270000000 1.0
C      1  0.3888010000000  0.5416690000000  0.5733740000000 1.0
C      1  0.4387810000000  0.5052850000000  0.5480040000000 1.0
C      1  0.4542440000000  0.3877640000000  0.4191010000000 1.0
C      1  0.4983550000000  0.5923820000000  0.4155270000000 1.0
C      1  0.5410400000000  0.4459170000000  0.6301210000000 1.0
C      1  0.5160070000000  0.5791230000000  0.3974970000000 1.0
C      1  0.5722050000000  0.5959970000000  0.5415880000000 1.0
C      1  0.4388250000000  0.5100210000000  0.4645930000000 1.0
C      1  0.4762470000000  0.5570330000000  0.6020910000000 1.0
C      1  0.5523130000000  0.5038600000000  0.4596300000000 1.0
C      1  0.4916210000000  0.6298940000000  0.4441560000000 1.0
C      1  0.5495090000000  0.6084210000000  0.5280190000000 1.0
C      1  0.5066970000000  0.4063030000000  0.4752270000000 1.0
C      1  0.4734350000000  0.5878500000000  0.5217260000000 1.0
C      1  0.5196770000000  0.5458300000000  0.4300710000000 1.0
C      1  0.4410690000000  0.4512610000000  0.4612790000000 1.0
C      1  0.5325530000000  0.4080270000000  0.5696380000000 1.0
C      1  0.5481650000000  0.4925790000000  0.4106930000000 1.0
C      1  0.4250390000000  0.4994400000000  0.5735880000000 1.0
C      1  0.4564170000000  0.3649070000000  0.4915130000000 1.0
C      1  0.5343800000000  0.5874110000000  0.5841700000000 1.0
C      1  0.4082510000000  0.4445230000000  0.5737110000000 1.0
C      1  0.6691810000000  0.4289940000000  0.4876170000000 1.0
C      1  0.4202260000000  0.3798450000000  0.3773670000000 1.0
C      1  0.5096450000000  0.6086800000000  0.4375600000000 1.0
C      1  0.4977560000000  0.4448110000000  0.4344100000000 1.0
C      1  0.6096460000000  0.5331180000000  0.4942690000000 1.0
C      1  0.4106560000000  0.5590950000000  0.5706460000000 1.0
C      1  0.5274970000000  0.5543220000000  0.4041580000000 1.0
END
