TITL C-627111-6168-1923 0.320874863026588 125000 -804.523415678996 0 0 133 (C1) n - 1
REM
REM in /home/nfs/bkarasulu/CARBON/AIRSS/Generating-Clusters/LCBOP/Only-C1/SD-CG/FIRE-CG
REM
REM
REM
REM
REM
REM ./C.cell (11c1c37f851c82e70ff6c80c92926a4b)
REM AIRSS Version 0.9.1 bugfix July 2018 build 013d7b7c2542+ Fri, 06 Jul 2018 19:26:36 +0100
REM compiler GCC version 9.2.1 20190827 (Red Hat 9.2.1-1)
REM options -cpp -mtune=generic -march=x86-64 -g -O0 -fpre-include=/usr/include/finclude/math-vector-fortran.h
REM seed -1491582519 -416480381 2107243751 -395097223 -738837714 440173364 75352432 2128042928 -463479203 635298401 325358690 1382133815 -1878516186 2113549366 -1740945156 2122665974 -320868718 1895599136 1334497937 14009530 1753608130 1694773623 -1616000533 -478987511 -344021046 2000438940 25070123 490057270 151193768 542565812 762342835 1977090023 783660720
REM
CELL 1.54180   50.00000   50.00000   50.00000   90.00000   90.00000   90.00000
LATT -1
SFAC C  
C      1  0.5361820000000  0.5692770000000  0.5206100000000 1.0
C      1  0.5359220000000  0.5025580000000  0.5430790000000 1.0
C      1  0.5379050000000  0.4017030000000  0.5148940000000 1.0
C      1  0.5633190000000  0.5076480000000  0.4845420000000 1.0
C      1  0.5911270000000  0.4747230000000  0.4376810000000 1.0
C      1  0.4036680000000  0.5350300000000  0.4767570000000 1.0
C      1  0.4992130000000  0.4560070000000  0.4669740000000 1.0
C      1  0.5660070000000  0.5688580000000  0.4571050000000 1.0
C      1  0.4771450000000  0.3857040000000  0.4992910000000 1.0
C      1  0.4537100000000  0.4636650000000  0.5572720000000 1.0
C      1  0.4873780000000  0.5768110000000  0.4936680000000 1.0
C      1  0.5375180000000  0.5706230000000  0.4517440000000 1.0
C      1  0.4781280000000  0.5188170000000  0.5776460000000 1.0
C      1  0.5407250000000  0.5430990000000  0.5075490000000 1.0
C      1  0.4858700000000  0.4448750000000  0.5927850000000 1.0
C      1  0.5424520000000  0.4248070000000  0.4663740000000 1.0
C      1  0.4766230000000  0.5653250000000  0.5849940000000 1.0
C      1  0.4771660000000  0.4934290000000  0.5915300000000 1.0
C      1  0.5244520000000  0.4460530000000  0.4573690000000 1.0
C      1  0.6055200000000  0.5387290000000  0.4529390000000 1.0
C      1  0.5752680000000  0.5071200000000  0.3811930000000 1.0
C      1  0.5340580000000  0.4642590000000  0.4381140000000 1.0
C      1  0.4204680000000  0.5251940000000  0.3699410000000 1.0
C      1  0.5436310000000  0.4459380000000  0.5154330000000 1.0
C      1  0.4942260000000  0.5423000000000  0.5856290000000 1.0
C      1  0.4711370000000  0.4889940000000  0.4904900000000 1.0
C      1  0.4623050000000  0.4681110000000  0.3853230000000 1.0
C      1  0.5204120000000  0.4118370000000  0.5647950000000 1.0
C      1  0.4668650000000  0.5983320000000  0.5314620000000 1.0
C      1  0.5089880000000  0.5692980000000  0.4471110000000 1.0
C      1  0.4342720000000  0.4655510000000  0.4442830000000 1.0
C      1  0.4645390000000  0.5266650000000  0.5531280000000 1.0
C      1  0.5796870000000  0.4600000000000  0.5891430000000 1.0
C      1  0.5795740000000  0.5814340000000  0.4791290000000 1.0
C      1  0.4188220000000  0.5438700000000  0.4515480000000 1.0
C      1  0.5670650000000  0.5307160000000  0.5014760000000 1.0
C      1  0.3634820000000  0.4703110000000  0.5474810000000 1.0
C      1  0.4679450000000  0.4125220000000  0.5358020000000 1.0
C      1  0.4613010000000  0.4510830000000  0.4077990000000 1.0
C      1  0.4237640000000  0.4756810000000  0.5063910000000 1.0
C      1  0.4439340000000  0.5514340000000  0.4651540000000 1.0
C      1  0.4765370000000  0.4447780000000  0.4541360000000 1.0
C      1  0.4460270000000  0.5822360000000  0.5446690000000 1.0
C      1  0.3939250000000  0.5075450000000  0.4802490000000 1.0
C      1  0.5837040000000  0.4482580000000  0.4451370000000 1.0
C      1  0.4430090000000  0.4236490000000  0.5266430000000 1.0
C      1  0.5422090000000  0.4310320000000  0.5727310000000 1.0
C      1  0.4300520000000  0.5816530000000  0.4225240000000 1.0
C      1  0.5821530000000  0.5505800000000  0.4420260000000 1.0
C      1  0.5878780000000  0.5079720000000  0.5650720000000 1.0
C      1  0.5731310000000  0.5123720000000  0.4078610000000 1.0
C      1  0.4371540000000  0.4177250000000  0.4982740000000 1.0
C      1  0.4463290000000  0.5391320000000  0.4082590000000 1.0
C      1  0.4794140000000  0.5422760000000  0.5337620000000 1.0
C      1  0.5880570000000  0.5271680000000  0.5219240000000 1.0
C      1  0.4942710000000  0.5971980000000  0.5424090000000 1.0
C      1  0.4721110000000  0.4587860000000  0.3615410000000 1.0
C      1  0.4141650000000  0.4631840000000  0.5298580000000 1.0
C      1  0.4967280000000  0.4829360000000  0.4790040000000 1.0
C      1  0.4668940000000  0.4660420000000  0.5827660000000 1.0
C      1  0.5247320000000  0.4544980000000  0.5335310000000 1.0
C      1  0.5635060000000  0.4862940000000  0.5031840000000 1.0
C      1  0.5583800000000  0.4219650000000  0.5205950000000 1.0
C      1  0.4257480000000  0.5531970000000  0.4240560000000 1.0
C      1  0.4164320000000  0.4589530000000  0.4655850000000 1.0
C      1  0.4420560000000  0.5200740000000  0.5126210000000 1.0
C      1  0.4215390000000  0.4338830000000  0.4800810000000 1.0
C      1  0.4579710000000  0.5109170000000  0.4456340000000 1.0
C      1  0.5461700000000  0.4893440000000  0.4413810000000 1.0
C      1  0.6000190000000  0.4494240000000  0.5237840000000 1.0
C      1  0.4398980000000  0.5196020000000  0.3884580000000 1.0
C      1  0.4609970000000  0.5156160000000  0.4919060000000 1.0
C      1  0.4923460000000  0.5600950000000  0.5166360000000 1.0
C      1  0.4900270000000  0.4947820000000  0.5334680000000 1.0
C      1  0.5535080000000  0.5908240000000  0.5163600000000 1.0
C      1  0.5568270000000  0.4920990000000  0.5301190000000 1.0
C      1  0.5981180000000  0.5027860000000  0.5371790000000 1.0
C      1  0.4406490000000  0.5198430000000  0.5397200000000 1.0
C      1  0.4494640000000  0.5962880000000  0.4812530000000 1.0
C      1  0.4532390000000  0.4947640000000  0.3873450000000 1.0
C      1  0.5719090000000  0.4292540000000  0.4629380000000 1.0
C      1  0.5759060000000  0.5356710000000  0.5657650000000 1.0
C      1  0.4166880000000  0.5608590000000  0.5007930000000 1.0
C      1  0.5044750000000  0.5043820000000  0.6326210000000 1.0
C      1  0.5113230000000  0.5762410000000  0.5319120000000 1.0
C      1  0.5877390000000  0.5492940000000  0.5414430000000 1.0
C      1  0.5888740000000  0.4211170000000  0.4847080000000 1.0
C      1  0.4544900000000  0.3968150000000  0.4884150000000 1.0
C      1  0.4675410000000  0.5972200000000  0.5031800000000 1.0
C      1  0.5795780000000  0.5859550000000  0.5072280000000 1.0
C      1  0.5538930000000  0.4619220000000  0.4954980000000 1.0
C      1  0.5498450000000  0.5413100000000  0.5771810000000 1.0
C      1  0.4836930000000  0.4320100000000  0.5478380000000 1.0
C      1  0.5944780000000  0.5737000000000  0.5284660000000 1.0
C      1  0.4515350000000  0.4713170000000  0.4998490000000 1.0
C      1  0.5165120000000  0.3981340000000  0.5355800000000 1.0
C      1  0.5231610000000  0.5426560000000  0.5835800000000 1.0
C      1  0.4395070000000  0.4926150000000  0.4391280000000 1.0
C      1  0.4502380000000  0.5968090000000  0.4326450000000 1.0
C      1  0.6133110000000  0.4888920000000  0.4478760000000 1.0
C      1  0.4903600000000  0.5816870000000  0.4649650000000 1.0
C      1  0.4980370000000  0.4484410000000  0.5303730000000 1.0
C      1  0.5166950000000  0.5048770000000  0.4799040000000 1.0
C      1  0.4685870000000  0.4810730000000  0.5405370000000 1.0
C      1  0.4242300000000  0.5695170000000  0.5280890000000 1.0
C      1  0.5734010000000  0.5386550000000  0.4180860000000 1.0
C      1  0.4951070000000  0.4261860000000  0.5733560000000 1.0
C      1  0.4084400000000  0.4820050000000  0.4828850000000 1.0
C      1  0.5704570000000  0.4917590000000  0.4271320000000 1.0
C      1  0.4961790000000  0.5554140000000  0.4255170000000 1.0
C      1  0.3387880000000  0.4750360000000  0.5543730000000 1.0
C      1  0.5338900000000  0.4555700000000  0.5599410000000 1.0
C      1  0.4601890000000  0.5288850000000  0.4673260000000 1.0
C      1  0.5857650000000  0.4267270000000  0.5125490000000 1.0
C      1  0.5418020000000  0.5040080000000  0.4654400000000 1.0
C      1  0.6175640000000  0.5147200000000  0.4542380000000 1.0
C      1  0.4878660000000  0.3939460000000  0.5245730000000 1.0
C      1  0.4345040000000  0.4473590000000  0.5423030000000 1.0
C      1  0.4548140000000  0.5743520000000  0.5710240000000 1.0
C      1  0.3662940000000  0.5051920000000  0.4813210000000 1.0
C      1  0.5339630000000  0.4045180000000  0.4857330000000 1.0
C      1  0.4348650000000  0.5722240000000  0.4825630000000 1.0
C      1  0.4998700000000  0.4586280000000  0.6138430000000 1.0
C      1  0.4655610000000  0.5966510000000  0.4563500000000 1.0
C      1  0.4738840000000  0.5466160000000  0.4128610000000 1.0
C      1  0.5849670000000  0.4856750000000  0.5824740000000 1.0
C      1  0.4950100000000  0.4869880000000  0.6140210000000 1.0
C      1  0.5129970000000  0.5090530000000  0.5285440000000 1.0
C      1  0.4559620000000  0.4492110000000  0.4353820000000 1.0
C      1  0.5190630000000  0.5223990000000  0.5038880000000 1.0
C      1  0.3884770000000  0.4659620000000  0.5398570000000 1.0
C      1  0.5659180000000  0.4365470000000  0.5871160000000 1.0
C      1  0.6046490000000  0.4757900000000  0.5294300000000 1.0
END
