TITL C-627106-156-1996 -10903.9577594017 125000 -1241.26022240976 0 0 200 (C1) n - 1
REM
REM in /home/nfs/bkarasulu/CARBON/AIRSS/Generating-Clusters/LCBOP/Only-C1/SD-CG/FIRE-CG
REM
REM
REM
REM
REM
REM ./C.cell (11c1c37f851c82e70ff6c80c92926a4b)
REM AIRSS Version 0.9.1 bugfix July 2018 build 013d7b7c2542+ Fri, 06 Jul 2018 19:26:36 +0100
REM compiler GCC version 9.2.1 20190827 (Red Hat 9.2.1-1)
REM options -cpp -mtune=generic -march=x86-64 -g -O0 -fpre-include=/usr/include/finclude/math-vector-fortran.h
REM seed -920493442 1153022739 -117686707 -263845962 568474969 -1336194524 -571989811 -1130434423 1584575995 -426786224 1918920996 1589635042 -1080259405 -1098988391 1996056625 -1467126152 1027702669 1077634562 -120722043 1791675553 -1447266466 -1141752266 -554299854 -1245136491 -2142323961 -257091733 -1749063671 -978798112 -1764426125 205168852 -1887878739 -841609369 -1368839300
REM
CELL 1.54180   50.00000   50.00000   50.00000   90.00000   90.00000   90.00000
LATT -1
SFAC C  
C      1  0.4709850000000  0.4815230000000  0.5621380000000 1.0
C      1  0.4573800000000  0.4904440000000  0.3802880000000 1.0
C      1  0.6007830000000  0.5485930000000  0.4804130000000 1.0
C      1  0.5723160000000  0.5237190000000  0.5099620000000 1.0
C      1  0.4928870000000  0.4797570000000  0.6179790000000 1.0
C      1  0.4748740000000  0.4041860000000  0.4584510000000 1.0
C      1  0.4779250000000  0.6081070000000  0.3931140000000 1.0
C      1  0.4860950000000  0.5774590000000  0.5338660000000 1.0
C      1  0.3896380000000  0.4511410000000  0.5070020000000 1.0
C      1  0.5591130000000  0.5093880000000  0.4894010000000 1.0
C      1  0.5955080000000  0.6174810000000  0.5082600000000 1.0
C      1  0.5564970000000  0.6290390000000  0.4872410000000 1.0
C      1  0.4598170000000  0.5394160000000  0.5637990000000 1.0
C      1  0.4795680000000  0.5003920000000  0.5800040000000 1.0
C      1  0.4505850000000  0.3979190000000  0.5462710000000 1.0
C      1  0.6070600000000  0.4888510000000  0.4621800000000 1.0
C      1  0.4418890000000  0.6164740000000  0.6151660000000 1.0
C      1  0.5268650000000  0.4739930000000  0.4557670000000 1.0
C      1  0.5169680000000  0.4964780000000  0.6201960000000 1.0
C      1  0.5102420000000  0.3504240000000  0.4665060000000 1.0
C      1  0.5112360000000  0.5577810000000  0.4910260000000 1.0
C      1  0.3915060000000  0.5468500000000  0.5163210000000 1.0
C      1  0.5443970000000  0.5337940000000  0.6151050000000 1.0
C      1  0.5555420000000  0.3996500000000  0.4927860000000 1.0
C      1  0.4104570000000  0.5055050000000  0.4730610000000 1.0
C      1  0.5434560000000  0.4478350000000  0.5205600000000 1.0
C      1  0.5336420000000  0.6107730000000  0.4490670000000 1.0
C      1  0.4425950000000  0.4757470000000  0.5093800000000 1.0
C      1  0.4754950000000  0.5361660000000  0.3771130000000 1.0
C      1  0.4962280000000  0.5486570000000  0.6187630000000 1.0
C      1  0.4510670000000  0.5701570000000  0.6001680000000 1.0
C      1  0.4298770000000  0.5163940000000  0.6154600000000 1.0
C      1  0.4991980000000  0.4696600000000  0.3956520000000 1.0
C      1  0.5506390000000  0.4325790000000  0.4389080000000 1.0
C      1  0.5017190000000  0.5379100000000  0.4460160000000 1.0
C      1  0.5503780000000  0.4231790000000  0.5750930000000 1.0
C      1  0.4959230000000  0.4685230000000  0.4872640000000 1.0
C      1  0.5235980000000  0.6315610000000  0.5188870000000 1.0
C      1  0.4299860000000  0.5262730000000  0.5659810000000 1.0
C      1  0.5228250000000  0.4522930000000  0.3982790000000 1.0
C      1  0.4329100000000  0.5280760000000  0.4035790000000 1.0
C      1  0.5430460000000  0.4663230000000  0.4768570000000 1.0
C      1  0.4757510000000  0.4465910000000  0.5293850000000 1.0
C      1  0.4012280000000  0.4105600000000  0.5299620000000 1.0
C      1  0.5434980000000  0.5844710000000  0.5428150000000 1.0
C      1  0.6117200000000  0.5638950000000  0.5543320000000 1.0
C      1  0.4541940000000  0.5707310000000  0.4076360000000 1.0
C      1  0.4216980000000  0.5147060000000  0.4957000000000 1.0
C      1  0.5450240000000  0.5118260000000  0.3700120000000 1.0
C      1  0.5091950000000  0.6238620000000  0.4941190000000 1.0
C      1  0.3629570000000  0.3983010000000  0.4705660000000 1.0
C      1  0.4591610000000  0.5955920000000  0.6119990000000 1.0
C      1  0.5551480000000  0.5340370000000  0.5563440000000 1.0
C      1  0.4677180000000  0.3818530000000  0.5286550000000 1.0
C      1  0.4970100000000  0.4893930000000  0.4162210000000 1.0
C      1  0.5423600000000  0.4958820000000  0.5335460000000 1.0
C      1  0.3684200000000  0.3914560000000  0.4455250000000 1.0
C      1  0.3967770000000  0.4604480000000  0.4810050000000 1.0
C      1  0.3899680000000  0.4684380000000  0.5299340000000 1.0
C      1  0.4619810000000  0.6054760000000  0.4808260000000 1.0
C      1  0.4828840000000  0.6132190000000  0.4984380000000 1.0
C      1  0.6155830000000  0.5354030000000  0.5510240000000 1.0
C      1  0.5840250000000  0.4603480000000  0.4929620000000 1.0
C      1  0.5381210000000  0.4996460000000  0.4464540000000 1.0
C      1  0.4568560000000  0.4741110000000  0.4388620000000 1.0
C      1  0.4253090000000  0.5563510000000  0.4455060000000 1.0
C      1  0.5729900000000  0.4514030000000  0.4288530000000 1.0
C      1  0.4164310000000  0.5131430000000  0.5911750000000 1.0
C      1  0.4583450000000  0.4461700000000  0.6030610000000 1.0
C      1  0.5174250000000  0.5125140000000  0.5349970000000 1.0
C      1  0.4006800000000  0.4604550000000  0.5564220000000 1.0
C      1  0.3971330000000  0.5563450000000  0.5427410000000 1.0
C      1  0.5384460000000  0.5191380000000  0.4710470000000 1.0
C      1  0.5983940000000  0.6280840000000  0.4593790000000 1.0
C      1  0.5940370000000  0.4583600000000  0.4477070000000 1.0
C      1  0.6205000000000  0.4843410000000  0.4952900000000 1.0
C      1  0.4369580000000  0.5517910000000  0.4196640000000 1.0
C      1  0.5719210000000  0.4650670000000  0.5807130000000 1.0
C      1  0.5642770000000  0.4807950000000  0.4878070000000 1.0
C      1  0.5118890000000  0.3746910000000  0.5089040000000 1.0
C      1  0.4140770000000  0.5522260000000  0.5652220000000 1.0
C      1  0.5312560000000  0.6225190000000  0.4742940000000 1.0
C      1  0.4642030000000  0.4303610000000  0.4649760000000 1.0
C      1  0.5038740000000  0.4311740000000  0.5960590000000 1.0
C      1  0.4726870000000  0.5314890000000  0.5194900000000 1.0
C      1  0.5818720000000  0.5597480000000  0.4355580000000 1.0
C      1  0.4291950000000  0.4556450000000  0.5631540000000 1.0
C      1  0.5520670000000  0.6297320000000  0.5169390000000 1.0
C      1  0.3817260000000  0.3885920000000  0.4227520000000 1.0
C      1  0.4765930000000  0.3839650000000  0.4787050000000 1.0
C      1  0.6061900000000  0.4631400000000  0.5103040000000 1.0
C      1  0.5336610000000  0.5618820000000  0.3728640000000 1.0
C      1  0.4953100000000  0.3787310000000  0.5327930000000 1.0
C      1  0.4619580000000  0.4134370000000  0.5676590000000 1.0
C      1  0.4737180000000  0.4540260000000  0.4505700000000 1.0
C      1  0.4830380000000  0.4790250000000  0.3733380000000 1.0
C      1  0.5274680000000  0.5375000000000  0.5484160000000 1.0
C      1  0.5183670000000  0.5328660000000  0.4225470000000 1.0
C      1  0.3842120000000  0.4235960000000  0.5116450000000 1.0
C      1  0.5486140000000  0.5634700000000  0.3982770000000 1.0
C      1  0.4888170000000  0.4010420000000  0.4344930000000 1.0
C      1  0.5443000000000  0.4834690000000  0.3652480000000 1.0
C      1  0.5429500000000  0.5380040000000  0.4091290000000 1.0
C      1  0.4032260000000  0.5594210000000  0.4923180000000 1.0
C      1  0.5499240000000  0.5980350000000  0.4321220000000 1.0
C      1  0.5141130000000  0.4536630000000  0.5582750000000 1.0
C      1  0.5911820000000  0.4439080000000  0.4711810000000 1.0
C      1  0.5846160000000  0.6248920000000  0.4824750000000 1.0
C      1  0.4292710000000  0.4729900000000  0.4441200000000 1.0
C      1  0.5631160000000  0.5762960000000  0.4200150000000 1.0
C      1  0.4401600000000  0.4071160000000  0.5015880000000 1.0
C      1  0.5864620000000  0.5136030000000  0.5926260000000 1.0
C      1  0.5212710000000  0.4381490000000  0.5355710000000 1.0
C      1  0.5752900000000  0.6162410000000  0.5289230000000 1.0
C      1  0.6176970000000  0.5271140000000  0.5232380000000 1.0
C      1  0.5149360000000  0.5823830000000  0.3677090000000 1.0
C      1  0.5465820000000  0.4634150000000  0.3861560000000 1.0
C      1  0.4984830000000  0.5251560000000  0.3625000000000 1.0
C      1  0.4573740000000  0.5202830000000  0.6167280000000 1.0
C      1  0.5702130000000  0.5937580000000  0.5450740000000 1.0
C      1  0.3870100000000  0.4731260000000  0.5779670000000 1.0
C      1  0.5280010000000  0.4318390000000  0.4192420000000 1.0
C      1  0.5098630000000  0.3939990000000  0.5540180000000 1.0
C      1  0.5859080000000  0.5744640000000  0.5590000000000 1.0
C      1  0.5370040000000  0.3877600000000  0.5120050000000 1.0
C      1  0.5262490000000  0.5339430000000  0.3638260000000 1.0
C      1  0.4591720000000  0.3855750000000  0.5008370000000 1.0
C      1  0.5284840000000  0.4441620000000  0.5833930000000 1.0
C      1  0.4579520000000  0.5992310000000  0.4101050000000 1.0
C      1  0.4321190000000  0.5035890000000  0.5456790000000 1.0
C      1  0.4860580000000  0.5963690000000  0.6209020000000 1.0
C      1  0.4434410000000  0.4801250000000  0.5578700000000 1.0
C      1  0.5608270000000  0.4113660000000  0.5510630000000 1.0
C      1  0.5689030000000  0.5541430000000  0.5699670000000 1.0
C      1  0.4739530000000  0.4992980000000  0.6076430000000 1.0
C      1  0.4992510000000  0.4660970000000  0.4583220000000 1.0
C      1  0.5931970000000  0.5403570000000  0.4542260000000 1.0
C      1  0.5738870000000  0.4673040000000  0.5540440000000 1.0
C      1  0.4735540000000  0.5627860000000  0.3864290000000 1.0
C      1  0.4895780000000  0.5861050000000  0.3785720000000 1.0
C      1  0.5699270000000  0.4966580000000  0.4104070000000 1.0
C      1  0.6051040000000  0.5194380000000  0.5732040000000 1.0
C      1  0.4954120000000  0.4974190000000  0.3551980000000 1.0
C      1  0.4983470000000  0.4329500000000  0.5192690000000 1.0
C      1  0.4399790000000  0.5904140000000  0.4763100000000 1.0
C      1  0.4551510000000  0.4512890000000  0.5103460000000 1.0
C      1  0.5913090000000  0.5111530000000  0.4513860000000 1.0
C      1  0.3991310000000  0.3883480000000  0.4033510000000 1.0
C      1  0.4419550000000  0.5733170000000  0.5276350000000 1.0
C      1  0.5836280000000  0.4181960000000  0.5319230000000 1.0
C      1  0.4867550000000  0.4616070000000  0.5518820000000 1.0
C      1  0.5470940000000  0.4652110000000  0.5948340000000 1.0
C      1  0.4861950000000  0.4512400000000  0.6097540000000 1.0
C      1  0.4218940000000  0.5686020000000  0.4714270000000 1.0
C      1  0.3793720000000  0.5207400000000  0.5168720000000 1.0
C      1  0.6310980000000  0.5052750000000  0.5110750000000 1.0
C      1  0.5193260000000  0.5042980000000  0.4236050000000 1.0
C      1  0.3939910000000  0.4964390000000  0.5893910000000 1.0
C      1  0.5272840000000  0.5629540000000  0.5361170000000 1.0
C      1  0.4097710000000  0.4788600000000  0.4636640000000 1.0
C      1  0.5472610000000  0.4201790000000  0.4724770000000 1.0
C      1  0.4287050000000  0.4064590000000  0.5286240000000 1.0
C      1  0.4892130000000  0.4947460000000  0.4959050000000 1.0
C      1  0.5382210000000  0.3956600000000  0.5408130000000 1.0
C      1  0.4674810000000  0.5466100000000  0.6119120000000 1.0
C      1  0.4733750000000  0.4967800000000  0.4307680000000 1.0
C      1  0.5033040000000  0.5757070000000  0.6238390000000 1.0
C      1  0.4752960000000  0.5100640000000  0.4760090000000 1.0
C      1  0.4539360000000  0.5183520000000  0.3861990000000 1.0
C      1  0.4768070000000  0.5596200000000  0.5553300000000 1.0
C      1  0.6031560000000  0.4408230000000  0.5295490000000 1.0
C      1  0.5071150000000  0.5666310000000  0.5173500000000 1.0
C      1  0.4319920000000  0.5005590000000  0.5174180000000 1.0
C      1  0.4934500000000  0.5111560000000  0.5190460000000 1.0
C      1  0.5674790000000  0.4684620000000  0.4054290000000 1.0
C      1  0.4463990000000  0.4362790000000  0.5785540000000 1.0
C      1  0.4321430000000  0.5729340000000  0.5761780000000 1.0
C      1  0.5674850000000  0.5021950000000  0.4379430000000 1.0
C      1  0.5002450000000  0.3689790000000  0.4837440000000 1.0
C      1  0.5063740000000  0.4430260000000  0.4947240000000 1.0
C      1  0.5359570000000  0.4421080000000  0.4911700000000 1.0
C      1  0.5095810000000  0.4107570000000  0.4211340000000 1.0
C      1  0.3677800000000  0.4093040000000  0.4942380000000 1.0
C      1  0.5571250000000  0.5168900000000  0.3953120000000 1.0
C      1  0.4789290000000  0.5187060000000  0.4494030000000 1.0
C      1  0.4498910000000  0.4314790000000  0.4903930000000 1.0
C      1  0.5428300000000  0.4884060000000  0.6097760000000 1.0
C      1  0.5968350000000  0.5369930000000  0.5058480000000 1.0
C      1  0.4919290000000  0.4103900000000  0.5748030000000 1.0
C      1  0.5160470000000  0.5271840000000  0.6202140000000 1.0
C      1  0.3798020000000  0.4950530000000  0.5255160000000 1.0
C      1  0.5804120000000  0.4043840000000  0.5064520000000 1.0
C      1  0.5635010000000  0.5163950000000  0.5356550000000 1.0
C      1  0.4790200000000  0.6033510000000  0.5251910000000 1.0
C      1  0.5544430000000  0.4703000000000  0.5337800000000 1.0
C      1  0.4387050000000  0.5869870000000  0.5515080000000 1.0
C      1  0.4084150000000  0.5157150000000  0.4035490000000 1.0
C      1  0.5182270000000  0.5401410000000  0.4701730000000 1.0
C      1  0.4539250000000  0.5511480000000  0.5168060000000 1.0
C      1  0.5612750000000  0.5116160000000  0.6065370000000 1.0
END
