TITL C-627108-131-138 -1.44106644833526e-06 125000 -879.87216350587 0 0 143 (C1) n - 1
REM
REM in /home/nfs/bkarasulu/CARBON/AIRSS/Generating-Clusters/LCBOP/Only-C1/SD-CG/FIRE-CG
REM
REM
REM
REM
REM
REM ./C.cell (11c1c37f851c82e70ff6c80c92926a4b)
REM AIRSS Version 0.9.1 bugfix July 2018 build 013d7b7c2542+ Fri, 06 Jul 2018 19:26:36 +0100
REM compiler GCC version 9.2.1 20190827 (Red Hat 9.2.1-1)
REM options -cpp -mtune=generic -march=x86-64 -g -O0 -fpre-include=/usr/include/finclude/math-vector-fortran.h
REM seed 224886808 -700214357 -1686774589 303791913 -2082545774 -200457719 -1969540360 850597406 1562891776 369435502 1900490686 1495098399 -690801573 268808757 -1876711757 -1754875291 395691728 -1122661070 -1137328667 -1143591401 678902607 -2119886223 264488989 -1948931328 -502636411 -180519372 2009193942 1669774142 745416854 -1788675274 -1279874873 2116106683 -565770428
REM
CELL 1.54180   50.00000   50.00000   50.00000   90.00000   90.00000   90.00000
LATT -1
SFAC C  
C      1  0.5670450000000  0.5373910000000  0.6021380000000 1.0
C      1  0.5496870000000  0.4220260000000  0.4445910000000 1.0
C      1  0.4691370000000  0.5399150000000  0.3708960000000 1.0
C      1  0.5133110000000  0.4854110000000  0.5173820000000 1.0
C      1  0.5949930000000  0.4722880000000  0.4955530000000 1.0
C      1  0.4375720000000  0.5338820000000  0.4490930000000 1.0
C      1  0.5776830000000  0.5493630000000  0.3439200000000 1.0
C      1  0.5127740000000  0.3979190000000  0.5057260000000 1.0
C      1  0.4252120000000  0.4491950000000  0.5400170000000 1.0
C      1  0.5194410000000  0.5396790000000  0.6029540000000 1.0
C      1  0.4570560000000  0.5889410000000  0.5683530000000 1.0
C      1  0.4015160000000  0.4816460000000  0.5013540000000 1.0
C      1  0.5044020000000  0.5753650000000  0.5724160000000 1.0
C      1  0.3954000000000  0.5545620000000  0.4986150000000 1.0
C      1  0.5162550000000  0.4342290000000  0.4079590000000 1.0
C      1  0.4082170000000  0.4934730000000  0.5275780000000 1.0
C      1  0.5494600000000  0.5903650000000  0.5528420000000 1.0
C      1  0.5325470000000  0.5494980000000  0.4408890000000 1.0
C      1  0.5621040000000  0.5988240000000  0.5279120000000 1.0
C      1  0.5503590000000  0.4985720000000  0.5410910000000 1.0
C      1  0.4891030000000  0.5160020000000  0.5490360000000 1.0
C      1  0.4713540000000  0.5044770000000  0.5309090000000 1.0
C      1  0.4693780000000  0.4777390000000  0.4923700000000 1.0
C      1  0.5655680000000  0.4837690000000  0.5891190000000 1.0
C      1  0.5456920000000  0.6132330000000  0.5099420000000 1.0
C      1  0.5504410000000  0.5268140000000  0.5405380000000 1.0
C      1  0.5424510000000  0.5233430000000  0.6061190000000 1.0
C      1  0.4947820000000  0.5198780000000  0.4440620000000 1.0
C      1  0.5420240000000  0.5257700000000  0.3769460000000 1.0
C      1  0.4145940000000  0.4597050000000  0.4878420000000 1.0
C      1  0.5167050000000  0.4861740000000  0.5837470000000 1.0
C      1  0.4558120000000  0.5005240000000  0.4083340000000 1.0
C      1  0.5604240000000  0.5379140000000  0.3597370000000 1.0
C      1  0.5049600000000  0.6049190000000  0.5316320000000 1.0
C      1  0.5663500000000  0.5737100000000  0.5694110000000 1.0
C      1  0.5776920000000  0.4401600000000  0.5740000000000 1.0
C      1  0.4808200000000  0.4556080000000  0.4797030000000 1.0
C      1  0.5778550000000  0.4182580000000  0.4481690000000 1.0
C      1  0.5845240000000  0.4682860000000  0.5220780000000 1.0
C      1  0.5923380000000  0.4805260000000  0.5476730000000 1.0
C      1  0.5848880000000  0.4205680000000  0.4963220000000 1.0
C      1  0.5044380000000  0.4486270000000  0.4941250000000 1.0
C      1  0.5380260000000  0.4088840000000  0.4951890000000 1.0
C      1  0.4988640000000  0.4791630000000  0.4150180000000 1.0
C      1  0.5578400000000  0.4535820000000  0.5221570000000 1.0
C      1  0.4745980000000  0.5610240000000  0.3899840000000 1.0
C      1  0.4345730000000  0.4307950000000  0.5232480000000 1.0
C      1  0.5294000000000  0.4350130000000  0.5822270000000 1.0
C      1  0.4430590000000  0.4207590000000  0.4975420000000 1.0
C      1  0.5290320000000  0.5394160000000  0.5549470000000 1.0
C      1  0.5497220000000  0.5403550000000  0.5142370000000 1.0
C      1  0.5060050000000  0.4138500000000  0.5284090000000 1.0
C      1  0.5408630000000  0.4408990000000  0.4238370000000 1.0
C      1  0.4417870000000  0.5316570000000  0.3759850000000 1.0
C      1  0.5016840000000  0.4395610000000  0.5211630000000 1.0
C      1  0.4296900000000  0.4856440000000  0.5722810000000 1.0
C      1  0.4195790000000  0.4756300000000  0.5475690000000 1.0
C      1  0.4893080000000  0.3927420000000  0.4617640000000 1.0
C      1  0.5222040000000  0.4838160000000  0.3978850000000 1.0
C      1  0.4095000000000  0.5285570000000  0.5645710000000 1.0
C      1  0.4940650000000  0.5010030000000  0.5738080000000 1.0
C      1  0.4742460000000  0.4910860000000  0.3671650000000 1.0
C      1  0.4772600000000  0.4395670000000  0.4572260000000 1.0
C      1  0.4756550000000  0.5703380000000  0.5793630000000 1.0
C      1  0.5151260000000  0.5217020000000  0.3680140000000 1.0
C      1  0.5092510000000  0.4982610000000  0.4565140000000 1.0
C      1  0.6002830000000  0.5079130000000  0.5514840000000 1.0
C      1  0.5701320000000  0.5573430000000  0.5062510000000 1.0
C      1  0.4627200000000  0.4529730000000  0.4024390000000 1.0
C      1  0.5147690000000  0.5831150000000  0.4882430000000 1.0
C      1  0.4825390000000  0.4148340000000  0.4479940000000 1.0
C      1  0.5195410000000  0.5358810000000  0.5063230000000 1.0
C      1  0.4763640000000  0.5565940000000  0.4916660000000 1.0
C      1  0.5479190000000  0.4891310000000  0.4091330000000 1.0
C      1  0.5811820000000  0.5814470000000  0.5157690000000 1.0
C      1  0.5192200000000  0.5931340000000  0.5543800000000 1.0
C      1  0.4579790000000  0.4218890000000  0.5870040000000 1.0
C      1  0.4782730000000  0.6135510000000  0.5350300000000 1.0
C      1  0.6081670000000  0.5876650000000  0.5138460000000 1.0
C      1  0.3727100000000  0.5173760000000  0.4763230000000 1.0
C      1  0.4555600000000  0.5994130000000  0.5232630000000 1.0
C      1  0.5815600000000  0.4680210000000  0.5715960000000 1.0
C      1  0.4843380000000  0.4829410000000  0.5174230000000 1.0
C      1  0.4302550000000  0.4377360000000  0.4762900000000 1.0
C      1  0.5082880000000  0.5439870000000  0.4548520000000 1.0
C      1  0.4617830000000  0.3977860000000  0.5012450000000 1.0
C      1  0.5055740000000  0.5543070000000  0.4847040000000 1.0
C      1  0.5155060000000  0.4578790000000  0.5831880000000 1.0
C      1  0.5510980000000  0.5175530000000  0.4034980000000 1.0
C      1  0.5888060000000  0.4605180000000  0.4698190000000 1.0
C      1  0.5559840000000  0.4674260000000  0.4269810000000 1.0
C      1  0.4408180000000  0.5129450000000  0.4656060000000 1.0
C      1  0.5281090000000  0.4494820000000  0.4785830000000 1.0
C      1  0.5434010000000  0.4731500000000  0.4728670000000 1.0
C      1  0.3795660000000  0.5429380000000  0.4804660000000 1.0
C      1  0.5411220000000  0.4970220000000  0.5949280000000 1.0
C      1  0.4081240000000  0.5484970000000  0.5226910000000 1.0
C      1  0.3809590000000  0.4941470000000  0.4866090000000 1.0
C      1  0.5191880000000  0.6038660000000  0.5068880000000 1.0
C      1  0.4916340000000  0.4504670000000  0.4070050000000 1.0
C      1  0.4694410000000  0.6152220000000  0.5630360000000 1.0
C      1  0.4930790000000  0.5407240000000  0.6134450000000 1.0
C      1  0.4701270000000  0.4981430000000  0.5889850000000 1.0
C      1  0.5547360000000  0.4268030000000  0.5786840000000 1.0
C      1  0.4603090000000  0.5632340000000  0.4135590000000 1.0
C      1  0.4884910000000  0.3922690000000  0.4899260000000 1.0
C      1  0.4576150000000  0.5445550000000  0.5061820000000 1.0
C      1  0.4409250000000  0.5842050000000  0.5433780000000 1.0
C      1  0.4177520000000  0.5685620000000  0.5421800000000 1.0
C      1  0.5069450000000  0.5345310000000  0.5370050000000 1.0
C      1  0.4438750000000  0.4432680000000  0.4223810000000 1.0
C      1  0.4388490000000  0.5225450000000  0.4029640000000 1.0
C      1  0.4061370000000  0.5215120000000  0.5357480000000 1.0
C      1  0.4531840000000  0.4749620000000  0.5853460000000 1.0
C      1  0.4335120000000  0.4379380000000  0.4473240000000 1.0
C      1  0.4552690000000  0.3841760000000  0.5514020000000 1.0
C      1  0.5170350000000  0.4113350000000  0.3925080000000 1.0
C      1  0.5657360000000  0.4707150000000  0.4549570000000 1.0
C      1  0.4565950000000  0.3989650000000  0.5735360000000 1.0
C      1  0.4540050000000  0.5232400000000  0.5902990000000 1.0
C      1  0.4870390000000  0.5176250000000  0.3656860000000 1.0
C      1  0.4088680000000  0.5568980000000  0.5670790000000 1.0
C      1  0.5067530000000  0.4743920000000  0.4427110000000 1.0
C      1  0.4816870000000  0.5049480000000  0.4209000000000 1.0
C      1  0.5904110000000  0.4314200000000  0.4702360000000 1.0
C      1  0.4283440000000  0.5139920000000  0.5790530000000 1.0
C      1  0.4703170000000  0.5466180000000  0.5960590000000 1.0
C      1  0.5379010000000  0.4748130000000  0.5295970000000 1.0
C      1  0.5208230000000  0.5066040000000  0.4996220000000 1.0
C      1  0.5952530000000  0.5319890000000  0.5631150000000 1.0
C      1  0.4419450000000  0.5431880000000  0.4229630000000 1.0
C      1  0.5492630000000  0.5369060000000  0.4239780000000 1.0
C      1  0.6336200000000  0.5931710000000  0.5128660000000 1.0
C      1  0.5785650000000  0.5493320000000  0.5788100000000 1.0
C      1  0.5360960000000  0.4233410000000  0.4696010000000 1.0
C      1  0.4547470000000  0.5173980000000  0.5116130000000 1.0
C      1  0.4521080000000  0.5003980000000  0.4879070000000 1.0
C      1  0.5291770000000  0.4973420000000  0.4751780000000 1.0
C      1  0.5593670000000  0.4253490000000  0.5099580000000 1.0
C      1  0.4584270000000  0.4789050000000  0.3889830000000 1.0
C      1  0.4561510000000  0.3826430000000  0.5247430000000 1.0
C      1  0.4574990000000  0.4481940000000  0.5909650000000 1.0
C      1  0.5208440000000  0.5528540000000  0.5779490000000 1.0
END
