TITL C-627111-6168-283 8.4768825680191e-06 125000 -484.048272167653 0 0 80 (C1) n - 1
REM
REM in /home/nfs/bkarasulu/CARBON/AIRSS/Generating-Clusters/LCBOP/Only-C1/SD-CG/FIRE-CG
REM
REM
REM
REM
REM
REM ./C.cell (11c1c37f851c82e70ff6c80c92926a4b)
REM AIRSS Version 0.9.1 bugfix July 2018 build 013d7b7c2542+ Fri, 06 Jul 2018 19:26:36 +0100
REM compiler GCC version 9.2.1 20190827 (Red Hat 9.2.1-1)
REM options -cpp -mtune=generic -march=x86-64 -g -O0 -fpre-include=/usr/include/finclude/math-vector-fortran.h
REM seed 860312533 -1634869299 -356351721 1549765459 -1884051139 1587003011 887712577 -1089548152 -1893071393 -2042417491 -1269701300 2145456617 1171571508 1986832255 1299437450 -463286502 -2118856334 -208804462 178307367 623812609 414496387 -898443767 -1262673681 609192214 210480898 -915789189 -717855712 1881260848 555907069 -857582604 -316124047 842662773 1917717809
REM
CELL 1.54180   50.00000   50.00000   50.00000   90.00000   90.00000   90.00000
LATT -1
SFAC C  
C      1  0.6448820000000  0.3958380000000  0.4615900000000 1.0
C      1  0.4267080000000  0.4664720000000  0.4604780000000 1.0
C      1  0.5526310000000  0.5437330000000  0.4431560000000 1.0
C      1  0.4841500000000  0.5213750000000  0.5211850000000 1.0
C      1  0.4066900000000  0.5061930000000  0.5586200000000 1.0
C      1  0.5121100000000  0.5231610000000  0.5180080000000 1.0
C      1  0.5202490000000  0.4414940000000  0.5765190000000 1.0
C      1  0.5303100000000  0.5441030000000  0.5145820000000 1.0
C      1  0.5309420000000  0.4674980000000  0.4090160000000 1.0
C      1  0.4624020000000  0.5566430000000  0.4440260000000 1.0
C      1  0.4899150000000  0.5934080000000  0.5293010000000 1.0
C      1  0.4717300000000  0.5965790000000  0.5098000000000 1.0
C      1  0.5524010000000  0.5647400000000  0.4640150000000 1.0
C      1  0.5233460000000  0.4894020000000  0.5855820000000 1.0
C      1  0.4727040000000  0.5171380000000  0.4098190000000 1.0
C      1  0.4692310000000  0.5047770000000  0.5040870000000 1.0
C      1  0.5320120000000  0.5465360000000  0.4232480000000 1.0
C      1  0.4367740000000  0.4882500000000  0.4733300000000 1.0
C      1  0.4720030000000  0.5254950000000  0.5468710000000 1.0
C      1  0.5542830000000  0.4890820000000  0.4445530000000 1.0
C      1  0.4753970000000  0.4175820000000  0.5646740000000 1.0
C      1  0.5770450000000  0.5755470000000  0.4734180000000 1.0
C      1  0.5139230000000  0.5800270000000  0.5356720000000 1.0
C      1  0.4205780000000  0.5103080000000  0.4820910000000 1.0
C      1  0.4862370000000  0.4935810000000  0.4071080000000 1.0
C      1  0.5283220000000  0.5740370000000  0.4803900000000 1.0
C      1  0.4953220000000  0.4490200000000  0.5159180000000 1.0
C      1  0.5593420000000  0.5851930000000  0.5162700000000 1.0
C      1  0.5290070000000  0.4998910000000  0.5127080000000 1.0
C      1  0.5180840000000  0.5607880000000  0.5577140000000 1.0
C      1  0.4091670000000  0.4954930000000  0.5303080000000 1.0
C      1  0.6000150000000  0.4177370000000  0.4780300000000 1.0
C      1  0.5485150000000  0.4705550000000  0.5478950000000 1.0
C      1  0.5059840000000  0.5382330000000  0.4606860000000 1.0
C      1  0.4641170000000  0.4917840000000  0.4794940000000 1.0
C      1  0.5628730000000  0.4508890000000  0.5340100000000 1.0
C      1  0.4536360000000  0.4183190000000  0.5491940000000 1.0
C      1  0.5590200000000  0.4418430000000  0.4407600000000 1.0
C      1  0.5284310000000  0.4310020000000  0.4786220000000 1.0
C      1  0.5061100000000  0.5408810000000  0.4321070000000 1.0
C      1  0.5760410000000  0.4295760000000  0.4859480000000 1.0
C      1  0.4992710000000  0.4250790000000  0.5741000000000 1.0
C      1  0.5322650000000  0.4820080000000  0.4619840000000 1.0
C      1  0.6226410000000  0.4066900000000  0.4697880000000 1.0
C      1  0.5089780000000  0.5128150000000  0.5770890000000 1.0
C      1  0.4785660000000  0.5408520000000  0.4245840000000 1.0
C      1  0.3914030000000  0.4863690000000  0.5727160000000 1.0
C      1  0.3894960000000  0.4634310000000  0.5574680000000 1.0
C      1  0.4351860000000  0.4028310000000  0.5076870000000 1.0
C      1  0.5095150000000  0.4372570000000  0.4965330000000 1.0
C      1  0.5540410000000  0.4661840000000  0.4264200000000 1.0
C      1  0.4200490000000  0.5323100000000  0.4643420000000 1.0
C      1  0.4796600000000  0.4798810000000  0.5564860000000 1.0
C      1  0.5328940000000  0.4662070000000  0.5717770000000 1.0
C      1  0.4177860000000  0.5141720000000  0.5102920000000 1.0
C      1  0.4320720000000  0.5365060000000  0.5215740000000 1.0
C      1  0.5457240000000  0.4961430000000  0.5356020000000 1.0
C      1  0.4359770000000  0.5482980000000  0.4498650000000 1.0
C      1  0.4847120000000  0.4629010000000  0.5362280000000 1.0
C      1  0.4835340000000  0.5068860000000  0.5651500000000 1.0
C      1  0.4263350000000  0.5248860000000  0.5664510000000 1.0
C      1  0.5481020000000  0.5200080000000  0.5521500000000 1.0
C      1  0.4210580000000  0.4454760000000  0.5244480000000 1.0
C      1  0.5058320000000  0.4768940000000  0.4193520000000 1.0
C      1  0.5270750000000  0.4980570000000  0.4846320000000 1.0
C      1  0.5624590000000  0.5165180000000  0.4447740000000 1.0
C      1  0.5029490000000  0.5640730000000  0.4712700000000 1.0
C      1  0.4449510000000  0.5342490000000  0.5471120000000 1.0
C      1  0.4867820000000  0.4929640000000  0.4631220000000 1.0
C      1  0.4365660000000  0.4221310000000  0.5270780000000 1.0
C      1  0.4046060000000  0.4663550000000  0.5327610000000 1.0
C      1  0.4762450000000  0.5730260000000  0.4649310000000 1.0
C      1  0.5798170000000  0.5854210000000  0.4984970000000 1.0
C      1  0.5258540000000  0.5337050000000  0.5652800000000 1.0
C      1  0.5058300000000  0.4770330000000  0.4481010000000 1.0
C      1  0.5322180000000  0.5734220000000  0.5117400000000 1.0
C      1  0.5048940000000  0.5139510000000  0.4733780000000 1.0
C      1  0.4650260000000  0.5897370000000  0.4846400000000 1.0
C      1  0.5544250000000  0.4324520000000  0.4673890000000 1.0
C      1  0.5725710000000  0.4386240000000  0.5124100000000 1.0
END
