TITL C-627109-622-357 0.4557297152247 125000 -597.795511022644 0 0 98 (C1) n - 1
REM
REM in /home/nfs/bkarasulu/CARBON/AIRSS/Generating-Clusters/LCBOP/Only-C1/SD-CG/FIRE-CG
REM
REM
REM
REM
REM
REM ./C.cell (11c1c37f851c82e70ff6c80c92926a4b)
REM AIRSS Version 0.9.1 bugfix July 2018 build 013d7b7c2542+ Fri, 06 Jul 2018 19:26:36 +0100
REM compiler GCC version 9.2.1 20190827 (Red Hat 9.2.1-1)
REM options -cpp -mtune=generic -march=x86-64 -g -O0 -fpre-include=/usr/include/finclude/math-vector-fortran.h
REM seed 2103226275 -977442286 387067494 -329646294 -1280626575 -317887053 -1206756787 -1642636969 -6861232 457964061 -420304206 1771543825 344938366 -1634910520 1888578640 1577527151 393906312 -1884413762 503291633 2076821058 294692826 -1281060390 195306906 1354549948 -419030331 1636173952 -1968690856 467354750 -1357424191 -1544521448 1381176583 -1300747984 -1373732642
REM
CELL 1.54180   50.00000   50.00000   50.00000   90.00000   90.00000   90.00000
LATT -1
SFAC C  
C      1  0.5149860000000  0.4756780000000  0.5901880000000 1.0
C      1  0.4877590000000  0.4680870000000  0.5264160000000 1.0
C      1  0.5125130000000  0.5422330000000  0.4682880000000 1.0
C      1  0.4137970000000  0.3784620000000  0.5012440000000 1.0
C      1  0.5427980000000  0.6078230000000  0.5003900000000 1.0
C      1  0.4982680000000  0.5511740000000  0.5145550000000 1.0
C      1  0.4572620000000  0.5797740000000  0.4572070000000 1.0
C      1  0.4871610000000  0.5120580000000  0.5741710000000 1.0
C      1  0.5486390000000  0.5803380000000  0.5510480000000 1.0
C      1  0.5682760000000  0.5194090000000  0.4125570000000 1.0
C      1  0.5775990000000  0.5014820000000  0.5095150000000 1.0
C      1  0.4454950000000  0.4896420000000  0.5676610000000 1.0
C      1  0.5425200000000  0.5247840000000  0.4074040000000 1.0
C      1  0.4469360000000  0.5666530000000  0.4798670000000 1.0
C      1  0.4388620000000  0.4571380000000  0.5354410000000 1.0
C      1  0.5881930000000  0.5102110000000  0.4566520000000 1.0
C      1  0.4276380000000  0.5138680000000  0.4212650000000 1.0
C      1  0.4246540000000  0.4761810000000  0.5535570000000 1.0
C      1  0.4749110000000  0.5807850000000  0.5426490000000 1.0
C      1  0.5258540000000  0.6181050000000  0.5184170000000 1.0
C      1  0.4194060000000  0.4012020000000  0.4871350000000 1.0
C      1  0.5720300000000  0.5647710000000  0.5480780000000 1.0
C      1  0.4672800000000  0.6051650000000  0.4601410000000 1.0
C      1  0.3712640000000  0.3532730000000  0.4166250000000 1.0
C      1  0.5782240000000  0.5513280000000  0.5229880000000 1.0
C      1  0.5598120000000  0.4295060000000  0.5271610000000 1.0
C      1  0.5289580000000  0.4601830000000  0.3992290000000 1.0
C      1  0.5939620000000  0.4583500000000  0.5469460000000 1.0
C      1  0.4672210000000  0.4687120000000  0.5704890000000 1.0
C      1  0.3975480000000  0.4816160000000  0.5486110000000 1.0
C      1  0.4773560000000  0.4554190000000  0.4497850000000 1.0
C      1  0.3843900000000  0.5013830000000  0.3941350000000 1.0
C      1  0.5106580000000  0.6131470000000  0.5400680000000 1.0
C      1  0.4499000000000  0.5812350000000  0.4094200000000 1.0
C      1  0.5147980000000  0.4602650000000  0.5224470000000 1.0
C      1  0.4245830000000  0.4253220000000  0.5003350000000 1.0
C      1  0.5348660000000  0.4745570000000  0.5075750000000 1.0
C      1  0.5128980000000  0.5231760000000  0.5834830000000 1.0
C      1  0.5320800000000  0.4995650000000  0.4626740000000 1.0
C      1  0.4927960000000  0.5346720000000  0.4166480000000 1.0
C      1  0.6390950000000  0.5079100000000  0.4057400000000 1.0
C      1  0.4166740000000  0.4922290000000  0.4873760000000 1.0
C      1  0.4618740000000  0.5123860000000  0.5572180000000 1.0
C      1  0.5743820000000  0.4541600000000  0.5272790000000 1.0
C      1  0.4676310000000  0.5405480000000  0.4282750000000 1.0
C      1  0.4058730000000  0.5076560000000  0.4075030000000 1.0
C      1  0.4891830000000  0.4826750000000  0.5813370000000 1.0
C      1  0.5749820000000  0.5461340000000  0.5699710000000 1.0
C      1  0.5349380000000  0.4204810000000  0.4813510000000 1.0
C      1  0.5256820000000  0.4500580000000  0.5882720000000 1.0
C      1  0.5863190000000  0.5056680000000  0.4828820000000 1.0
C      1  0.5593660000000  0.5881930000000  0.4928210000000 1.0
C      1  0.5173370000000  0.4554970000000  0.4220780000000 1.0
C      1  0.5828860000000  0.5207530000000  0.5582080000000 1.0
C      1  0.4829570000000  0.4948660000000  0.5168390000000 1.0
C      1  0.4672500000000  0.4570640000000  0.5432350000000 1.0
C      1  0.4573650000000  0.4366950000000  0.4441140000000 1.0
C      1  0.4520400000000  0.5535610000000  0.5041980000000 1.0
C      1  0.4475680000000  0.5253330000000  0.5070360000000 1.0
C      1  0.4389930000000  0.5091330000000  0.4844780000000 1.0
C      1  0.4733060000000  0.5636020000000  0.5203520000000 1.0
C      1  0.5211210000000  0.5679610000000  0.5568330000000 1.0
C      1  0.5313220000000  0.5239050000000  0.5358620000000 1.0
C      1  0.5302380000000  0.5000760000000  0.5916480000000 1.0
C      1  0.3873000000000  0.3688380000000  0.4300490000000 1.0
C      1  0.5237980000000  0.5236670000000  0.4504250000000 1.0
C      1  0.4628490000000  0.5121290000000  0.5279830000000 1.0
C      1  0.4246640000000  0.4506530000000  0.5116420000000 1.0
C      1  0.3877250000000  0.4786540000000  0.5234150000000 1.0
C      1  0.4035750000000  0.3846050000000  0.4437760000000 1.0
C      1  0.5193190000000  0.5274970000000  0.4228550000000 1.0
C      1  0.5003100000000  0.5896410000000  0.5524230000000 1.0
C      1  0.5820930000000  0.5225270000000  0.5286760000000 1.0
C      1  0.5044480000000  0.4476590000000  0.4456350000000 1.0
C      1  0.4699260000000  0.4811690000000  0.4581000000000 1.0
C      1  0.5581300000000  0.4977200000000  0.5914970000000 1.0
C      1  0.5951300000000  0.4750260000000  0.5678800000000 1.0
C      1  0.5504650000000  0.4188700000000  0.5029650000000 1.0
C      1  0.6156510000000  0.5105800000000  0.4168060000000 1.0
C      1  0.4064920000000  0.4715380000000  0.5032050000000 1.0
C      1  0.5625600000000  0.4770360000000  0.5146370000000 1.0
C      1  0.4545310000000  0.5046760000000  0.4606310000000 1.0
C      1  0.5007670000000  0.5063200000000  0.4979130000000 1.0
C      1  0.5905240000000  0.5134270000000  0.4287500000000 1.0
C      1  0.4500770000000  0.5198280000000  0.4369080000000 1.0
C      1  0.5259000000000  0.5489540000000  0.5812330000000 1.0
C      1  0.5179500000000  0.4311340000000  0.4638450000000 1.0
C      1  0.5234170000000  0.4916670000000  0.4882160000000 1.0
C      1  0.5805210000000  0.4979120000000  0.5744970000000 1.0
C      1  0.4584220000000  0.5673640000000  0.4315140000000 1.0
C      1  0.5173700000000  0.5473930000000  0.5348150000000 1.0
C      1  0.4389080000000  0.4178240000000  0.4461250000000 1.0
C      1  0.5489580000000  0.4216870000000  0.5519430000000 1.0
C      1  0.5729180000000  0.5660960000000  0.4998030000000 1.0
C      1  0.5539610000000  0.5488320000000  0.5891010000000 1.0
C      1  0.5370270000000  0.4304960000000  0.5741500000000 1.0
C      1  0.4205600000000  0.4009220000000  0.4587030000000 1.0
C      1  0.5012210000000  0.5343880000000  0.4925130000000 1.0
END
