TITL C-627112-676-1303 4740.79473478764 125000 -181.752292344223 0 0 32 (C1) n - 1
REM
REM in /home/nfs/bkarasulu/CARBON/AIRSS/Generating-Clusters/LCBOP/Only-C1/SD-CG/FIRE-CG
REM
REM
REM
REM
REM
REM ./C.cell (11c1c37f851c82e70ff6c80c92926a4b)
REM AIRSS Version 0.9.1 bugfix July 2018 build 013d7b7c2542+ Fri, 06 Jul 2018 19:26:36 +0100
REM compiler GCC version 9.2.1 20190827 (Red Hat 9.2.1-1)
REM options -cpp -mtune=generic -march=x86-64 -g -O0 -fpre-include=/usr/include/finclude/math-vector-fortran.h
REM seed 371889811 -1592438997 1670390558 -1845086706 -1314272764 -1529689091 -516346328 -188212597 44440014 630343313 449219973 1342512952 -2043858592 -1866271379 205505382 1565234398 1033771645 1560753579 -1899840981 2108048989 -869251016 -1770937967 -1796251122 403830253 -21767946 -631229899 2103448374 2053185604 1022640435 1938506357 1618856731 -297256066 1994735206
REM
CELL 1.54180   50.00000   50.00000   50.00000   90.00000   90.00000   90.00000
LATT -1
SFAC C  
C      1  0.4363120000000  0.5856010000000  0.5139060000000 1.0
C      1  0.6452490000000  0.5935300000000  0.5132170000000 1.0
C      1  0.5747880000000  0.5571630000000  0.5189160000000 1.0
C      1  0.3924460000000  0.3763100000000  0.4076690000000 1.0
C      1  0.3745400000000  0.3411710000000  0.3729000000000 1.0
C      1  0.4801030000000  0.5284810000000  0.5194070000000 1.0
C      1  0.4390720000000  0.4666440000000  0.4948000000000 1.0
C      1  0.5268760000000  0.4780190000000  0.5451630000000 1.0
C      1  0.6922950000000  0.6175310000000  0.5087150000000 1.0
C      1  0.4446390000000  0.5609090000000  0.5134710000000 1.0
C      1  0.4646580000000  0.4640770000000  0.5057800000000 1.0
C      1  0.5050670000000  0.5164800000000  0.5232210000000 1.0
C      1  0.4294070000000  0.4475040000000  0.4769340000000 1.0
C      1  0.3834060000000  0.3585940000000  0.3901480000000 1.0
C      1  0.4200160000000  0.4296230000000  0.4597980000000 1.0
C      1  0.5231010000000  0.4784800000000  0.5728600000000 1.0
C      1  0.4535580000000  0.5344520000000  0.5130110000000 1.0
C      1  0.5190870000000  0.4794460000000  0.5985920000000 1.0
C      1  0.6687660000000  0.6055400000000  0.5109980000000 1.0
C      1  0.4107050000000  0.4118150000000  0.4425240000000 1.0
C      1  0.5497690000000  0.4676340000000  0.5343650000000 1.0
C      1  0.5514120000000  0.5447670000000  0.5203590000000 1.0
C      1  0.5283550000000  0.5317940000000  0.5216160000000 1.0
C      1  0.4232520000000  0.4893050000000  0.5017000000000 1.0
C      1  0.3961130000000  0.4870900000000  0.5043760000000 1.0
C      1  0.4015280000000  0.3940500000000  0.4251340000000 1.0
C      1  0.5065690000000  0.4885090000000  0.5283040000000 1.0
C      1  0.5982460000000  0.5693720000000  0.5172200000000 1.0
C      1  0.7154400000000  0.6293130000000  0.5064480000000 1.0
C      1  0.4875100000000  0.4714780000000  0.5169870000000 1.0
C      1  0.6217390000000  0.5814820000000  0.5153080000000 1.0
C      1  0.4359760000000  0.5138360000000  0.5061530000000 1.0
END
