TITL C-627108-131-1241 -6.80365754505829e-07 125000 -995.838310014458 0 0 163 (C1) n - 1
REM
REM in /home/nfs/bkarasulu/CARBON/AIRSS/Generating-Clusters/LCBOP/Only-C1/SD-CG/FIRE-CG
REM
REM
REM
REM
REM
REM ./C.cell (11c1c37f851c82e70ff6c80c92926a4b)
REM AIRSS Version 0.9.1 bugfix July 2018 build 013d7b7c2542+ Fri, 06 Jul 2018 19:26:36 +0100
REM compiler GCC version 9.2.1 20190827 (Red Hat 9.2.1-1)
REM options -cpp -mtune=generic -march=x86-64 -g -O0 -fpre-include=/usr/include/finclude/math-vector-fortran.h
REM seed -940264559 1636119149 -1110165006 202571815 79124629 290350106 -1438173292 1680145834 1844489344 -158945262 1391326465 -2012045598 1720272146 720788120 -1289674297 -1757010923 -689322811 -833784172 604559237 1905345307 859256823 1688682166 1693222719 1735563352 1874417984 983308885 1521475145 914606162 -105873597 1173963193 -1500407857 -1574854919 1100779800
REM
CELL 1.54180   50.00000   50.00000   50.00000   90.00000   90.00000   90.00000
LATT -1
SFAC C  
C      1  0.5164830000000  0.4362880000000  0.4455980000000 1.0
C      1  0.5612310000000  0.3941210000000  0.4185340000000 1.0
C      1  0.4219280000000  0.4748720000000  0.4803670000000 1.0
C      1  0.4123330000000  0.3783070000000  0.5471460000000 1.0
C      1  0.5761060000000  0.4351390000000  0.4980040000000 1.0
C      1  0.5200340000000  0.4595250000000  0.5475010000000 1.0
C      1  0.5799550000000  0.4689890000000  0.5663080000000 1.0
C      1  0.4583760000000  0.4862150000000  0.5577860000000 1.0
C      1  0.4362530000000  0.5200420000000  0.5954350000000 1.0
C      1  0.4758410000000  0.5466070000000  0.5451590000000 1.0
C      1  0.5531210000000  0.4810340000000  0.5204350000000 1.0
C      1  0.5258420000000  0.4510820000000  0.3961100000000 1.0
C      1  0.4453590000000  0.5346680000000  0.5051670000000 1.0
C      1  0.4846570000000  0.5080220000000  0.4967610000000 1.0
C      1  0.5051770000000  0.5140310000000  0.5148550000000 1.0
C      1  0.5360250000000  0.3876800000000  0.5003330000000 1.0
C      1  0.5149320000000  0.4449520000000  0.5015860000000 1.0
C      1  0.4914780000000  0.4529590000000  0.5390240000000 1.0
C      1  0.4809470000000  0.3956000000000  0.4922630000000 1.0
C      1  0.4204830000000  0.4638270000000  0.5298240000000 1.0
C      1  0.4298640000000  0.5117910000000  0.4320930000000 1.0
C      1  0.5535500000000  0.5856660000000  0.5251970000000 1.0
C      1  0.4979130000000  0.5022350000000  0.5409940000000 1.0
C      1  0.5714330000000  0.4850980000000  0.4563190000000 1.0
C      1  0.5080880000000  0.4666670000000  0.5925240000000 1.0
C      1  0.4691190000000  0.5708330000000  0.5577720000000 1.0
C      1  0.4136420000000  0.4285800000000  0.4954240000000 1.0
C      1  0.6044930000000  0.5370930000000  0.4940520000000 1.0
C      1  0.4207420000000  0.3922380000000  0.5267900000000 1.0
C      1  0.4940980000000  0.4048680000000  0.5161750000000 1.0
C      1  0.4160160000000  0.5734230000000  0.5589950000000 1.0
C      1  0.4843310000000  0.6084380000000  0.5128990000000 1.0
C      1  0.4841760000000  0.5394780000000  0.6036390000000 1.0
C      1  0.4794400000000  0.4583500000000  0.5913970000000 1.0
C      1  0.5217690000000  0.4890050000000  0.5509750000000 1.0
C      1  0.5172620000000  0.4996810000000  0.4608000000000 1.0
C      1  0.4187570000000  0.5516940000000  0.4662760000000 1.0
C      1  0.4383170000000  0.5044520000000  0.5505550000000 1.0
C      1  0.5339140000000  0.6057690000000  0.5198090000000 1.0
C      1  0.4786790000000  0.4531770000000  0.4693950000000 1.0
C      1  0.4703510000000  0.5781150000000  0.5850790000000 1.0
C      1  0.5481320000000  0.5394790000000  0.5661100000000 1.0
C      1  0.5686700000000  0.4738870000000  0.4067130000000 1.0
C      1  0.5425650000000  0.5668610000000  0.5687400000000 1.0
C      1  0.4598620000000  0.5370300000000  0.4026140000000 1.0
C      1  0.5717950000000  0.4247880000000  0.5239250000000 1.0
C      1  0.5601550000000  0.5833230000000  0.5530520000000 1.0
C      1  0.4601810000000  0.4789500000000  0.5858530000000 1.0
C      1  0.5818480000000  0.5958370000000  0.5639220000000 1.0
C      1  0.3952570000000  0.4897580000000  0.5603870000000 1.0
C      1  0.5529910000000  0.5511790000000  0.4065310000000 1.0
C      1  0.4374470000000  0.5373820000000  0.4208560000000 1.0
C      1  0.4957190000000  0.4182270000000  0.4316660000000 1.0
C      1  0.4126320000000  0.5828380000000  0.5302620000000 1.0
C      1  0.4336080000000  0.5824880000000  0.5097500000000 1.0
C      1  0.5568630000000  0.4389450000000  0.4767320000000 1.0
C      1  0.5095820000000  0.5142900000000  0.4012110000000 1.0
C      1  0.3693250000000  0.4963990000000  0.5632770000000 1.0
C      1  0.6137630000000  0.5324560000000  0.4415250000000 1.0
C      1  0.4680090000000  0.4327860000000  0.5843110000000 1.0
C      1  0.4849950000000  0.5286490000000  0.3956560000000 1.0
C      1  0.4535980000000  0.5410130000000  0.6063930000000 1.0
C      1  0.5651160000000  0.4270610000000  0.5500380000000 1.0
C      1  0.3910270000000  0.4230710000000  0.4808150000000 1.0
C      1  0.5525890000000  0.5277240000000  0.4745520000000 1.0
C      1  0.4787140000000  0.4787660000000  0.5404150000000 1.0
C      1  0.4137050000000  0.4745220000000  0.5784910000000 1.0
C      1  0.4501410000000  0.5021320000000  0.4499580000000 1.0
C      1  0.4582910000000  0.4458410000000  0.4541430000000 1.0
C      1  0.4954220000000  0.6025860000000  0.4662080000000 1.0
C      1  0.5359480000000  0.5270270000000  0.4065220000000 1.0
C      1  0.5047580000000  0.5849470000000  0.4138820000000 1.0
C      1  0.4531040000000  0.3983780000000  0.4916060000000 1.0
C      1  0.5520880000000  0.5239110000000  0.5892820000000 1.0
C      1  0.4772180000000  0.3729080000000  0.4306060000000 1.0
C      1  0.4780740000000  0.5416240000000  0.4507700000000 1.0
C      1  0.6020720000000  0.4459610000000  0.4901170000000 1.0
C      1  0.5809980000000  0.5459680000000  0.4028200000000 1.0
C      1  0.5695730000000  0.5776270000000  0.4452240000000 1.0
C      1  0.4573560000000  0.5984880000000  0.5128610000000 1.0
C      1  0.6020950000000  0.5386090000000  0.4180650000000 1.0
C      1  0.5277590000000  0.3959690000000  0.4742590000000 1.0
C      1  0.4562910000000  0.5096310000000  0.4954830000000 1.0
C      1  0.5481670000000  0.5128780000000  0.4282000000000 1.0
C      1  0.4243950000000  0.4531200000000  0.5585500000000 1.0
C      1  0.5302710000000  0.4522830000000  0.5752110000000 1.0
C      1  0.5071960000000  0.5969110000000  0.5588550000000 1.0
C      1  0.4962750000000  0.4986570000000  0.4428510000000 1.0
C      1  0.5079040000000  0.4519810000000  0.4726370000000 1.0
C      1  0.5463450000000  0.4986490000000  0.5419840000000 1.0
C      1  0.4294930000000  0.4066490000000  0.5044130000000 1.0
C      1  0.4438560000000  0.4346900000000  0.5686910000000 1.0
C      1  0.5154790000000  0.6383260000000  0.4904330000000 1.0
C      1  0.4464530000000  0.5694160000000  0.5988170000000 1.0
C      1  0.4345990000000  0.4896750000000  0.5959690000000 1.0
C      1  0.5114370000000  0.4962380000000  0.5967650000000 1.0
C      1  0.5375550000000  0.5057180000000  0.6027610000000 1.0
C      1  0.4234990000000  0.5798720000000  0.5855480000000 1.0
C      1  0.5481810000000  0.5704150000000  0.4279130000000 1.0
C      1  0.6115790000000  0.5200440000000  0.5174820000000 1.0
C      1  0.5069310000000  0.6034020000000  0.5313660000000 1.0
C      1  0.6083020000000  0.4906390000000  0.5232770000000 1.0
C      1  0.5397160000000  0.5472750000000  0.4944470000000 1.0
C      1  0.6074310000000  0.4349360000000  0.4640600000000 1.0
C      1  0.4898690000000  0.3932750000000  0.4434720000000 1.0
C      1  0.4935140000000  0.6203430000000  0.4878930000000 1.0
C      1  0.5372350000000  0.6290180000000  0.5039460000000 1.0
C      1  0.4554450000000  0.4354210000000  0.4071760000000 1.0
C      1  0.5146020000000  0.5619260000000  0.4835300000000 1.0
C      1  0.3906940000000  0.5650490000000  0.5211130000000 1.0
C      1  0.4953350000000  0.5660980000000  0.5949240000000 1.0
C      1  0.5054120000000  0.4891350000000  0.4177030000000 1.0
C      1  0.4936540000000  0.5179950000000  0.5872140000000 1.0
C      1  0.4294620000000  0.5257730000000  0.5676950000000 1.0
C      1  0.5856200000000  0.5742740000000  0.4666300000000 1.0
C      1  0.5653420000000  0.4105030000000  0.4399840000000 1.0
C      1  0.5035760000000  0.4350530000000  0.3875230000000 1.0
C      1  0.4145210000000  0.4936180000000  0.5351630000000 1.0
C      1  0.4071110000000  0.4770930000000  0.4547900000000 1.0
C      1  0.5120860000000  0.5800880000000  0.4612250000000 1.0
C      1  0.6156640000000  0.5305180000000  0.4683400000000 1.0
C      1  0.5614020000000  0.5654610000000  0.5060250000000 1.0
C      1  0.4884330000000  0.5238170000000  0.5589400000000 1.0
C      1  0.5712920000000  0.5054960000000  0.4775840000000 1.0
C      1  0.4945340000000  0.4329560000000  0.5187100000000 1.0
C      1  0.5264340000000  0.4750510000000  0.4694910000000 1.0
C      1  0.5454630000000  0.5267600000000  0.5407110000000 1.0
C      1  0.4303470000000  0.5580520000000  0.4401890000000 1.0
C      1  0.4423700000000  0.4456100000000  0.4309760000000 1.0
C      1  0.5596700000000  0.4481100000000  0.5690590000000 1.0
C      1  0.4789330000000  0.4089340000000  0.5917240000000 1.0
C      1  0.5169510000000  0.4626860000000  0.4204100000000 1.0
C      1  0.4118930000000  0.5446040000000  0.5562390000000 1.0
C      1  0.4319150000000  0.5577410000000  0.4919820000000 1.0
C      1  0.5699800000000  0.4928170000000  0.5022810000000 1.0
C      1  0.5216420000000  0.5779220000000  0.4344210000000 1.0
C      1  0.5363510000000  0.5188490000000  0.4534530000000 1.0
C      1  0.4195130000000  0.4558170000000  0.5021170000000 1.0
C      1  0.3982430000000  0.5390340000000  0.5308070000000 1.0
C      1  0.5186650000000  0.3910370000000  0.5212630000000 1.0
C      1  0.5669990000000  0.4915810000000  0.4288000000000 1.0
C      1  0.4000160000000  0.5289810000000  0.4635090000000 1.0
C      1  0.5421040000000  0.4187050000000  0.4582340000000 1.0
C      1  0.5970150000000  0.4820330000000  0.5491120000000 1.0
C      1  0.5532370000000  0.4655690000000  0.4669120000000 1.0
C      1  0.4905190000000  0.5576930000000  0.4992210000000 1.0
C      1  0.5344560000000  0.4582500000000  0.5194350000000 1.0
C      1  0.4434920000000  0.4936720000000  0.4767000000000 1.0
C      1  0.6120930000000  0.4689690000000  0.5041000000000 1.0
C      1  0.5527930000000  0.4579150000000  0.3913560000000 1.0
C      1  0.4409580000000  0.4325840000000  0.3840190000000 1.0
C      1  0.4705380000000  0.5471980000000  0.5171680000000 1.0
C      1  0.5284670000000  0.5312920000000  0.5173690000000 1.0
C      1  0.5864810000000  0.5610010000000  0.4922050000000 1.0
C      1  0.5913390000000  0.4209640000000  0.4469040000000 1.0
C      1  0.6238580000000  0.5341710000000  0.5381820000000 1.0
C      1  0.4097560000000  0.5172210000000  0.5175790000000 1.0
C      1  0.4050310000000  0.5056320000000  0.4466300000000 1.0
C      1  0.4835570000000  0.4278530000000  0.4072870000000 1.0
C      1  0.4747560000000  0.5148250000000  0.4471390000000 1.0
C      1  0.4989950000000  0.3915690000000  0.4700250000000 1.0
C      1  0.4166190000000  0.4580060000000  0.4349350000000 1.0
C      1  0.5168330000000  0.5766790000000  0.5772890000000 1.0
END
