TITL C-627109-622-894 -0.0002710046531565 125000 -934.418323390153 0 0 152 (C1) n - 1
REM
REM in /home/nfs/bkarasulu/CARBON/AIRSS/Generating-Clusters/LCBOP/Only-C1/SD-CG/FIRE-CG
REM
REM
REM
REM
REM
REM ./C.cell (11c1c37f851c82e70ff6c80c92926a4b)
REM AIRSS Version 0.9.1 bugfix July 2018 build 013d7b7c2542+ Fri, 06 Jul 2018 19:26:36 +0100
REM compiler GCC version 9.2.1 20190827 (Red Hat 9.2.1-1)
REM options -cpp -mtune=generic -march=x86-64 -g -O0 -fpre-include=/usr/include/finclude/math-vector-fortran.h
REM seed 365062704 -595318107 1666777845 1337977218 -702941281 -1436913717 906013227 1743186915 -1245364284 -137157826 -2141254281 1802847354 1387639031 1175541509 368999326 -896068815 598566439 1540392544 798697617 694492740 -1016522010 -2008337931 359606023 -1646375064 -418299357 -276746013 663055487 -918974521 -215427512 1264927058 -1522981446 -2412292 1307283660
REM
CELL 1.54180   50.00000   50.00000   50.00000   90.00000   90.00000   90.00000
LATT -1
SFAC C  
C      1  0.4851050000000  0.4961730000000  0.5475750000000 1.0
C      1  0.4686530000000  0.6191400000000  0.4820130000000 1.0
C      1  0.5697230000000  0.5867500000000  0.4594610000000 1.0
C      1  0.4601630000000  0.4992090000000  0.4202400000000 1.0
C      1  0.5928250000000  0.4331510000000  0.4664340000000 1.0
C      1  0.4951210000000  0.5999580000000  0.4228310000000 1.0
C      1  0.5509690000000  0.3920490000000  0.4849020000000 1.0
C      1  0.5504050000000  0.5513220000000  0.5741220000000 1.0
C      1  0.5548240000000  0.5511910000000  0.4241610000000 1.0
C      1  0.4713080000000  0.5231710000000  0.5102780000000 1.0
C      1  0.5209310000000  0.4887940000000  0.4903690000000 1.0
C      1  0.4567800000000  0.4320260000000  0.5720340000000 1.0
C      1  0.5935020000000  0.5133090000000  0.4568910000000 1.0
C      1  0.6146390000000  0.5275350000000  0.4623610000000 1.0
C      1  0.4527120000000  0.3408480000000  0.4486930000000 1.0
C      1  0.5621990000000  0.4906850000000  0.5430340000000 1.0
C      1  0.5281540000000  0.4818060000000  0.6224850000000 1.0
C      1  0.5099590000000  0.4831530000000  0.4266310000000 1.0
C      1  0.4481820000000  0.6134210000000  0.5013030000000 1.0
C      1  0.5192660000000  0.4407940000000  0.5589430000000 1.0
C      1  0.4198000000000  0.5310900000000  0.5403610000000 1.0
C      1  0.4992760000000  0.5761480000000  0.4079970000000 1.0
C      1  0.5279740000000  0.5824270000000  0.4809320000000 1.0
C      1  0.5661580000000  0.4750430000000  0.4716100000000 1.0
C      1  0.4720300000000  0.5589450000000  0.6049740000000 1.0
C      1  0.5324950000000  0.5118190000000  0.4815640000000 1.0
C      1  0.4801040000000  0.5815120000000  0.5905460000000 1.0
C      1  0.5098770000000  0.4710660000000  0.4728380000000 1.0
C      1  0.4336350000000  0.5822890000000  0.5397960000000 1.0
C      1  0.4671590000000  0.4069320000000  0.5784200000000 1.0
C      1  0.5468330000000  0.6087150000000  0.5305610000000 1.0
C      1  0.5524560000000  0.5018420000000  0.4310910000000 1.0
C      1  0.4884000000000  0.4230960000000  0.5198870000000 1.0
C      1  0.5256300000000  0.4789620000000  0.5157710000000 1.0
C      1  0.5405570000000  0.5655640000000  0.5966350000000 1.0
C      1  0.4033620000000  0.3941260000000  0.4276670000000 1.0
C      1  0.5234770000000  0.4473780000000  0.4685620000000 1.0
C      1  0.5074540000000  0.4256400000000  0.4622090000000 1.0
C      1  0.4669180000000  0.4342330000000  0.4435340000000 1.0
C      1  0.5056880000000  0.3737890000000  0.5683170000000 1.0
C      1  0.4962900000000  0.5019820000000  0.5735700000000 1.0
C      1  0.4967020000000  0.5523120000000  0.4607240000000 1.0
C      1  0.5368870000000  0.3715510000000  0.4987590000000 1.0
C      1  0.5932550000000  0.5309160000000  0.5674290000000 1.0
C      1  0.5045200000000  0.5704590000000  0.5226590000000 1.0
C      1  0.5142310000000  0.6151090000000  0.4375330000000 1.0
C      1  0.6049100000000  0.5050800000000  0.5663950000000 1.0
C      1  0.5378390000000  0.4780570000000  0.4236360000000 1.0
C      1  0.5712180000000  0.4644940000000  0.4991290000000 1.0
C      1  0.4336170000000  0.5889730000000  0.4940620000000 1.0
C      1  0.4846060000000  0.3869060000000  0.5778090000000 1.0
C      1  0.5494870000000  0.4538960000000  0.4617450000000 1.0
C      1  0.4386960000000  0.5332830000000  0.4039990000000 1.0
C      1  0.4751400000000  0.4927630000000  0.3972230000000 1.0
C      1  0.5645950000000  0.4129880000000  0.4987860000000 1.0
C      1  0.4466260000000  0.5450270000000  0.6000140000000 1.0
C      1  0.5541530000000  0.5933690000000  0.4819890000000 1.0
C      1  0.4546010000000  0.5926280000000  0.5524960000000 1.0
C      1  0.3812710000000  0.4677650000000  0.4815390000000 1.0
C      1  0.5077100000000  0.5920820000000  0.4982800000000 1.0
C      1  0.4733680000000  0.4458980000000  0.3784930000000 1.0
C      1  0.4964460000000  0.6157500000000  0.4856110000000 1.0
C      1  0.5495240000000  0.4535780000000  0.4155510000000 1.0
C      1  0.4858010000000  0.4230160000000  0.4227380000000 1.0
C      1  0.4301460000000  0.3511580000000  0.4392620000000 1.0
C      1  0.4206450000000  0.4423770000000  0.4316300000000 1.0
C      1  0.5670920000000  0.5706320000000  0.4380030000000 1.0
C      1  0.5013350000000  0.5001740000000  0.4053710000000 1.0
C      1  0.5584680000000  0.5252160000000  0.6116070000000 1.0
C      1  0.5765600000000  0.5446490000000  0.5210180000000 1.0
C      1  0.5415730000000  0.5073430000000  0.5558870000000 1.0
C      1  0.5486910000000  0.4992590000000  0.6187000000000 1.0
C      1  0.5367950000000  0.5366410000000  0.5539620000000 1.0
C      1  0.5840180000000  0.4290670000000  0.4408140000000 1.0
C      1  0.4700820000000  0.4724690000000  0.3789690000000 1.0
C      1  0.5948520000000  0.5470420000000  0.5431050000000 1.0
C      1  0.5047800000000  0.4684020000000  0.6187550000000 1.0
C      1  0.5128640000000  0.5269070000000  0.4065700000000 1.0
C      1  0.4639460000000  0.5095770000000  0.5345320000000 1.0
C      1  0.4316130000000  0.4490970000000  0.5264950000000 1.0
C      1  0.5023890000000  0.4801720000000  0.5316390000000 1.0
C      1  0.4581520000000  0.6065840000000  0.4573590000000 1.0
C      1  0.4408270000000  0.4744930000000  0.5844770000000 1.0
C      1  0.5139860000000  0.5415550000000  0.6276690000000 1.0
C      1  0.4135070000000  0.5031950000000  0.4754040000000 1.0
C      1  0.4929380000000  0.5489350000000  0.4013550000000 1.0
C      1  0.5224710000000  0.5567550000000  0.4715910000000 1.0
C      1  0.4217750000000  0.4648310000000  0.5070870000000 1.0
C      1  0.5397200000000  0.4086890000000  0.4340510000000 1.0
C      1  0.4832080000000  0.5491070000000  0.5143510000000 1.0
C      1  0.5876170000000  0.4867850000000  0.5541540000000 1.0
C      1  0.4375060000000  0.5092040000000  0.5449430000000 1.0
C      1  0.4137880000000  0.5268320000000  0.4917320000000 1.0
C      1  0.5708920000000  0.4972850000000  0.4535320000000 1.0
C      1  0.4800930000000  0.5897360000000  0.5636830000000 1.0
C      1  0.5206320000000  0.3539320000000  0.4841900000000 1.0
C      1  0.4260090000000  0.5715490000000  0.5146960000000 1.0
C      1  0.4425070000000  0.5845520000000  0.4672910000000 1.0
C      1  0.6149590000000  0.5657320000000  0.5413640000000 1.0
C      1  0.4693510000000  0.5234550000000  0.4344540000000 1.0
C      1  0.4220910000000  0.5496990000000  0.4439170000000 1.0
C      1  0.4057230000000  0.4784550000000  0.4880960000000 1.0
C      1  0.4794680000000  0.4273800000000  0.4692930000000 1.0
C      1  0.4839500000000  0.5149240000000  0.5953640000000 1.0
C      1  0.4686320000000  0.5074200000000  0.4862520000000 1.0
C      1  0.5247850000000  0.3688650000000  0.5505010000000 1.0
C      1  0.4227720000000  0.5516440000000  0.5871050000000 1.0
C      1  0.5262990000000  0.4633950000000  0.5717110000000 1.0
C      1  0.4638810000000  0.5431490000000  0.3960320000000 1.0
C      1  0.5388300000000  0.5380510000000  0.4850990000000 1.0
C      1  0.4707650000000  0.5462010000000  0.4511590000000 1.0
C      1  0.4456910000000  0.5599700000000  0.4552910000000 1.0
C      1  0.4453810000000  0.4533800000000  0.4393380000000 1.0
C      1  0.4232310000000  0.5020820000000  0.4476460000000 1.0
C      1  0.5114500000000  0.4154910000000  0.4351400000000 1.0
C      1  0.5267880000000  0.6245190000000  0.5713280000000 1.0
C      1  0.5257790000000  0.6076200000000  0.5497130000000 1.0
C      1  0.5120160000000  0.6248640000000  0.4629560000000 1.0
C      1  0.5593020000000  0.4287110000000  0.4256980000000 1.0
C      1  0.5719810000000  0.5347150000000  0.5860760000000 1.0
C      1  0.4111670000000  0.5443900000000  0.5638740000000 1.0
C      1  0.5539240000000  0.4753100000000  0.5205880000000 1.0
C      1  0.4821240000000  0.4587140000000  0.6073010000000 1.0
C      1  0.5299990000000  0.5507800000000  0.5299840000000 1.0
C      1  0.5233260000000  0.4918380000000  0.5720150000000 1.0
C      1  0.5403580000000  0.5270930000000  0.4197990000000 1.0
C      1  0.5032410000000  0.5895770000000  0.5469110000000 1.0
C      1  0.5799900000000  0.4362230000000  0.4925540000000 1.0
C      1  0.4124350000000  0.3695160000000  0.4318890000000 1.0
C      1  0.5595320000000  0.6056250000000  0.5069120000000 1.0
C      1  0.5058450000000  0.4278980000000  0.5396290000000 1.0
C      1  0.4229570000000  0.5256160000000  0.4287020000000 1.0
C      1  0.5364790000000  0.3698420000000  0.5266670000000 1.0
C      1  0.4749780000000  0.4243040000000  0.4966470000000 1.0
C      1  0.4059700000000  0.4205800000000  0.4275410000000 1.0
C      1  0.4552750000000  0.5173710000000  0.5980470000000 1.0
C      1  0.4600020000000  0.4544450000000  0.5896880000000 1.0
C      1  0.6295500000000  0.4990260000000  0.5760970000000 1.0
C      1  0.4923280000000  0.5385780000000  0.6104570000000 1.0
C      1  0.4768550000000  0.3384830000000  0.4594450000000 1.0
C      1  0.5501970000000  0.5458570000000  0.5100710000000 1.0
C      1  0.4183360000000  0.5436520000000  0.5143610000000 1.0
C      1  0.5001340000000  0.3431290000000  0.4712900000000 1.0
C      1  0.5484820000000  0.3928200000000  0.4564060000000 1.0
C      1  0.4688260000000  0.6061250000000  0.4315620000000 1.0
C      1  0.4805200000000  0.4265770000000  0.3955490000000 1.0
C      1  0.4951150000000  0.4817690000000  0.4519310000000 1.0
C      1  0.4694790000000  0.4897050000000  0.4635330000000 1.0
C      1  0.4314820000000  0.4904170000000  0.5650670000000 1.0
C      1  0.4475550000000  0.4835390000000  0.4430500000000 1.0
C      1  0.5399650000000  0.5474640000000  0.6191710000000 1.0
C      1  0.4427720000000  0.4368270000000  0.5476510000000 1.0
END
