TITL C-627108-131-838 -2.57803949000865e-07 125000 -864.108050497059 0 0 140 (C1) n - 1
REM
REM in /home/nfs/bkarasulu/CARBON/AIRSS/Generating-Clusters/LCBOP/Only-C1/SD-CG/FIRE-CG
REM
REM
REM
REM
REM
REM ./C.cell (11c1c37f851c82e70ff6c80c92926a4b)
REM AIRSS Version 0.9.1 bugfix July 2018 build 013d7b7c2542+ Fri, 06 Jul 2018 19:26:36 +0100
REM compiler GCC version 9.2.1 20190827 (Red Hat 9.2.1-1)
REM options -cpp -mtune=generic -march=x86-64 -g -O0 -fpre-include=/usr/include/finclude/math-vector-fortran.h
REM seed -274875749 2043732868 -358575243 -1627350372 -1549294250 177101235 -1503038785 -1140963756 1690604495 -963123391 -80103453 -566784366 -534475888 1163606323 1503771286 -810063203 -1106485728 -520593370 194770719 -666153001 -1234805292 -632761788 10681159 1757233133 -1396297234 -1003008718 -1096241940 -2049417600 1198913452 -1780028942 562383842 1772963647 717531968
REM
CELL 1.54180   50.00000   50.00000   50.00000   90.00000   90.00000   90.00000
LATT -1
SFAC C  
C      1  0.5460800000000  0.5012820000000  0.4509430000000 1.0
C      1  0.4732100000000  0.5135340000000  0.3630580000000 1.0
C      1  0.4535970000000  0.4166300000000  0.5067890000000 1.0
C      1  0.4365890000000  0.5563050000000  0.5503000000000 1.0
C      1  0.5467850000000  0.5805060000000  0.5382540000000 1.0
C      1  0.4933060000000  0.5550720000000  0.5003010000000 1.0
C      1  0.5020990000000  0.5748510000000  0.5386320000000 1.0
C      1  0.5684300000000  0.4658800000000  0.5893530000000 1.0
C      1  0.5923550000000  0.4864520000000  0.5542440000000 1.0
C      1  0.4747960000000  0.4900700000000  0.3777310000000 1.0
C      1  0.4691810000000  0.5026870000000  0.6243760000000 1.0
C      1  0.5454670000000  0.4806920000000  0.4319630000000 1.0
C      1  0.4686690000000  0.5332980000000  0.4139600000000 1.0
C      1  0.5276230000000  0.5177410000000  0.5127190000000 1.0
C      1  0.5020810000000  0.4845660000000  0.4679810000000 1.0
C      1  0.5118220000000  0.5294420000000  0.4441400000000 1.0
C      1  0.4080620000000  0.5185790000000  0.4952980000000 1.0
C      1  0.5256190000000  0.4471660000000  0.4060510000000 1.0
C      1  0.5406730000000  0.3899650000000  0.4520650000000 1.0
C      1  0.5517120000000  0.4527930000000  0.3959810000000 1.0
C      1  0.3569710000000  0.4917300000000  0.4689890000000 1.0
C      1  0.4357980000000  0.5141560000000  0.4993620000000 1.0
C      1  0.5293430000000  0.4064250000000  0.5235020000000 1.0
C      1  0.4808330000000  0.5104310000000  0.5130110000000 1.0
C      1  0.4872850000000  0.4657910000000  0.3679670000000 1.0
C      1  0.3982920000000  0.4627030000000  0.5205400000000 1.0
C      1  0.5822760000000  0.5454840000000  0.4981310000000 1.0
C      1  0.5139600000000  0.3974880000000  0.4438020000000 1.0
C      1  0.4864450000000  0.6304110000000  0.5798100000000 1.0
C      1  0.4123810000000  0.4768290000000  0.5617320000000 1.0
C      1  0.3810570000000  0.4836640000000  0.5117510000000 1.0
C      1  0.5739820000000  0.5822250000000  0.4619920000000 1.0
C      1  0.4829330000000  0.4331620000000  0.5434280000000 1.0
C      1  0.5635250000000  0.4724660000000  0.4112230000000 1.0
C      1  0.3951320000000  0.5211290000000  0.4702880000000 1.0
C      1  0.5691670000000  0.4286240000000  0.4528910000000 1.0
C      1  0.4600900000000  0.4870560000000  0.5553280000000 1.0
C      1  0.3734090000000  0.5104330000000  0.4584820000000 1.0
C      1  0.5674160000000  0.4416860000000  0.5466040000000 1.0
C      1  0.5892680000000  0.5348330000000  0.4504450000000 1.0
C      1  0.5754230000000  0.4906290000000  0.5768460000000 1.0
C      1  0.3943280000000  0.4578030000000  0.5491380000000 1.0
C      1  0.5433910000000  0.4315600000000  0.5331280000000 1.0
C      1  0.5225580000000  0.5438150000000  0.4241380000000 1.0
C      1  0.4464690000000  0.4970650000000  0.4780780000000 1.0
C      1  0.4699810000000  0.4358950000000  0.5191000000000 1.0
C      1  0.5310940000000  0.5087750000000  0.5851930000000 1.0
C      1  0.5328730000000  0.6045220000000  0.5262000000000 1.0
C      1  0.5186210000000  0.5069020000000  0.4596400000000 1.0
C      1  0.5428710000000  0.5561940000000  0.4120620000000 1.0
C      1  0.4613060000000  0.4108310000000  0.4342320000000 1.0
C      1  0.4838320000000  0.4432610000000  0.3858250000000 1.0
C      1  0.3602540000000  0.4801810000000  0.4931830000000 1.0
C      1  0.4622180000000  0.4844340000000  0.4042510000000 1.0
C      1  0.5234010000000  0.4524490000000  0.5308560000000 1.0
C      1  0.4402220000000  0.3969450000000  0.5198970000000 1.0
C      1  0.4280560000000  0.4662380000000  0.5166410000000 1.0
C      1  0.4536620000000  0.5380850000000  0.5657180000000 1.0
C      1  0.5052790000000  0.5158730000000  0.5947200000000 1.0
C      1  0.5814890000000  0.5619770000000  0.4427870000000 1.0
C      1  0.4595240000000  0.5072480000000  0.4244000000000 1.0
C      1  0.4882030000000  0.6075730000000  0.5642130000000 1.0
C      1  0.5131020000000  0.4005970000000  0.5723400000000 1.0
C      1  0.4526490000000  0.4207090000000  0.4790430000000 1.0
C      1  0.4982790000000  0.5440540000000  0.5913800000000 1.0
C      1  0.4721530000000  0.5345710000000  0.3477080000000 1.0
C      1  0.4760530000000  0.5595050000000  0.4548100000000 1.0
C      1  0.5070950000000  0.6031960000000  0.5423680000000 1.0
C      1  0.4961010000000  0.4670200000000  0.4461380000000 1.0
C      1  0.4942930000000  0.5694100000000  0.4753380000000 1.0
C      1  0.3917610000000  0.5100400000000  0.5169290000000 1.0
C      1  0.6060360000000  0.5067810000000  0.5383300000000 1.0
C      1  0.5147080000000  0.5904110000000  0.4782330000000 1.0
C      1  0.4709450000000  0.5833970000000  0.5674850000000 1.0
C      1  0.4969560000000  0.4010370000000  0.4680250000000 1.0
C      1  0.5045270000000  0.4427210000000  0.6034020000000 1.0
C      1  0.4862650000000  0.4765070000000  0.5584510000000 1.0
C      1  0.4985640000000  0.4704420000000  0.4928000000000 1.0
C      1  0.5371430000000  0.5987630000000  0.4957700000000 1.0
C      1  0.4994590000000  0.4685530000000  0.6087750000000 1.0
C      1  0.4694630000000  0.4544530000000  0.4487170000000 1.0
C      1  0.5197470000000  0.4646860000000  0.4288640000000 1.0
C      1  0.5465800000000  0.4614890000000  0.4899390000000 1.0
C      1  0.4910660000000  0.4957690000000  0.6093960000000 1.0
C      1  0.4119760000000  0.5491500000000  0.5383130000000 1.0
C      1  0.4519800000000  0.5432790000000  0.4611600000000 1.0
C      1  0.5197420000000  0.5447970000000  0.5113120000000 1.0
C      1  0.5220150000000  0.4600990000000  0.5036250000000 1.0
C      1  0.4562300000000  0.5146740000000  0.5500010000000 1.0
C      1  0.4501060000000  0.4483110000000  0.4698490000000 1.0
C      1  0.5474150000000  0.5594520000000  0.5886060000000 1.0
C      1  0.4523330000000  0.5130540000000  0.4540140000000 1.0
C      1  0.5658480000000  0.5259270000000  0.4873760000000 1.0
C      1  0.5064070000000  0.4061600000000  0.4172810000000 1.0
C      1  0.4479850000000  0.4690190000000  0.4911700000000 1.0
C      1  0.5662780000000  0.5194600000000  0.4594570000000 1.0
C      1  0.4691300000000  0.4052300000000  0.4617240000000 1.0
C      1  0.4742040000000  0.5548900000000  0.5797310000000 1.0
C      1  0.5262090000000  0.5604610000000  0.5344220000000 1.0
C      1  0.4849490000000  0.6517770000000  0.5946550000000 1.0
C      1  0.5659160000000  0.4426120000000  0.5752970000000 1.0
C      1  0.6033080000000  0.5335890000000  0.5462560000000 1.0
C      1  0.4179620000000  0.5672330000000  0.4897990000000 1.0
C      1  0.4153250000000  0.5682930000000  0.4420340000000 1.0
C      1  0.5584360000000  0.5135390000000  0.5791230000000 1.0
C      1  0.4072640000000  0.5636050000000  0.5141880000000 1.0
C      1  0.5649670000000  0.5415530000000  0.5751150000000 1.0
C      1  0.5624660000000  0.4819150000000  0.5001740000000 1.0
C      1  0.4742340000000  0.4613130000000  0.5049330000000 1.0
C      1  0.6127830000000  0.5247500000000  0.4638740000000 1.0
C      1  0.5822130000000  0.5508770000000  0.5538550000000 1.0
C      1  0.5679280000000  0.5637540000000  0.4180130000000 1.0
C      1  0.5784430000000  0.5712550000000  0.5079120000000 1.0
C      1  0.5518990000000  0.5079530000000  0.5031280000000 1.0
C      1  0.5052680000000  0.4289760000000  0.3994900000000 1.0
C      1  0.5626060000000  0.4046850000000  0.4425500000000 1.0
C      1  0.4567180000000  0.5754790000000  0.5409380000000 1.0
C      1  0.4547040000000  0.5174600000000  0.5206920000000 1.0
C      1  0.4609880000000  0.4383980000000  0.4268270000000 1.0
C      1  0.5054520000000  0.5030090000000  0.5196880000000 1.0
C      1  0.5852060000000  0.4630530000000  0.5368010000000 1.0
C      1  0.5411520000000  0.3845660000000  0.4804270000000 1.0
C      1  0.5580360000000  0.4451120000000  0.4706510000000 1.0
C      1  0.3992430000000  0.5227880000000  0.5418860000000 1.0
C      1  0.4629460000000  0.4535790000000  0.4038330000000 1.0
C      1  0.4373150000000  0.4726270000000  0.5457930000000 1.0
C      1  0.5088780000000  0.4189760000000  0.5915580000000 1.0
C      1  0.5877190000000  0.4754290000000  0.5106130000000 1.0
C      1  0.5730840000000  0.5716410000000  0.5358960000000 1.0
C      1  0.5209750000000  0.3980520000000  0.4955380000000 1.0
C      1  0.4772200000000  0.5563960000000  0.4261410000000 1.0
C      1  0.5210770000000  0.5609800000000  0.5943870000000 1.0
C      1  0.5187600000000  0.3932970000000  0.5468860000000 1.0
C      1  0.4789960000000  0.5676960000000  0.5229180000000 1.0
C      1  0.5010160000000  0.4543510000000  0.5486940000000 1.0
C      1  0.4036510000000  0.5041600000000  0.5632720000000 1.0
C      1  0.5643900000000  0.5879600000000  0.4885210000000 1.0
C      1  0.6076310000000  0.4973780000000  0.5103870000000 1.0
C      1  0.4281760000000  0.5593350000000  0.4646600000000 1.0
C      1  0.6171200000000  0.5100360000000  0.4866610000000 1.0
END
