TITL C-627107-135-2098 0.07829093706194 125000 -305.080376873391 0 0 52 (C1) n - 1
REM
REM in /home/nfs/bkarasulu/CARBON/AIRSS/Generating-Clusters/LCBOP/Only-C1/SD-CG/FIRE-CG
REM
REM
REM
REM
REM
REM ./C.cell (11c1c37f851c82e70ff6c80c92926a4b)
REM AIRSS Version 0.9.1 bugfix July 2018 build 013d7b7c2542+ Fri, 06 Jul 2018 19:26:36 +0100
REM compiler GCC version 9.2.1 20190827 (Red Hat 9.2.1-1)
REM options -cpp -mtune=generic -march=x86-64 -g -O0 -fpre-include=/usr/include/finclude/math-vector-fortran.h
REM seed -815371663 1079932186 78444323 2117834546 2037291929 1436407151 630137050 -95548580 -472092299 1001361560 -1285385040 1064244451 1189897399 -1867921815 -1218820126 1120044832 -50474291 -737671851 842669903 -1008268884 1393427404 1864364183 -1479851840 2029132760 1540298105 -1844767152 -379849829 -587600652 925995741 -1709091883 381524762 -2014497856 -2036073733
REM
CELL 1.54180   50.00000   50.00000   50.00000   90.00000   90.00000   90.00000
LATT -1
SFAC C  
C      1  0.5073120000000  0.4717300000000  0.4771180000000 1.0
C      1  0.3880160000000  0.4386280000000  0.4419800000000 1.0
C      1  0.4976760000000  0.6038620000000  0.5281790000000 1.0
C      1  0.4856970000000  0.6070770000000  0.5041220000000 1.0
C      1  0.4570280000000  0.5127580000000  0.5221550000000 1.0
C      1  0.5043740000000  0.5960820000000  0.4611400000000 1.0
C      1  0.5843780000000  0.5802680000000  0.5100670000000 1.0
C      1  0.5422630000000  0.5555600000000  0.5058680000000 1.0
C      1  0.4275130000000  0.4466060000000  0.5685380000000 1.0
C      1  0.4798390000000  0.4116260000000  0.4547710000000 1.0
C      1  0.5311440000000  0.5968930000000  0.4596410000000 1.0
C      1  0.4947580000000  0.5428760000000  0.5065070000000 1.0
C      1  0.5307620000000  0.4051920000000  0.3923780000000 1.0
C      1  0.4454360000000  0.4361710000000  0.5850850000000 1.0
C      1  0.5427610000000  0.4394630000000  0.4303760000000 1.0
C      1  0.5512860000000  0.4692240000000  0.4960480000000 1.0
C      1  0.4177840000000  0.4603240000000  0.5480390000000 1.0
C      1  0.5399150000000  0.5302730000000  0.4923180000000 1.0
C      1  0.5692170000000  0.5244130000000  0.4518410000000 1.0
C      1  0.5658910000000  0.4885950000000  0.4805480000000 1.0
C      1  0.5674970000000  0.4780240000000  0.4518990000000 1.0
C      1  0.5607490000000  0.5174290000000  0.4787360000000 1.0
C      1  0.5505990000000  0.4520820000000  0.5468410000000 1.0
C      1  0.4960700000000  0.4297720000000  0.5947880000000 1.0
C      1  0.4366540000000  0.4958570000000  0.5212650000000 1.0
C      1  0.5323370000000  0.4588160000000  0.4760750000000 1.0
C      1  0.5602880000000  0.5754710000000  0.4970060000000 1.0
C      1  0.4863900000000  0.5895470000000  0.4817830000000 1.0
C      1  0.4787550000000  0.5441560000000  0.5533680000000 1.0
C      1  0.4812510000000  0.5620770000000  0.4873720000000 1.0
C      1  0.5370060000000  0.4222520000000  0.4110740000000 1.0
C      1  0.5541650000000  0.4615830000000  0.5223580000000 1.0
C      1  0.5175780000000  0.5611320000000  0.5192520000000 1.0
C      1  0.4323300000000  0.4335440000000  0.4597120000000 1.0
C      1  0.3991960000000  0.4587310000000  0.4840830000000 1.0
C      1  0.4763490000000  0.5320450000000  0.5277600000000 1.0
C      1  0.4931690000000  0.5663610000000  0.5593250000000 1.0
C      1  0.5524920000000  0.5901250000000  0.4742690000000 1.0
C      1  0.4165660000000  0.4769090000000  0.5255830000000 1.0
C      1  0.6069590000000  0.5842820000000  0.5224410000000 1.0
C      1  0.5074850000000  0.5795510000000  0.5387290000000 1.0
C      1  0.4565170000000  0.4229720000000  0.4574160000000 1.0
C      1  0.5119990000000  0.5218070000000  0.4924590000000 1.0
C      1  0.5728940000000  0.5017000000000  0.4364500000000 1.0
C      1  0.4695370000000  0.4303190000000  0.5945260000000 1.0
C      1  0.5472430000000  0.4573330000000  0.4509710000000 1.0
C      1  0.5394120000000  0.4422830000000  0.5688010000000 1.0
C      1  0.3952710000000  0.4742540000000  0.5069810000000 1.0
C      1  0.5205920000000  0.4342060000000  0.5856670000000 1.0
C      1  0.5019230000000  0.4973860000000  0.4831340000000 1.0
C      1  0.3713740000000  0.4867900000000  0.5114510000000 1.0
C      1  0.4063050000000  0.4435800000000  0.4617040000000 1.0
END
