TITL C-627108-131-2031 -330.954173445734 125000 -941.295644811143 0 0 153 (C1) n - 1
REM
REM in /home/nfs/bkarasulu/CARBON/AIRSS/Generating-Clusters/LCBOP/Only-C1/SD-CG/FIRE-CG
REM
REM
REM
REM
REM
REM ./C.cell (11c1c37f851c82e70ff6c80c92926a4b)
REM AIRSS Version 0.9.1 bugfix July 2018 build 013d7b7c2542+ Fri, 06 Jul 2018 19:26:36 +0100
REM compiler GCC version 9.2.1 20190827 (Red Hat 9.2.1-1)
REM options -cpp -mtune=generic -march=x86-64 -g -O0 -fpre-include=/usr/include/finclude/math-vector-fortran.h
REM seed -493034743 1396439779 -1710003390 -737839759 1619504481 37451913 535107011 213357373 -1436505453 -911691745 -1019287135 1996189085 -2077882479 -1855111230 -44660359 1902175263 -2078544038 -956571737 -1575638616 521660650 1461869801 -1933667995 1729026172 -79274356 60631819 79967324 -954935180 112675200 -122727045 -1025901464 -1204977 -1045915866 1922571160
REM
CELL 1.54180   50.00000   50.00000   50.00000   90.00000   90.00000   90.00000
LATT -1
SFAC C  
C      1  0.4993870000000  0.4370380000000  0.5866520000000 1.0
C      1  0.4445310000000  0.5448480000000  0.5655020000000 1.0
C      1  0.4721730000000  0.4447560000000  0.4027840000000 1.0
C      1  0.4726800000000  0.4567340000000  0.4975920000000 1.0
C      1  0.4417350000000  0.6154950000000  0.4847320000000 1.0
C      1  0.5148470000000  0.3818370000000  0.5493860000000 1.0
C      1  0.5294030000000  0.5679420000000  0.4333610000000 1.0
C      1  0.5839720000000  0.5354310000000  0.4488210000000 1.0
C      1  0.3936480000000  0.4945700000000  0.4564220000000 1.0
C      1  0.5410540000000  0.5959410000000  0.5239230000000 1.0
C      1  0.5301350000000  0.3994330000000  0.5648130000000 1.0
C      1  0.5090810000000  0.5154220000000  0.4068120000000 1.0
C      1  0.5418680000000  0.5671830000000  0.4581620000000 1.0
C      1  0.5589780000000  0.3984640000000  0.5605950000000 1.0
C      1  0.4613770000000  0.5585560000000  0.5863700000000 1.0
C      1  0.5474800000000  0.4414140000000  0.5702140000000 1.0
C      1  0.5861960000000  0.5848330000000  0.5050970000000 1.0
C      1  0.5325370000000  0.5428490000000  0.5273520000000 1.0
C      1  0.4942300000000  0.3925750000000  0.4524140000000 1.0
C      1  0.4797620000000  0.5491740000000  0.4671330000000 1.0
C      1  0.4634060000000  0.5207770000000  0.4010200000000 1.0
C      1  0.4796150000000  0.4732850000000  0.5214350000000 1.0
C      1  0.5748570000000  0.5403890000000  0.5472660000000 1.0
C      1  0.4677390000000  0.5162040000000  0.6128640000000 1.0
C      1  0.4878690000000  0.6001310000000  0.4760950000000 1.0
C      1  0.4918450000000  0.4290430000000  0.4172310000000 1.0
C      1  0.5495730000000  0.4978060000000  0.4537440000000 1.0
C      1  0.4675190000000  0.5959260000000  0.5227650000000 1.0
C      1  0.4885850000000  0.5228760000000  0.5604070000000 1.0
C      1  0.4856550000000  0.4147510000000  0.6340670000000 1.0
C      1  0.4117630000000  0.4440400000000  0.4536410000000 1.0
C      1  0.4906340000000  0.5785960000000  0.5231150000000 1.0
C      1  0.3898530000000  0.5046200000000  0.5282770000000 1.0
C      1  0.5689690000000  0.4277530000000  0.4747340000000 1.0
C      1  0.5357910000000  0.4245220000000  0.4383800000000 1.0
C      1  0.4036730000000  0.4834960000000  0.5149390000000 1.0
C      1  0.5247410000000  0.5797710000000  0.5802790000000 1.0
C      1  0.5784620000000  0.5123460000000  0.5441910000000 1.0
C      1  0.4169230000000  0.4128290000000  0.4917300000000 1.0
C      1  0.5450940000000  0.4834630000000  0.5322900000000 1.0
C      1  0.5643130000000  0.5179940000000  0.4368100000000 1.0
C      1  0.4153520000000  0.5764660000000  0.4685880000000 1.0
C      1  0.5028470000000  0.5087120000000  0.5416650000000 1.0
C      1  0.5507770000000  0.4997610000000  0.4829710000000 1.0
C      1  0.5023560000000  0.4734930000000  0.4516900000000 1.0
C      1  0.4638410000000  0.5496330000000  0.4082470000000 1.0
C      1  0.5597530000000  0.4894800000000  0.5076870000000 1.0
C      1  0.4523260000000  0.4726460000000  0.6283010000000 1.0
C      1  0.6070530000000  0.4341800000000  0.5198100000000 1.0
C      1  0.4788080000000  0.5396260000000  0.6006850000000 1.0
C      1  0.4925980000000  0.5405100000000  0.4926490000000 1.0
C      1  0.5348250000000  0.5060370000000  0.3973980000000 1.0
C      1  0.3938470000000  0.5303540000000  0.5178190000000 1.0
C      1  0.4990040000000  0.5883610000000  0.5767470000000 1.0
C      1  0.4974710000000  0.4975990000000  0.5161800000000 1.0
C      1  0.4844610000000  0.4569030000000  0.5723990000000 1.0
C      1  0.3991780000000  0.4681140000000  0.4654090000000 1.0
C      1  0.4620430000000  0.4729960000000  0.4770350000000 1.0
C      1  0.3933690000000  0.4669770000000  0.4940500000000 1.0
C      1  0.5009180000000  0.5754680000000  0.4326070000000 1.0
C      1  0.5149630000000  0.5915130000000  0.5264000000000 1.0
C      1  0.5687820000000  0.4257120000000  0.5585700000000 1.0
C      1  0.4710260000000  0.5828330000000  0.5723750000000 1.0
C      1  0.4656460000000  0.4297210000000  0.5020660000000 1.0
C      1  0.5396490000000  0.3882690000000  0.4697160000000 1.0
C      1  0.5949950000000  0.4580370000000  0.4496670000000 1.0
C      1  0.4568540000000  0.5417550000000  0.5176700000000 1.0
C      1  0.4527800000000  0.4927960000000  0.5593910000000 1.0
C      1  0.5906150000000  0.5786050000000  0.5706660000000 1.0
C      1  0.4895800000000  0.5293980000000  0.4481360000000 1.0
C      1  0.6276270000000  0.4163220000000  0.5173220000000 1.0
C      1  0.4031870000000  0.5628940000000  0.4903680000000 1.0
C      1  0.4801680000000  0.4024250000000  0.6568810000000 1.0
C      1  0.5897550000000  0.4332000000000  0.5420100000000 1.0
C      1  0.5230000000000  0.4262090000000  0.5749290000000 1.0
C      1  0.5080000000000  0.5148520000000  0.4344120000000 1.0
C      1  0.4413700000000  0.4889320000000  0.4867520000000 1.0
C      1  0.5468960000000  0.4907180000000  0.6027900000000 1.0
C      1  0.5712910000000  0.5576860000000  0.5706880000000 1.0
C      1  0.4212230000000  0.6037600000000  0.4720000000000 1.0
C      1  0.4327060000000  0.5648450000000  0.5461710000000 1.0
C      1  0.4517420000000  0.4826750000000  0.5327830000000 1.0
C      1  0.5127220000000  0.6143910000000  0.4760830000000 1.0
C      1  0.5549700000000  0.4980060000000  0.5556300000000 1.0
C      1  0.4624440000000  0.4884750000000  0.6076140000000 1.0
C      1  0.4830110000000  0.5527170000000  0.5159320000000 1.0
C      1  0.4188590000000  0.5063520000000  0.4122960000000 1.0
C      1  0.6066630000000  0.5913270000000  0.5235880000000 1.0
C      1  0.5219540000000  0.4928080000000  0.4459620000000 1.0
C      1  0.4744030000000  0.3906640000000  0.6794210000000 1.0
C      1  0.4898910000000  0.4573450000000  0.5445200000000 1.0
C      1  0.5858660000000  0.4982190000000  0.5188000000000 1.0
C      1  0.4652490000000  0.4772340000000  0.5810550000000 1.0
C      1  0.4122760000000  0.5596950000000  0.5265570000000 1.0
C      1  0.4458760000000  0.5034470000000  0.4156400000000 1.0
C      1  0.4805940000000  0.4592910000000  0.3802030000000 1.0
C      1  0.4857270000000  0.4110820000000  0.5049510000000 1.0
C      1  0.5395720000000  0.6117890000000  0.4726860000000 1.0
C      1  0.4908060000000  0.4274080000000  0.6113750000000 1.0
C      1  0.4594220000000  0.5204410000000  0.5603020000000 1.0
C      1  0.4533860000000  0.5875790000000  0.5474190000000 1.0
C      1  0.4517120000000  0.4152350000000  0.4414860000000 1.0
C      1  0.4350810000000  0.4384310000000  0.4362800000000 1.0
C      1  0.4402000000000  0.4606540000000  0.6480110000000 1.0
C      1  0.5842540000000  0.4590580000000  0.4250460000000 1.0
C      1  0.4429570000000  0.5364850000000  0.4951600000000 1.0
C      1  0.5095800000000  0.3754360000000  0.5238740000000 1.0
C      1  0.5580250000000  0.5521330000000  0.5275070000000 1.0
C      1  0.4423720000000  0.5598020000000  0.4251130000000 1.0
C      1  0.5563890000000  0.3670480000000  0.4734020000000 1.0
C      1  0.3740250000000  0.4999450000000  0.5499890000000 1.0
C      1  0.5015790000000  0.5325620000000  0.5839290000000 1.0
C      1  0.5019270000000  0.3889390000000  0.5005570000000 1.0
C      1  0.3908380000000  0.5370530000000  0.4893070000000 1.0
C      1  0.4393330000000  0.4203850000000  0.5041170000000 1.0
C      1  0.5137110000000  0.5577790000000  0.3920410000000 1.0
C      1  0.6060830000000  0.4813150000000  0.5087500000000 1.0
C      1  0.5637780000000  0.4563890000000  0.4079450000000 1.0
C      1  0.4796860000000  0.4107220000000  0.4365660000000 1.0
C      1  0.5565770000000  0.5896750000000  0.4674520000000 1.0
C      1  0.5061060000000  0.5157560000000  0.4957450000000 1.0
C      1  0.5439300000000  0.5066570000000  0.5806100000000 1.0
C      1  0.4567230000000  0.4809180000000  0.4296160000000 1.0
C      1  0.4337270000000  0.5607720000000  0.4524490000000 1.0
C      1  0.5375920000000  0.5529410000000  0.4095790000000 1.0
C      1  0.5384640000000  0.5458480000000  0.4757620000000 1.0
C      1  0.4869040000000  0.5076730000000  0.3910240000000 1.0
C      1  0.5899010000000  0.4469110000000  0.4751540000000 1.0
C      1  0.6028820000000  0.4542810000000  0.4998250000000 1.0
C      1  0.5358290000000  0.4558990000000  0.4018670000000 1.0
C      1  0.5203340000000  0.4362310000000  0.4174460000000 1.0
C      1  0.5115710000000  0.3864620000000  0.4739850000000 1.0
C      1  0.4048530000000  0.4208910000000  0.4690860000000 1.0
C      1  0.4316820000000  0.4864290000000  0.5133150000000 1.0
C      1  0.5302270000000  0.5320210000000  0.5839330000000 1.0
C      1  0.5435630000000  0.5577990000000  0.5809090000000 1.0
C      1  0.5261050000000  0.4791340000000  0.3878910000000 1.0
C      1  0.6056410000000  0.5895580000000  0.5507830000000 1.0
C      1  0.5827490000000  0.5810410000000  0.4768880000000 1.0
C      1  0.5621940000000  0.5784990000000  0.5189400000000 1.0
C      1  0.3889370000000  0.5186090000000  0.4681430000000 1.0
C      1  0.4661040000000  0.6063800000000  0.4954130000000 1.0
C      1  0.4874610000000  0.5770910000000  0.4581420000000 1.0
C      1  0.5324370000000  0.5209640000000  0.4870480000000 1.0
C      1  0.5489130000000  0.4137120000000  0.4608440000000 1.0
C      1  0.4970360000000  0.4820700000000  0.3802850000000 1.0
C      1  0.4891350000000  0.5643100000000  0.4075570000000 1.0
C      1  0.5517260000000  0.5260660000000  0.4110400000000 1.0
C      1  0.5741680000000  0.3759530000000  0.5593940000000 1.0
C      1  0.4504770000000  0.5459730000000  0.4698800000000 1.0
C      1  0.4501680000000  0.4554550000000  0.4186320000000 1.0
C      1  0.4741110000000  0.4773090000000  0.4523220000000 1.0
C      1  0.5919200000000  0.5574810000000  0.4628140000000 1.0
END
