TITL C-627113-6568-1386 -4.99615896147582e-07 125000 -971.219686445758 0 0 159 (C1) n - 1
REM
REM in /home/nfs/bkarasulu/CARBON/AIRSS/Generating-Clusters/LCBOP/Only-C1/SD-CG/FIRE-CG
REM
REM
REM
REM
REM
REM ./C.cell (11c1c37f851c82e70ff6c80c92926a4b)
REM AIRSS Version 0.9.1 bugfix July 2018 build 013d7b7c2542+ Fri, 06 Jul 2018 19:26:36 +0100
REM compiler GCC version 9.2.1 20190827 (Red Hat 9.2.1-1)
REM options -cpp -mtune=generic -march=x86-64 -g -O0 -fpre-include=/usr/include/finclude/math-vector-fortran.h
REM seed -1896770797 736316533 -1447788364 845766155 -1246783900 261028169 -1536034067 -1316922512 -466859691 -40996218 1599550394 877925279 -1021538416 819297094 -1890144833 -878994770 2013110547 -1846158703 1456248947 -1420735174 1283749368 959768956 468434450 673182930 -415156949 -408428674 -1033284859 1875821445 103622590 -1901390574 1735086237 -206707639 -904259741
REM
CELL 1.54180   50.00000   50.00000   50.00000   90.00000   90.00000   90.00000
LATT -1
SFAC C  
C      1  0.5337270000000  0.4565430000000  0.4238140000000 1.0
C      1  0.4372200000000  0.5674990000000  0.4434870000000 1.0
C      1  0.4478750000000  0.4359590000000  0.5079500000000 1.0
C      1  0.5313650000000  0.4715900000000  0.4503650000000 1.0
C      1  0.3961350000000  0.5102310000000  0.5238490000000 1.0
C      1  0.4757150000000  0.4272310000000  0.4127610000000 1.0
C      1  0.5589350000000  0.4842570000000  0.4615560000000 1.0
C      1  0.5201020000000  0.4153010000000  0.6201600000000 1.0
C      1  0.5218250000000  0.4402610000000  0.4900910000000 1.0
C      1  0.4619560000000  0.3983230000000  0.5538190000000 1.0
C      1  0.4475740000000  0.5330780000000  0.4065550000000 1.0
C      1  0.4506290000000  0.4920300000000  0.4491510000000 1.0
C      1  0.4245700000000  0.4511830000000  0.4263200000000 1.0
C      1  0.4812120000000  0.5439990000000  0.5637060000000 1.0
C      1  0.5128020000000  0.6032750000000  0.4967570000000 1.0
C      1  0.4515800000000  0.4238860000000  0.5597470000000 1.0
C      1  0.5173260000000  0.5253500000000  0.5361080000000 1.0
C      1  0.4229540000000  0.5169770000000  0.4094750000000 1.0
C      1  0.5464650000000  0.5216390000000  0.5349180000000 1.0
C      1  0.4306460000000  0.5275100000000  0.5578760000000 1.0
C      1  0.5175450000000  0.4935200000000  0.6267100000000 1.0
C      1  0.5278050000000  0.4165080000000  0.5927740000000 1.0
C      1  0.5181110000000  0.5622650000000  0.5881420000000 1.0
C      1  0.4076010000000  0.5001650000000  0.4288440000000 1.0
C      1  0.5270900000000  0.4916250000000  0.5006830000000 1.0
C      1  0.4404670000000  0.5239750000000  0.5085560000000 1.0
C      1  0.4884330000000  0.6138010000000  0.4865800000000 1.0
C      1  0.4930220000000  0.4992260000000  0.4701640000000 1.0
C      1  0.5266580000000  0.3982370000000  0.5703500000000 1.0
C      1  0.5717160000000  0.4855170000000  0.5116980000000 1.0
C      1  0.4040520000000  0.4704990000000  0.4345720000000 1.0
C      1  0.4844920000000  0.5579000000000  0.5181370000000 1.0
C      1  0.5319710000000  0.5357070000000  0.4712750000000 1.0
C      1  0.5555040000000  0.5745870000000  0.4234240000000 1.0
C      1  0.4605750000000  0.6123500000000  0.5288080000000 1.0
C      1  0.5234440000000  0.5423920000000  0.6056130000000 1.0
C      1  0.5813720000000  0.5180590000000  0.4301300000000 1.0
C      1  0.5591940000000  0.5177530000000  0.4124800000000 1.0
C      1  0.4631330000000  0.6122430000000  0.4995880000000 1.0
C      1  0.5139990000000  0.4498590000000  0.5628860000000 1.0
C      1  0.4105840000000  0.5146510000000  0.4540600000000 1.0
C      1  0.4341230000000  0.4951310000000  0.5051930000000 1.0
C      1  0.5191570000000  0.4337960000000  0.5397230000000 1.0
C      1  0.4007270000000  0.4620020000000  0.5302740000000 1.0
C      1  0.5123360000000  0.5391620000000  0.4060780000000 1.0
C      1  0.6240660000000  0.5190100000000  0.4790260000000 1.0
C      1  0.4790950000000  0.4781510000000  0.4817670000000 1.0
C      1  0.5131100000000  0.4634650000000  0.4041420000000 1.0
C      1  0.5232440000000  0.4056310000000  0.5425850000000 1.0
C      1  0.5231010000000  0.5931000000000  0.5230380000000 1.0
C      1  0.3922500000000  0.4621110000000  0.4592780000000 1.0
C      1  0.4367290000000  0.4304910000000  0.4454270000000 1.0
C      1  0.3665090000000  0.5161270000000  0.4743080000000 1.0
C      1  0.4586930000000  0.5528400000000  0.4275130000000 1.0
C      1  0.5142860000000  0.4966020000000  0.4517230000000 1.0
C      1  0.4774410000000  0.5375220000000  0.4455630000000 1.0
C      1  0.5538420000000  0.5270360000000  0.4876460000000 1.0
C      1  0.4788230000000  0.5769450000000  0.4220300000000 1.0
C      1  0.4568450000000  0.4848370000000  0.4225600000000 1.0
C      1  0.4597300000000  0.4545910000000  0.5246220000000 1.0
C      1  0.4511600000000  0.4811330000000  0.5233220000000 1.0
C      1  0.5129990000000  0.4497570000000  0.4655130000000 1.0
C      1  0.4459050000000  0.5917410000000  0.4561140000000 1.0
C      1  0.4939290000000  0.4426620000000  0.3997690000000 1.0
C      1  0.4512020000000  0.5484130000000  0.5617530000000 1.0
C      1  0.4138830000000  0.4509960000000  0.5060800000000 1.0
C      1  0.6305320000000  0.5112650000000  0.5624590000000 1.0
C      1  0.4827260000000  0.5276670000000  0.4730700000000 1.0
C      1  0.4892760000000  0.4635310000000  0.5622080000000 1.0
C      1  0.5439770000000  0.4299590000000  0.4310920000000 1.0
C      1  0.5217330000000  0.3911970000000  0.5179470000000 1.0
C      1  0.5049180000000  0.5898920000000  0.5462310000000 1.0
C      1  0.4591600000000  0.5643910000000  0.5204420000000 1.0
C      1  0.5884870000000  0.4645710000000  0.5010910000000 1.0
C      1  0.5154110000000  0.4406620000000  0.6323940000000 1.0
C      1  0.5256170000000  0.5974430000000  0.4492870000000 1.0
C      1  0.4382800000000  0.5156230000000  0.4605780000000 1.0
C      1  0.6014040000000  0.5638460000000  0.4828810000000 1.0
C      1  0.4710870000000  0.5984430000000  0.4419540000000 1.0
C      1  0.4118190000000  0.4730280000000  0.5999210000000 1.0
C      1  0.5744970000000  0.5657950000000  0.4423280000000 1.0
C      1  0.5217050000000  0.5183990000000  0.6175480000000 1.0
C      1  0.4158360000000  0.6028610000000  0.4958290000000 1.0
C      1  0.6184890000000  0.5475050000000  0.4423400000000 1.0
C      1  0.6512420000000  0.5130250000000  0.5458690000000 1.0
C      1  0.6106890000000  0.4732050000000  0.4852730000000 1.0
C      1  0.3855150000000  0.4862270000000  0.5348590000000 1.0
C      1  0.3978920000000  0.4678560000000  0.6503380000000 1.0
C      1  0.4198310000000  0.4753020000000  0.5731770000000 1.0
C      1  0.4630570000000  0.4100850000000  0.5051830000000 1.0
C      1  0.4450050000000  0.5712000000000  0.5444570000000 1.0
C      1  0.5298160000000  0.3972970000000  0.4682850000000 1.0
C      1  0.4678440000000  0.4464330000000  0.5513140000000 1.0
C      1  0.4664350000000  0.4286380000000  0.4400230000000 1.0
C      1  0.5278960000000  0.5213110000000  0.4470980000000 1.0
C      1  0.4687270000000  0.5233510000000  0.3897200000000 1.0
C      1  0.4439450000000  0.4644610000000  0.4100410000000 1.0
C      1  0.4563940000000  0.4726290000000  0.4687080000000 1.0
C      1  0.5075870000000  0.5396060000000  0.4856320000000 1.0
C      1  0.4047810000000  0.4704440000000  0.6253290000000 1.0
C      1  0.5797460000000  0.4946300000000  0.5613330000000 1.0
C      1  0.5174350000000  0.3918330000000  0.6337630000000 1.0
C      1  0.5566780000000  0.5864080000000  0.4875700000000 1.0
C      1  0.6341340000000  0.4582310000000  0.4837950000000 1.0
C      1  0.5064710000000  0.4904290000000  0.3953570000000 1.0
C      1  0.4200340000000  0.4230540000000  0.4705690000000 1.0
C      1  0.5154830000000  0.4755610000000  0.5181470000000 1.0
C      1  0.4049220000000  0.4470900000000  0.4794610000000 1.0
C      1  0.4408320000000  0.6031170000000  0.4822120000000 1.0
C      1  0.4840340000000  0.4925700000000  0.5583050000000 1.0
C      1  0.5121900000000  0.3942620000000  0.4907940000000 1.0
C      1  0.4571390000000  0.4931110000000  0.5484670000000 1.0
C      1  0.4368810000000  0.5982330000000  0.5391470000000 1.0
C      1  0.3930530000000  0.5100590000000  0.4753030000000 1.0
C      1  0.4837780000000  0.6094610000000  0.5450450000000 1.0
C      1  0.5540990000000  0.4967320000000  0.4893270000000 1.0
C      1  0.4191400000000  0.5291070000000  0.5307520000000 1.0
C      1  0.6196200000000  0.5455550000000  0.4705480000000 1.0
C      1  0.5921200000000  0.5445170000000  0.4332930000000 1.0
C      1  0.4533050000000  0.5284710000000  0.4832070000000 1.0
C      1  0.5060620000000  0.5673510000000  0.4145440000000 1.0
C      1  0.4347080000000  0.4993140000000  0.5648320000000 1.0
C      1  0.6568360000000  0.4445900000000  0.4832220000000 1.0
C      1  0.5694370000000  0.4782090000000  0.5812660000000 1.0
C      1  0.4849180000000  0.4029720000000  0.4884610000000 1.0
C      1  0.5693190000000  0.4240280000000  0.4730270000000 1.0
C      1  0.5515750000000  0.5873690000000  0.5170270000000 1.0
C      1  0.4881050000000  0.4387480000000  0.4560940000000 1.0
C      1  0.5325500000000  0.5976540000000  0.4762170000000 1.0
C      1  0.5769630000000  0.5738040000000  0.4710290000000 1.0
C      1  0.5710980000000  0.5866770000000  0.5361180000000 1.0
C      1  0.4964130000000  0.5188100000000  0.5558310000000 1.0
C      1  0.5782680000000  0.4393870000000  0.4931660000000 1.0
C      1  0.4620800000000  0.3918690000000  0.5275280000000 1.0
C      1  0.5284830000000  0.5818330000000  0.4262110000000 1.0
C      1  0.4154100000000  0.4100290000000  0.5253120000000 1.0
C      1  0.5006500000000  0.5672580000000  0.5659440000000 1.0
C      1  0.5148850000000  0.4675420000000  0.6329650000000 1.0
C      1  0.5061680000000  0.5411380000000  0.5138960000000 1.0
C      1  0.4237280000000  0.4263450000000  0.5506640000000 1.0
C      1  0.6071000000000  0.4972750000000  0.4699390000000 1.0
C      1  0.4170260000000  0.4058330000000  0.4964590000000 1.0
C      1  0.4131340000000  0.4531580000000  0.5544400000000 1.0
C      1  0.4057570000000  0.4992120000000  0.4980260000000 1.0
C      1  0.5311760000000  0.4435580000000  0.5839730000000 1.0
C      1  0.5488250000000  0.4147860000000  0.4555090000000 1.0
C      1  0.5528880000000  0.4595730000000  0.5900150000000 1.0
C      1  0.6460250000000  0.5143600000000  0.4957310000000 1.0
C      1  0.6793900000000  0.4315210000000  0.4828740000000 1.0
C      1  0.4137650000000  0.6021990000000  0.5230350000000 1.0
C      1  0.6570270000000  0.5134240000000  0.5198930000000 1.0
C      1  0.4962170000000  0.5178580000000  0.3940800000000 1.0
C      1  0.5341720000000  0.5276040000000  0.4205750000000 1.0
C      1  0.5839200000000  0.4978430000000  0.4512150000000 1.0
C      1  0.5579100000000  0.5377170000000  0.5136230000000 1.0
C      1  0.4863520000000  0.6161950000000  0.4579160000000 1.0
C      1  0.5651590000000  0.4985720000000  0.5373350000000 1.0
C      1  0.5186190000000  0.4480270000000  0.5161930000000 1.0
C      1  0.6046120000000  0.5065680000000  0.5655310000000 1.0
END
