TITL C-627111-6168-1702 2.01141210903454 125000 -868.39572719795 0 0 139 (C1) n - 1
REM
REM in /home/nfs/bkarasulu/CARBON/AIRSS/Generating-Clusters/LCBOP/Only-C1/SD-CG/FIRE-CG
REM
REM
REM
REM
REM
REM ./C.cell (11c1c37f851c82e70ff6c80c92926a4b)
REM AIRSS Version 0.9.1 bugfix July 2018 build 013d7b7c2542+ Fri, 06 Jul 2018 19:26:36 +0100
REM compiler GCC version 9.2.1 20190827 (Red Hat 9.2.1-1)
REM options -cpp -mtune=generic -march=x86-64 -g -O0 -fpre-include=/usr/include/finclude/math-vector-fortran.h
REM seed -1606436286 -1520360441 620897171 1986799526 -1424212039 -1179135019 -2011018347 700221130 -791912260 607964819 -30694306 250011397 -1482081763 1982913594 -548799862 -231276920 405775739 1707933840 -1088275708 -4764894 -1045228091 1408618806 -529051906 -419815604 -1316999176 -562041300 228506588 -423432168 1788852250 -1342901947 811992721 -1778972961 -10652142
REM
CELL 1.54180   50.00000   50.00000   50.00000   90.00000   90.00000   90.00000
LATT -1
SFAC C  
C      1  0.5546870000000  0.4304320000000  0.5572500000000 1.0
C      1  0.4677880000000  0.5192860000000  0.4551250000000 1.0
C      1  0.6424030000000  0.4511350000000  0.5213140000000 1.0
C      1  0.4508370000000  0.4985570000000  0.4006010000000 1.0
C      1  0.4345270000000  0.4724910000000  0.4366450000000 1.0
C      1  0.5029090000000  0.4884400000000  0.4586180000000 1.0
C      1  0.4820990000000  0.5344110000000  0.5239960000000 1.0
C      1  0.4778770000000  0.5816830000000  0.4502490000000 1.0
C      1  0.5249550000000  0.5997740000000  0.4572410000000 1.0
C      1  0.4674230000000  0.5922000000000  0.5268800000000 1.0
C      1  0.4108310000000  0.5184950000000  0.4656840000000 1.0
C      1  0.5611230000000  0.5780300000000  0.4822250000000 1.0
C      1  0.5623000000000  0.4724770000000  0.3976690000000 1.0
C      1  0.4406890000000  0.5791140000000  0.4792910000000 1.0
C      1  0.4680080000000  0.5862580000000  0.4768020000000 1.0
C      1  0.5883340000000  0.4561850000000  0.5192290000000 1.0
C      1  0.4114030000000  0.6137330000000  0.5682730000000 1.0
C      1  0.5755490000000  0.4698860000000  0.5406670000000 1.0
C      1  0.4100660000000  0.5391200000000  0.5615640000000 1.0
C      1  0.4258630000000  0.5225000000000  0.4389020000000 1.0
C      1  0.4876440000000  0.4529620000000  0.4924450000000 1.0
C      1  0.5645980000000  0.5580150000000  0.4597330000000 1.0
C      1  0.5616120000000  0.4766830000000  0.5867270000000 1.0
C      1  0.6160130000000  0.4527100000000  0.5196110000000 1.0
C      1  0.4562600000000  0.4997920000000  0.4712920000000 1.0
C      1  0.5460230000000  0.3876020000000  0.4433670000000 1.0
C      1  0.4624050000000  0.4117030000000  0.5264370000000 1.0
C      1  0.5230790000000  0.4800630000000  0.5032640000000 1.0
C      1  0.5342410000000  0.5432500000000  0.5033840000000 1.0
C      1  0.5288800000000  0.4258610000000  0.4912990000000 1.0
C      1  0.5651560000000  0.4565130000000  0.5644190000000 1.0
C      1  0.5375220000000  0.5590810000000  0.5516890000000 1.0
C      1  0.5021700000000  0.5945650000000  0.4440530000000 1.0
C      1  0.4824640000000  0.5897230000000  0.5517920000000 1.0
C      1  0.5466330000000  0.3827000000000  0.4953330000000 1.0
C      1  0.4415860000000  0.4683490000000  0.5953610000000 1.0
C      1  0.4452420000000  0.4144440000000  0.5018870000000 1.0
C      1  0.5633990000000  0.4795790000000  0.4522860000000 1.0
C      1  0.4182970000000  0.4241500000000  0.5093720000000 1.0
C      1  0.4970270000000  0.5109360000000  0.3919240000000 1.0
C      1  0.4251570000000  0.5666980000000  0.5223230000000 1.0
C      1  0.5231240000000  0.5111200000000  0.6010820000000 1.0
C      1  0.5422690000000  0.5326400000000  0.5945210000000 1.0
C      1  0.5217440000000  0.5025280000000  0.3442230000000 1.0
C      1  0.5446180000000  0.5850280000000  0.5430650000000 1.0
C      1  0.4050790000000  0.4065080000000  0.6009710000000 1.0
C      1  0.4244130000000  0.4079440000000  0.5567320000000 1.0
C      1  0.4665260000000  0.5611010000000  0.4327700000000 1.0
C      1  0.5575120000000  0.4980290000000  0.4047600000000 1.0
C      1  0.5462760000000  0.4938250000000  0.4937320000000 1.0
C      1  0.4928720000000  0.4859590000000  0.5609400000000 1.0
C      1  0.6683730000000  0.4499140000000  0.5232380000000 1.0
C      1  0.5044850000000  0.6072000000000  0.5513990000000 1.0
C      1  0.4546370000000  0.4908640000000  0.6013260000000 1.0
C      1  0.5486080000000  0.3784900000000  0.4686020000000 1.0
C      1  0.5357300000000  0.4847750000000  0.5989080000000 1.0
C      1  0.5630330000000  0.4455350000000  0.3979150000000 1.0
C      1  0.4315630000000  0.4975100000000  0.4214180000000 1.0
C      1  0.6120460000000  0.5249770000000  0.5551650000000 1.0
C      1  0.4774890000000  0.4353000000000  0.5323900000000 1.0
C      1  0.5148960000000  0.5350840000000  0.4545830000000 1.0
C      1  0.5290340000000  0.5523510000000  0.5781700000000 1.0
C      1  0.4311020000000  0.4449470000000  0.5880150000000 1.0
C      1  0.5579080000000  0.5019860000000  0.4680550000000 1.0
C      1  0.4721530000000  0.4435830000000  0.4243150000000 1.0
C      1  0.4676740000000  0.5454180000000  0.5457730000000 1.0
C      1  0.5076840000000  0.4718710000000  0.4366250000000 1.0
C      1  0.4357840000000  0.4819650000000  0.4630930000000 1.0
C      1  0.4713550000000  0.4948710000000  0.4944690000000 1.0
C      1  0.4554490000000  0.4816810000000  0.5149740000000 1.0
C      1  0.6090500000000  0.5469830000000  0.5401020000000 1.0
C      1  0.4241120000000  0.5620680000000  0.4937010000000 1.0
C      1  0.4093620000000  0.4769440000000  0.4993350000000 1.0
C      1  0.5265980000000  0.4513340000000  0.4393520000000 1.0
C      1  0.5758430000000  0.5633840000000  0.5039460000000 1.0
C      1  0.4863660000000  0.4683210000000  0.4177250000000 1.0
C      1  0.5493320000000  0.4551870000000  0.4555120000000 1.0
C      1  0.5089000000000  0.5072800000000  0.3669000000000 1.0
C      1  0.5148020000000  0.5966900000000  0.5045130000000 1.0
C      1  0.4681260000000  0.4558570000000  0.5148370000000 1.0
C      1  0.4891090000000  0.4226650000000  0.4374910000000 1.0
C      1  0.3957660000000  0.5746070000000  0.5946320000000 1.0
C      1  0.4378280000000  0.4262770000000  0.4533220000000 1.0
C      1  0.5135460000000  0.5433070000000  0.4833030000000 1.0
C      1  0.4949260000000  0.5147630000000  0.4531640000000 1.0
C      1  0.4210190000000  0.5202250000000  0.5156520000000 1.0
C      1  0.4510510000000  0.5383770000000  0.4419810000000 1.0
C      1  0.5388570000000  0.4058380000000  0.5099870000000 1.0
C      1  0.5634200000000  0.5356760000000  0.5002820000000 1.0
C      1  0.4278640000000  0.4919900000000  0.5163040000000 1.0
C      1  0.4546730000000  0.4154520000000  0.4740080000000 1.0
C      1  0.4194550000000  0.5413930000000  0.5355200000000 1.0
C      1  0.5508270000000  0.4416850000000  0.4805550000000 1.0
C      1  0.5471110000000  0.5197430000000  0.4169530000000 1.0
C      1  0.4829290000000  0.4160820000000  0.4655380000000 1.0
C      1  0.5008590000000  0.4292780000000  0.4840440000000 1.0
C      1  0.5246600000000  0.5345570000000  0.4263950000000 1.0
C      1  0.4450260000000  0.4461010000000  0.4337600000000 1.0
C      1  0.4389380000000  0.5901890000000  0.5305450000000 1.0
C      1  0.4169430000000  0.5344700000000  0.4889920000000 1.0
C      1  0.5470020000000  0.4137630000000  0.5366920000000 1.0
C      1  0.5271820000000  0.5426640000000  0.5308610000000 1.0
C      1  0.5632670000000  0.4952650000000  0.5372450000000 1.0
C      1  0.5630860000000  0.5081790000000  0.5127440000000 1.0
C      1  0.4199930000000  0.4196740000000  0.5821830000000 1.0
C      1  0.5657680000000  0.5302030000000  0.4693680000000 1.0
C      1  0.5207560000000  0.4611150000000  0.5253210000000 1.0
C      1  0.6034270000000  0.5051890000000  0.5713200000000 1.0
C      1  0.5688240000000  0.5242190000000  0.5971340000000 1.0
C      1  0.5025830000000  0.5349360000000  0.4070260000000 1.0
C      1  0.5244860000000  0.6015710000000  0.5319330000000 1.0
C      1  0.5731080000000  0.4464110000000  0.4975150000000 1.0
C      1  0.4965960000000  0.5240700000000  0.5972920000000 1.0
C      1  0.4005890000000  0.5507250000000  0.5836120000000 1.0
C      1  0.5566190000000  0.4207350000000  0.4066540000000 1.0
C      1  0.4255200000000  0.6093160000000  0.5460530000000 1.0
C      1  0.4102060000000  0.4899400000000  0.4735600000000 1.0
C      1  0.5353260000000  0.5930200000000  0.4829430000000 1.0
C      1  0.4837090000000  0.5929870000000  0.5013760000000 1.0
C      1  0.4076430000000  0.4489850000000  0.5012840000000 1.0
C      1  0.4873250000000  0.5422690000000  0.4968900000000 1.0
C      1  0.5806720000000  0.4999210000000  0.5873170000000 1.0
C      1  0.3997360000000  0.6003210000000  0.5882760000000 1.0
C      1  0.5119230000000  0.5021540000000  0.5503580000000 1.0
C      1  0.4082950000000  0.4137160000000  0.5340820000000 1.0
C      1  0.5173510000000  0.4251760000000  0.4323790000000 1.0
C      1  0.5966900000000  0.5634030000000  0.5227350000000 1.0
C      1  0.4725890000000  0.5106010000000  0.6026950000000 1.0
C      1  0.4811100000000  0.5633160000000  0.5639850000000 1.0
C      1  0.4783750000000  0.4912100000000  0.4016640000000 1.0
C      1  0.5395180000000  0.4981870000000  0.5520600000000 1.0
C      1  0.5389320000000  0.4080550000000  0.4251300000000 1.0
C      1  0.4977520000000  0.4804890000000  0.4868250000000 1.0
C      1  0.4501880000000  0.3989880000000  0.5487490000000 1.0
C      1  0.5046100000000  0.4427780000000  0.5382220000000 1.0
C      1  0.4995290000000  0.5501470000000  0.5823710000000 1.0
C      1  0.4826750000000  0.5547840000000  0.4101030000000 1.0
C      1  0.5059760000000  0.5248210000000  0.5357070000000 1.0
C      1  0.5352470000000  0.4973810000000  0.3225270000000 1.0
END
