TITL C-627106-156-708 -7548.39532710472 125000 -962.04653324994 0 0 160 (C1) n - 1
REM
REM in /home/nfs/bkarasulu/CARBON/AIRSS/Generating-Clusters/LCBOP/Only-C1/SD-CG/FIRE-CG
REM
REM
REM
REM
REM
REM ./C.cell (11c1c37f851c82e70ff6c80c92926a4b)
REM AIRSS Version 0.9.1 bugfix July 2018 build 013d7b7c2542+ Fri, 06 Jul 2018 19:26:36 +0100
REM compiler GCC version 9.2.1 20190827 (Red Hat 9.2.1-1)
REM options -cpp -mtune=generic -march=x86-64 -g -O0 -fpre-include=/usr/include/finclude/math-vector-fortran.h
REM seed -988300965 -685374161 1080937755 -2040543052 432728928 -1971133014 157175533 921722819 -726642375 2049668196 -1204388391 -1930235047 -398617987 903531926 189527097 1258414739 1109687394 -742961359 -259155922 1796810013 1411310433 1949846141 2130363156 -182294144 1546956321 -1462381903 332916812 426326748 228141418 744405496 201311519 -755827132 -425540813
REM
CELL 1.54180   50.00000   50.00000   50.00000   90.00000   90.00000   90.00000
LATT -1
SFAC C  
C      1  0.6034090000000  0.4899000000000  0.5067960000000 1.0
C      1  0.4292240000000  0.5802760000000  0.5374220000000 1.0
C      1  0.5909470000000  0.4987550000000  0.4822180000000 1.0
C      1  0.5518130000000  0.4946820000000  0.5273400000000 1.0
C      1  0.5655980000000  0.4866920000000  0.4803300000000 1.0
C      1  0.5305130000000  0.5398770000000  0.4742980000000 1.0
C      1  0.4884290000000  0.5868130000000  0.5646730000000 1.0
C      1  0.4499230000000  0.4018870000000  0.5824710000000 1.0
C      1  0.4543490000000  0.3765330000000  0.5917090000000 1.0
C      1  0.4899160000000  0.5277710000000  0.5287540000000 1.0
C      1  0.6006730000000  0.4614130000000  0.5128670000000 1.0
C      1  0.5614510000000  0.4456750000000  0.6480260000000 1.0
C      1  0.5141690000000  0.3998670000000  0.4520160000000 1.0
C      1  0.5241130000000  0.4418070000000  0.5209490000000 1.0
C      1  0.4338370000000  0.4705310000000  0.5143680000000 1.0
C      1  0.4383200000000  0.5671870000000  0.3669770000000 1.0
C      1  0.4748520000000  0.4998710000000  0.5727630000000 1.0
C      1  0.4197930000000  0.4740690000000  0.5625540000000 1.0
C      1  0.5676680000000  0.5773440000000  0.4330170000000 1.0
C      1  0.5759560000000  0.5992540000000  0.4474860000000 1.0
C      1  0.4614110000000  0.4786640000000  0.4416220000000 1.0
C      1  0.5512470000000  0.4323030000000  0.5615610000000 1.0
C      1  0.4238980000000  0.4305540000000  0.3765650000000 1.0
C      1  0.5155980000000  0.5855300000000  0.5584960000000 1.0
C      1  0.5683900000000  0.5058520000000  0.5704680000000 1.0
C      1  0.5327090000000  0.5526690000000  0.5229100000000 1.0
C      1  0.4745000000000  0.5030890000000  0.4331250000000 1.0
C      1  0.4840920000000  0.6046670000000  0.4860470000000 1.0
C      1  0.4715120000000  0.5235970000000  0.4737720000000 1.0
C      1  0.4593480000000  0.4244010000000  0.5971440000000 1.0
C      1  0.5423500000000  0.5500840000000  0.4970490000000 1.0
C      1  0.5249250000000  0.6555490000000  0.4407250000000 1.0
C      1  0.5512430000000  0.4799740000000  0.5031050000000 1.0
C      1  0.4737810000000  0.5632190000000  0.5025670000000 1.0
C      1  0.5932370000000  0.5542280000000  0.5447380000000 1.0
C      1  0.5081600000000  0.4272850000000  0.5890300000000 1.0
C      1  0.5972890000000  0.5092670000000  0.5273820000000 1.0
C      1  0.4754870000000  0.4566300000000  0.4323330000000 1.0
C      1  0.4547230000000  0.4244310000000  0.4871000000000 1.0
C      1  0.5325820000000  0.5839530000000  0.6202170000000 1.0
C      1  0.5289920000000  0.3979160000000  0.4961470000000 1.0
C      1  0.5637620000000  0.5311420000000  0.3809530000000 1.0
C      1  0.5302880000000  0.5693920000000  0.5433590000000 1.0
C      1  0.4542810000000  0.4111340000000  0.4592930000000 1.0
C      1  0.5241270000000  0.4934440000000  0.5675970000000 1.0
C      1  0.5138130000000  0.5267620000000  0.5992820000000 1.0
C      1  0.5632070000000  0.5324060000000  0.5783490000000 1.0
C      1  0.5413940000000  0.4133270000000  0.4534410000000 1.0
C      1  0.5292760000000  0.3821100000000  0.5430160000000 1.0
C      1  0.3837730000000  0.4665440000000  0.4517880000000 1.0
C      1  0.4805830000000  0.5535950000000  0.5277390000000 1.0
C      1  0.5975320000000  0.5378940000000  0.5215860000000 1.0
C      1  0.4088240000000  0.4830500000000  0.5088060000000 1.0
C      1  0.5027060000000  0.5065370000000  0.5810830000000 1.0
C      1  0.4059340000000  0.4286010000000  0.4219370000000 1.0
C      1  0.5088200000000  0.4456170000000  0.5442130000000 1.0
C      1  0.5094300000000  0.6111220000000  0.4983800000000 1.0
C      1  0.4903630000000  0.5102500000000  0.4566030000000 1.0
C      1  0.5453810000000  0.5686170000000  0.6010650000000 1.0
C      1  0.5814100000000  0.5287250000000  0.4452300000000 1.0
C      1  0.4451740000000  0.5110390000000  0.4718570000000 1.0
C      1  0.5732590000000  0.4220910000000  0.4958010000000 1.0
C      1  0.5717250000000  0.4340520000000  0.5436490000000 1.0
C      1  0.5363490000000  0.6067220000000  0.4982510000000 1.0
C      1  0.4292630000000  0.4106820000000  0.5332350000000 1.0
C      1  0.5057950000000  0.4913630000000  0.4705820000000 1.0
C      1  0.3954910000000  0.5501570000000  0.5051510000000 1.0
C      1  0.4134500000000  0.5738100000000  0.3710950000000 1.0
C      1  0.3862300000000  0.5250580000000  0.5014700000000 1.0
C      1  0.5787540000000  0.5554520000000  0.5689100000000 1.0
C      1  0.5392240000000  0.4552120000000  0.5040370000000 1.0
C      1  0.4835000000000  0.5666850000000  0.3838690000000 1.0
C      1  0.4999270000000  0.5742700000000  0.4031960000000 1.0
C      1  0.5515300000000  0.4102270000000  0.4814230000000 1.0
C      1  0.4617130000000  0.3611080000000  0.5333440000000 1.0
C      1  0.5487540000000  0.4877990000000  0.5810660000000 1.0
C      1  0.5852560000000  0.5544740000000  0.4324640000000 1.0
C      1  0.4976280000000  0.4071480000000  0.4297680000000 1.0
C      1  0.5273450000000  0.4998900000000  0.5400690000000 1.0
C      1  0.4860610000000  0.4282180000000  0.6063700000000 1.0
C      1  0.4932740000000  0.4805210000000  0.5161040000000 1.0
C      1  0.4955700000000  0.4460410000000  0.4801520000000 1.0
C      1  0.5829260000000  0.4424940000000  0.4094970000000 1.0
C      1  0.4793420000000  0.5682100000000  0.4559420000000 1.0
C      1  0.5748640000000  0.5014240000000  0.5430220000000 1.0
C      1  0.4732440000000  0.5458250000000  0.3418860000000 1.0
C      1  0.5233560000000  0.5353220000000  0.4497350000000 1.0
C      1  0.4783370000000  0.6045850000000  0.5826940000000 1.0
C      1  0.4332570000000  0.5837570000000  0.5088720000000 1.0
C      1  0.4724110000000  0.5684010000000  0.5505370000000 1.0
C      1  0.4883300000000  0.5948660000000  0.4586790000000 1.0
C      1  0.4419500000000  0.4485540000000  0.3667030000000 1.0
C      1  0.5553150000000  0.6047750000000  0.3723280000000 1.0
C      1  0.4581540000000  0.5204970000000  0.4182230000000 1.0
C      1  0.4971950000000  0.5098620000000  0.6457310000000 1.0
C      1  0.5462970000000  0.5816640000000  0.4144190000000 1.0
C      1  0.4651160000000  0.5597610000000  0.3639730000000 1.0
C      1  0.4361250000000  0.4139050000000  0.5075430000000 1.0
C      1  0.5177640000000  0.3955250000000  0.5223200000000 1.0
C      1  0.4290550000000  0.5302900000000  0.4562230000000 1.0
C      1  0.5573670000000  0.4588930000000  0.6259310000000 1.0
C      1  0.5160490000000  0.6310520000000  0.4403220000000 1.0
C      1  0.4895360000000  0.4046430000000  0.5213570000000 1.0
C      1  0.4446500000000  0.5651140000000  0.5558900000000 1.0
C      1  0.4930050000000  0.4463490000000  0.4517100000000 1.0
C      1  0.5684800000000  0.5766960000000  0.5855430000000 1.0
C      1  0.5202870000000  0.5975970000000  0.6387040000000 1.0
C      1  0.5892240000000  0.5462940000000  0.4944050000000 1.0
C      1  0.4617600000000  0.5897410000000  0.5003570000000 1.0
C      1  0.5838250000000  0.4381560000000  0.5176570000000 1.0
C      1  0.4462380000000  0.4603250000000  0.4892850000000 1.0
C      1  0.5388890000000  0.5408330000000  0.5938970000000 1.0
C      1  0.3905390000000  0.4981960000000  0.4938500000000 1.0
C      1  0.4911600000000  0.4589380000000  0.6491680000000 1.0
C      1  0.5415710000000  0.4319540000000  0.4305840000000 1.0
C      1  0.6092260000000  0.5578450000000  0.4190950000000 1.0
C      1  0.4853500000000  0.4196260000000  0.4937500000000 1.0
C      1  0.4410840000000  0.4732910000000  0.5430800000000 1.0
C      1  0.5229610000000  0.4353200000000  0.5667650000000 1.0
C      1  0.5712780000000  0.5066210000000  0.4279050000000 1.0
C      1  0.4347120000000  0.5298540000000  0.4283050000000 1.0
C      1  0.4879300000000  0.4642840000000  0.5394940000000 1.0
C      1  0.4673840000000  0.4456680000000  0.4077100000000 1.0
C      1  0.4261990000000  0.4215420000000  0.4036710000000 1.0
C      1  0.4756620000000  0.5505830000000  0.4777500000000 1.0
C      1  0.5906540000000  0.5258600000000  0.4728020000000 1.0
C      1  0.4676400000000  0.4771010000000  0.5546470000000 1.0
C      1  0.4717350000000  0.3850830000000  0.5306040000000 1.0
C      1  0.4399460000000  0.5414010000000  0.5705930000000 1.0
C      1  0.4931280000000  0.4849770000000  0.6542650000000 1.0
C      1  0.5595880000000  0.5924930000000  0.4955240000000 1.0
C      1  0.4677700000000  0.4075320000000  0.4336420000000 1.0
C      1  0.5617730000000  0.4515560000000  0.4248340000000 1.0
C      1  0.5668550000000  0.5646900000000  0.4935810000000 1.0
C      1  0.3738690000000  0.5018710000000  0.5612600000000 1.0
C      1  0.4247490000000  0.4615390000000  0.5871200000000 1.0
C      1  0.4542930000000  0.5193760000000  0.5770340000000 1.0
C      1  0.5634070000000  0.4792300000000  0.4327050000000 1.0
C      1  0.4475930000000  0.4810170000000  0.4675620000000 1.0
C      1  0.5080420000000  0.6043080000000  0.4402180000000 1.0
C      1  0.5686670000000  0.5139400000000  0.4005910000000 1.0
C      1  0.5526060000000  0.4718550000000  0.6033240000000 1.0
C      1  0.5049030000000  0.3996620000000  0.4783350000000 1.0
C      1  0.3815110000000  0.4858840000000  0.4701580000000 1.0
C      1  0.4896620000000  0.4384640000000  0.6322580000000 1.0
C      1  0.4160200000000  0.5659750000000  0.4931490000000 1.0
C      1  0.4347230000000  0.4065190000000  0.5590840000000 1.0
C      1  0.3961960000000  0.4885550000000  0.5593120000000 1.0
C      1  0.5043830000000  0.5048170000000  0.5249960000000 1.0
C      1  0.5186240000000  0.5864330000000  0.4203740000000 1.0
C      1  0.4228300000000  0.5552470000000  0.4680120000000 1.0
C      1  0.4630860000000  0.4565990000000  0.3819910000000 1.0
C      1  0.3923710000000  0.4458020000000  0.4372820000000 1.0
C      1  0.5040450000000  0.5259640000000  0.6256410000000 1.0
C      1  0.5583640000000  0.5565200000000  0.3750580000000 1.0
C      1  0.4407550000000  0.4451340000000  0.6005360000000 1.0
C      1  0.4984650000000  0.4721400000000  0.4900960000000 1.0
C      1  0.4535260000000  0.4206030000000  0.4124970000000 1.0
C      1  0.5533500000000  0.5815590000000  0.3865640000000 1.0
C      1  0.5168630000000  0.4248050000000  0.4151230000000 1.0
END
