TITL C-627107-135-749 0.00252573349130455 125000 -729.02998220011 0 0 118 (C1) n - 1
REM
REM in /home/nfs/bkarasulu/CARBON/AIRSS/Generating-Clusters/LCBOP/Only-C1/SD-CG/FIRE-CG
REM
REM
REM
REM
REM
REM ./C.cell (11c1c37f851c82e70ff6c80c92926a4b)
REM AIRSS Version 0.9.1 bugfix July 2018 build 013d7b7c2542+ Fri, 06 Jul 2018 19:26:36 +0100
REM compiler GCC version 9.2.1 20190827 (Red Hat 9.2.1-1)
REM options -cpp -mtune=generic -march=x86-64 -g -O0 -fpre-include=/usr/include/finclude/math-vector-fortran.h
REM seed -1159560883 -1221194049 -942063626 1911661911 -1787814301 438228695 -1137843414 140518607 1225908609 1149594309 -1272521961 -2071456816 306747313 -18369289 1068070260 1407883243 -1299907431 -130907066 1868391496 1170628042 -1990281987 1918694392 1289683661 1285629012 -447119211 178471769 682097530 -1021869075 -1566324608 -704408947 3423581 724840495 -1895331364
REM
CELL 1.54180   50.00000   50.00000   50.00000   90.00000   90.00000   90.00000
LATT -1
SFAC C  
C      1  0.4686770000000  0.5169930000000  0.5165450000000 1.0
C      1  0.4079080000000  0.4959710000000  0.4988880000000 1.0
C      1  0.5540770000000  0.4604870000000  0.4320000000000 1.0
C      1  0.4740600000000  0.5289400000000  0.4180340000000 1.0
C      1  0.6039630000000  0.5236820000000  0.4796560000000 1.0
C      1  0.6093650000000  0.4309050000000  0.5274660000000 1.0
C      1  0.4732360000000  0.5701800000000  0.4509730000000 1.0
C      1  0.5883630000000  0.5729110000000  0.4391070000000 1.0
C      1  0.5392450000000  0.4969480000000  0.4052360000000 1.0
C      1  0.5399250000000  0.4646220000000  0.4563430000000 1.0
C      1  0.5219520000000  0.5775100000000  0.6063850000000 1.0
C      1  0.4708700000000  0.5632440000000  0.4986030000000 1.0
C      1  0.4776150000000  0.4842120000000  0.4740890000000 1.0
C      1  0.5601860000000  0.5419200000000  0.5699620000000 1.0
C      1  0.4030490000000  0.4716250000000  0.5149240000000 1.0
C      1  0.5132310000000  0.5031330000000  0.5580720000000 1.0
C      1  0.5181780000000  0.4481240000000  0.5222020000000 1.0
C      1  0.4741250000000  0.5013570000000  0.5841500000000 1.0
C      1  0.5109140000000  0.5582440000000  0.4242750000000 1.0
C      1  0.5620830000000  0.4273180000000  0.5189340000000 1.0
C      1  0.4946000000000  0.5065250000000  0.5156540000000 1.0
C      1  0.5277660000000  0.5457800000000  0.4946580000000 1.0
C      1  0.5165890000000  0.4931240000000  0.6054270000000 1.0
C      1  0.5216400000000  0.5430500000000  0.4015920000000 1.0
C      1  0.4675730000000  0.4317590000000  0.4198380000000 1.0
C      1  0.4058940000000  0.4673860000000  0.5435350000000 1.0
C      1  0.4942460000000  0.5643090000000  0.5689050000000 1.0
C      1  0.5292340000000  0.5584390000000  0.4470580000000 1.0
C      1  0.4229540000000  0.5904360000000  0.4573620000000 1.0
C      1  0.6130300000000  0.4791050000000  0.4977770000000 1.0
C      1  0.5518960000000  0.5408980000000  0.4364330000000 1.0
C      1  0.4501280000000  0.5007280000000  0.5300030000000 1.0
C      1  0.4635930000000  0.5357200000000  0.4965170000000 1.0
C      1  0.4153390000000  0.5820880000000  0.4830840000000 1.0
C      1  0.4203580000000  0.4239790000000  0.5061160000000 1.0
C      1  0.5255690000000  0.5102700000000  0.5832540000000 1.0
C      1  0.4503960000000  0.4973210000000  0.4717560000000 1.0
C      1  0.5131170000000  0.4692900000000  0.4492170000000 1.0
C      1  0.4556940000000  0.5213650000000  0.5894370000000 1.0
C      1  0.5166700000000  0.5629720000000  0.4741380000000 1.0
C      1  0.5419350000000  0.5248580000000  0.4125380000000 1.0
C      1  0.6213510000000  0.5026500000000  0.4874570000000 1.0
C      1  0.5264380000000  0.5942580000000  0.6264150000000 1.0
C      1  0.4520800000000  0.5253630000000  0.4734400000000 1.0
C      1  0.4869130000000  0.4923760000000  0.6076300000000 1.0
C      1  0.4654970000000  0.4038070000000  0.5145110000000 1.0
C      1  0.4064170000000  0.4395250000000  0.5502530000000 1.0
C      1  0.4546520000000  0.5480250000000  0.5885240000000 1.0
C      1  0.4648700000000  0.4569560000000  0.4036220000000 1.0
C      1  0.4452410000000  0.4064730000000  0.4635990000000 1.0
C      1  0.4139460000000  0.4193620000000  0.5334890000000 1.0
C      1  0.4994840000000  0.4516030000000  0.6212330000000 1.0
C      1  0.4751380000000  0.4664300000000  0.6152020000000 1.0
C      1  0.5227340000000  0.4665720000000  0.6159300000000 1.0
C      1  0.4876500000000  0.4140010000000  0.5295950000000 1.0
C      1  0.5978210000000  0.5270690000000  0.4518240000000 1.0
C      1  0.4765340000000  0.4544590000000  0.4696210000000 1.0
C      1  0.5364000000000  0.4680130000000  0.4097040000000 1.0
C      1  0.5170540000000  0.5595170000000  0.5854600000000 1.0
C      1  0.5762370000000  0.5431020000000  0.5486280000000 1.0
C      1  0.4505820000000  0.5729020000000  0.5172200000000 1.0
C      1  0.6315830000000  0.4208050000000  0.5377750000000 1.0
C      1  0.4469210000000  0.4159520000000  0.4933600000000 1.0
C      1  0.5825220000000  0.5272310000000  0.4981700000000 1.0
C      1  0.4301930000000  0.5105360000000  0.5481030000000 1.0
C      1  0.4969040000000  0.4335770000000  0.4260010000000 1.0
C      1  0.4879410000000  0.5703750000000  0.4761920000000 1.0
C      1  0.5124450000000  0.4501790000000  0.4049260000000 1.0
C      1  0.4186790000000  0.4866480000000  0.5618500000000 1.0
C      1  0.5429770000000  0.4671540000000  0.4842610000000 1.0
C      1  0.5606400000000  0.5099700000000  0.4922170000000 1.0
C      1  0.4794040000000  0.4657280000000  0.5466750000000 1.0
C      1  0.5647200000000  0.4817040000000  0.4942890000000 1.0
C      1  0.5196380000000  0.4667250000000  0.5012020000000 1.0
C      1  0.4059870000000  0.6046770000000  0.4414190000000 1.0
C      1  0.4769270000000  0.5024900000000  0.4291870000000 1.0
C      1  0.5962410000000  0.5975970000000  0.4363470000000 1.0
C      1  0.5308110000000  0.6107340000000  0.6461390000000 1.0
C      1  0.5878330000000  0.4674520000000  0.5034100000000 1.0
C      1  0.4778560000000  0.5299490000000  0.3895400000000 1.0
C      1  0.4607690000000  0.4815470000000  0.4174830000000 1.0
C      1  0.5136330000000  0.5174520000000  0.5334320000000 1.0
C      1  0.5860940000000  0.4419310000000  0.5164280000000 1.0
C      1  0.4303520000000  0.4749950000000  0.5862240000000 1.0
C      1  0.5030100000000  0.5367010000000  0.3812710000000 1.0
C      1  0.5817240000000  0.4622080000000  0.4290430000000 1.0
C      1  0.4267210000000  0.5390660000000  0.5432890000000 1.0
C      1  0.5365070000000  0.5213290000000  0.4820020000000 1.0
C      1  0.4928890000000  0.4430880000000  0.5361150000000 1.0
C      1  0.4229750000000  0.5691840000000  0.5065330000000 1.0
C      1  0.4968740000000  0.4946220000000  0.4514020000000 1.0
C      1  0.5352920000000  0.5372750000000  0.5824970000000 1.0
C      1  0.4564540000000  0.4733800000000  0.5322820000000 1.0
C      1  0.4518990000000  0.4160330000000  0.4384380000000 1.0
C      1  0.5242920000000  0.5417580000000  0.5226880000000 1.0
C      1  0.6535510000000  0.4110220000000  0.5478420000000 1.0
C      1  0.5838540000000  0.5395990000000  0.5232560000000 1.0
C      1  0.4115580000000  0.5453990000000  0.5186680000000 1.0
C      1  0.5149750000000  0.4033940000000  0.5264460000000 1.0
C      1  0.4899110000000  0.4580560000000  0.3879290000000 1.0
C      1  0.4618990000000  0.4411820000000  0.4883740000000 1.0
C      1  0.6057510000000  0.5063330000000  0.4345740000000 1.0
C      1  0.4886800000000  0.4883440000000  0.5623900000000 1.0
C      1  0.4978920000000  0.4852930000000  0.4979910000000 1.0
C      1  0.5346840000000  0.4242550000000  0.5223720000000 1.0
C      1  0.6007120000000  0.4809510000000  0.4280920000000 1.0
C      1  0.4016150000000  0.5227250000000  0.5049690000000 1.0
C      1  0.4491420000000  0.5598830000000  0.5437290000000 1.0
C      1  0.5178810000000  0.5127440000000  0.4623650000000 1.0
C      1  0.4083590000000  0.4482000000000  0.4964060000000 1.0
C      1  0.4660880000000  0.5614990000000  0.5665160000000 1.0
C      1  0.5792510000000  0.5466550000000  0.4425700000000 1.0
C      1  0.4161620000000  0.4601110000000  0.4714210000000 1.0
C      1  0.4242870000000  0.4872210000000  0.4755810000000 1.0
C      1  0.4486260000000  0.4640230000000  0.6038110000000 1.0
C      1  0.4968500000000  0.4462050000000  0.4515080000000 1.0
C      1  0.4487680000000  0.5834800000000  0.4487440000000 1.0
C      1  0.4835120000000  0.5531840000000  0.4307530000000 1.0
END
