TITL C-627108-131-350 0.0469339654609035 125000 -451.459871138673 0 0 74 (C1) n - 1
REM
REM in /home/nfs/bkarasulu/CARBON/AIRSS/Generating-Clusters/LCBOP/Only-C1/SD-CG/FIRE-CG
REM
REM
REM
REM
REM
REM ./C.cell (11c1c37f851c82e70ff6c80c92926a4b)
REM AIRSS Version 0.9.1 bugfix July 2018 build 013d7b7c2542+ Fri, 06 Jul 2018 19:26:36 +0100
REM compiler GCC version 9.2.1 20190827 (Red Hat 9.2.1-1)
REM options -cpp -mtune=generic -march=x86-64 -g -O0 -fpre-include=/usr/include/finclude/math-vector-fortran.h
REM seed 69926306 18856854 -1795501322 1499763652 -1340262241 901565596 310395537 -1401413353 795520989 880725222 1648501425 1761893812 -132748109 -1264595992 -1637139894 -752991825 1149960082 2010583426 1369885409 1855156993 -1282387593 141447948 -602817893 930284999 526742340 -1605838195 360352753 1922912761 127741378 2039052939 1942207110 2068185185 355225205
REM
CELL 1.54180   50.00000   50.00000   50.00000   90.00000   90.00000   90.00000
LATT -1
SFAC C  
C      1  0.4686420000000  0.5424490000000  0.5402300000000 1.0
C      1  0.5083150000000  0.4698580000000  0.5010090000000 1.0
C      1  0.4557840000000  0.4878780000000  0.4337840000000 1.0
C      1  0.4933120000000  0.4247910000000  0.5248650000000 1.0
C      1  0.4186380000000  0.4815000000000  0.5147240000000 1.0
C      1  0.5525870000000  0.5335790000000  0.5329720000000 1.0
C      1  0.4459600000000  0.4432000000000  0.5214510000000 1.0
C      1  0.5778440000000  0.4927110000000  0.5326970000000 1.0
C      1  0.5141220000000  0.4557400000000  0.5581820000000 1.0
C      1  0.5226270000000  0.5069190000000  0.5647250000000 1.0
C      1  0.5291870000000  0.5557160000000  0.5679180000000 1.0
C      1  0.5508230000000  0.5077100000000  0.4931730000000 1.0
C      1  0.4909000000000  0.4605750000000  0.5746900000000 1.0
C      1  0.4562890000000  0.5636970000000  0.4973960000000 1.0
C      1  0.4729450000000  0.4985980000000  0.5155160000000 1.0
C      1  0.5609400000000  0.5278600000000  0.4538120000000 1.0
C      1  0.5080540000000  0.5248240000000  0.4711700000000 1.0
C      1  0.5490530000000  0.4404870000000  0.4724770000000 1.0
C      1  0.5532300000000  0.5563690000000  0.5160940000000 1.0
C      1  0.5238160000000  0.4821530000000  0.5500020000000 1.0
C      1  0.4385870000000  0.4837480000000  0.4576240000000 1.0
C      1  0.4280000000000  0.5289130000000  0.5158830000000 1.0
C      1  0.5297140000000  0.4815280000000  0.4000770000000 1.0
C      1  0.4807260000000  0.5203930000000  0.4709550000000 1.0
C      1  0.4774240000000  0.4218820000000  0.4765170000000 1.0
C      1  0.5794350000000  0.4660290000000  0.5335530000000 1.0
C      1  0.5709160000000  0.5067070000000  0.4721870000000 1.0
C      1  0.5101990000000  0.5738060000000  0.5032690000000 1.0
C      1  0.4776630000000  0.5163920000000  0.5345250000000 1.0
C      1  0.5299750000000  0.4574310000000  0.4601150000000 1.0
C      1  0.5011750000000  0.5182080000000  0.4177860000000 1.0
C      1  0.5606790000000  0.5104550000000  0.5196030000000 1.0
C      1  0.4562430000000  0.5241380000000  0.5918440000000 1.0
C      1  0.4245020000000  0.5293540000000  0.4863910000000 1.0
C      1  0.5369310000000  0.5635620000000  0.4935330000000 1.0
C      1  0.5097610000000  0.5804780000000  0.5314520000000 1.0
C      1  0.5339580000000  0.4348540000000  0.3762940000000 1.0
C      1  0.5254640000000  0.5045850000000  0.4798970000000 1.0
C      1  0.4708720000000  0.5024530000000  0.4894250000000 1.0
C      1  0.4239030000000  0.5043940000000  0.5307110000000 1.0
C      1  0.4334040000000  0.4606000000000  0.5028950000000 1.0
C      1  0.5666830000000  0.4493100000000  0.5152170000000 1.0
C      1  0.5318790000000  0.4581740000000  0.3877600000000 1.0
C      1  0.5441380000000  0.5512990000000  0.4663360000000 1.0
C      1  0.5424560000000  0.4324440000000  0.5196520000000 1.0
C      1  0.4919100000000  0.4149340000000  0.4981760000000 1.0
C      1  0.4418090000000  0.4605090000000  0.4749550000000 1.0
C      1  0.4328140000000  0.4989510000000  0.5574040000000 1.0
C      1  0.5181170000000  0.4348750000000  0.5369610000000 1.0
C      1  0.5269040000000  0.5047550000000  0.4151530000000 1.0
C      1  0.4834180000000  0.5719250000000  0.4929920000000 1.0
C      1  0.4482660000000  0.5500000000000  0.5221770000000 1.0
C      1  0.5391950000000  0.4217840000000  0.4923980000000 1.0
C      1  0.4588090000000  0.4390640000000  0.4676030000000 1.0
C      1  0.4823110000000  0.5535360000000  0.5625410000000 1.0
C      1  0.4674080000000  0.5290530000000  0.4473530000000 1.0
C      1  0.5378640000000  0.5308130000000  0.5573740000000 1.0
C      1  0.4822980000000  0.5346620000000  0.5844650000000 1.0
C      1  0.4739020000000  0.5098170000000  0.4264730000000 1.0
C      1  0.5079820000000  0.5449780000000  0.4279490000000 1.0
C      1  0.5062340000000  0.5681210000000  0.5567750000000 1.0
C      1  0.4493500000000  0.5500760000000  0.4504280000000 1.0
C      1  0.5176220000000  0.4824650000000  0.5227330000000 1.0
C      1  0.4982300000000  0.5096530000000  0.5801630000000 1.0
C      1  0.5495500000000  0.5167260000000  0.4290130000000 1.0
C      1  0.4789600000000  0.4861980000000  0.5793050000000 1.0
C      1  0.4388410000000  0.5531660000000  0.4763750000000 1.0
C      1  0.4676820000000  0.4331580000000  0.5336420000000 1.0
C      1  0.4516250000000  0.4984030000000  0.5786890000000 1.0
C      1  0.5810740000000  0.4795970000000  0.4734640000000 1.0
C      1  0.5173960000000  0.4773250000000  0.4754780000000 1.0
C      1  0.5708050000000  0.4554860000000  0.4858920000000 1.0
C      1  0.5177990000000  0.5460520000000  0.4544170000000 1.0
C      1  0.4240700000000  0.5061710000000  0.4692630000000 1.0
END
