TITL C-627110-360-984 967.648367758907 125000 -207.403300264779 0 0 35 (C1) n - 1
REM
REM in /home/nfs/bkarasulu/CARBON/AIRSS/Generating-Clusters/LCBOP/Only-C1/SD-CG/FIRE-CG
REM
REM
REM
REM
REM
REM ./C.cell (11c1c37f851c82e70ff6c80c92926a4b)
REM AIRSS Version 0.9.1 bugfix July 2018 build 013d7b7c2542+ Fri, 06 Jul 2018 19:26:36 +0100
REM compiler GCC version 9.2.1 20190827 (Red Hat 9.2.1-1)
REM options -cpp -mtune=generic -march=x86-64 -g -O0 -fpre-include=/usr/include/finclude/math-vector-fortran.h
REM seed 178609709 -686991042 -1608232064 1469064 1891163428 -670776776 527481834 -5756630 -1208829703 1471360171 -158423877 -1399719796 1349190693 -1835189581 430261972 -1217722270 1747897135 -287190872 230773874 -581015514 -398101837 1931635803 -1018693856 1945171098 590679072 -1162146888 -453769792 -1587061892 183658926 -1555996103 908662361 1606939621 629622037
REM
CELL 1.54180   50.00000   50.00000   50.00000   90.00000   90.00000   90.00000
LATT -1
SFAC C  
C      1  0.4631270000000  0.4997150000000  0.5673460000000 1.0
C      1  0.4544680000000  0.4729920000000  0.5646600000000 1.0
C      1  0.5215840000000  0.5296780000000  0.5040090000000 1.0
C      1  0.4434010000000  0.5070170000000  0.4656890000000 1.0
C      1  0.6725830000000  0.4002140000000  0.3702970000000 1.0
C      1  0.4187250000000  0.5099420000000  0.4754920000000 1.0
C      1  0.4584720000000  0.5167120000000  0.5444280000000 1.0
C      1  0.5581450000000  0.5018440000000  0.4750970000000 1.0
C      1  0.4864620000000  0.4964690000000  0.4941900000000 1.0
C      1  0.4147730000000  0.5038630000000  0.5259290000000 1.0
C      1  0.6239860000000  0.4436530000000  0.4158220000000 1.0
C      1  0.4455150000000  0.5338850000000  0.5979120000000 1.0
C      1  0.4620140000000  0.5132520000000  0.5921490000000 1.0
C      1  0.4958040000000  0.5180500000000  0.5101320000000 1.0
C      1  0.4306750000000  0.5231230000000  0.5399130000000 1.0
C      1  0.4147460000000  0.4776760000000  0.5365910000000 1.0
C      1  0.4945120000000  0.4708570000000  0.4994230000000 1.0
C      1  0.4276390000000  0.5464800000000  0.5821710000000 1.0
C      1  0.6884990000000  0.3860090000000  0.3553120000000 1.0
C      1  0.4683340000000  0.5018260000000  0.4734950000000 1.0
C      1  0.3841430000000  0.5784450000000  0.5326420000000 1.0
C      1  0.4192470000000  0.5444060000000  0.5552450000000 1.0
C      1  0.4323530000000  0.4641770000000  0.5519090000000 1.0
C      1  0.4070220000000  0.5087580000000  0.4995030000000 1.0
C      1  0.5748270000000  0.4873020000000  0.4605210000000 1.0
C      1  0.5409380000000  0.5159740000000  0.4894400000000 1.0
C      1  0.6402070000000  0.4291490000000  0.4006980000000 1.0
C      1  0.6077010000000  0.4581840000000  0.4308510000000 1.0
C      1  0.4793980000000  0.5298030000000  0.5308530000000 1.0
C      1  0.5091440000000  0.5686810000000  0.5304930000000 1.0
C      1  0.5262560000000  0.5558500000000  0.5138720000000 1.0
C      1  0.4011270000000  0.5623360000000  0.5440950000000 1.0
C      1  0.4864540000000  0.5562730000000  0.5385440000000 1.0
C      1  0.6563990000000  0.4146740000000  0.3855150000000 1.0
C      1  0.5913230000000  0.4727320000000  0.4457620000000 1.0
END
