TITL C-627109-622-2020 5.03094666806785e-06 125000 -365.693247465634 0 0 61 (C1) n - 1
REM
REM in /home/nfs/bkarasulu/CARBON/AIRSS/Generating-Clusters/LCBOP/Only-C1/SD-CG/FIRE-CG
REM
REM
REM
REM
REM
REM ./C.cell (11c1c37f851c82e70ff6c80c92926a4b)
REM AIRSS Version 0.9.1 bugfix July 2018 build 013d7b7c2542+ Fri, 06 Jul 2018 19:26:36 +0100
REM compiler GCC version 9.2.1 20190827 (Red Hat 9.2.1-1)
REM options -cpp -mtune=generic -march=x86-64 -g -O0 -fpre-include=/usr/include/finclude/math-vector-fortran.h
REM seed -946245945 1460811691 -1349532111 1258645074 -2102612149 -557341654 908093113 -463491727 -1990240883 -1989367913 1182516069 -1131593126 -20421182 1072121289 -1720767271 -738810375 -1342964372 -903666514 -758437080 -726000461 1136444115 2113927177 -1248576105 -584800757 1890153171 983594526 1323810426 1748752837 660389096 -1761713320 -1416155189 -1688734625 -1598943801
REM
CELL 1.54180   50.00000   50.00000   50.00000   90.00000   90.00000   90.00000
LATT -1
SFAC C  
C      1  0.5636030000000  0.4648920000000  0.4974140000000 1.0
C      1  0.4658370000000  0.4948820000000  0.4878790000000 1.0
C      1  0.5550090000000  0.4850290000000  0.4792240000000 1.0
C      1  0.4111420000000  0.4807210000000  0.5583970000000 1.0
C      1  0.4337630000000  0.4671770000000  0.5177570000000 1.0
C      1  0.4491840000000  0.4769790000000  0.4725060000000 1.0
C      1  0.4275500000000  0.5313510000000  0.5143090000000 1.0
C      1  0.5174890000000  0.5724780000000  0.5290420000000 1.0
C      1  0.4299430000000  0.4649850000000  0.4893960000000 1.0
C      1  0.5399220000000  0.5251970000000  0.5748210000000 1.0
C      1  0.5647600000000  0.4173320000000  0.5062410000000 1.0
C      1  0.4094240000000  0.5105240000000  0.5201420000000 1.0
C      1  0.5049260000000  0.5259820000000  0.4423400000000 1.0
C      1  0.5080920000000  0.4867280000000  0.4744540000000 1.0
C      1  0.5813240000000  0.4997080000000  0.4346590000000 1.0
C      1  0.5225270000000  0.4821660000000  0.5566780000000 1.0
C      1  0.5531910000000  0.4829160000000  0.5939170000000 1.0
C      1  0.4805330000000  0.4411870000000  0.4575320000000 1.0
C      1  0.3829370000000  0.5135820000000  0.5137070000000 1.0
C      1  0.4715730000000  0.5149330000000  0.5864720000000 1.0
C      1  0.4597020000000  0.4593640000000  0.5270420000000 1.0
C      1  0.5394910000000  0.5514660000000  0.5695340000000 1.0
C      1  0.4731140000000  0.4903490000000  0.4084490000000 1.0
C      1  0.4891020000000  0.4777070000000  0.4939750000000 1.0
C      1  0.5042140000000  0.4327080000000  0.4675450000000 1.0
C      1  0.5140680000000  0.5468470000000  0.4591460000000 1.0
C      1  0.4661770000000  0.5643330000000  0.5169410000000 1.0
C      1  0.4584040000000  0.4741990000000  0.3902930000000 1.0
C      1  0.5678450000000  0.4693510000000  0.6113280000000 1.0
C      1  0.5382590000000  0.4969950000000  0.5748640000000 1.0
C      1  0.5318450000000  0.5613250000000  0.5063140000000 1.0
C      1  0.4180420000000  0.4860000000000  0.5323940000000 1.0
C      1  0.5322430000000  0.5719150000000  0.5534630000000 1.0
C      1  0.4833950000000  0.5250590000000  0.5650350000000 1.0
C      1  0.4757890000000  0.5217730000000  0.3710510000000 1.0
C      1  0.5307830000000  0.4971390000000  0.4864430000000 1.0
C      1  0.4975700000000  0.5316490000000  0.4156000000000 1.0
C      1  0.4905950000000  0.5624670000000  0.5319120000000 1.0
C      1  0.4790680000000  0.4838100000000  0.4352070000000 1.0
C      1  0.5227260000000  0.5625030000000  0.4793700000000 1.0
C      1  0.5780180000000  0.4762200000000  0.5190510000000 1.0
C      1  0.4606300000000  0.5036560000000  0.6072700000000 1.0
C      1  0.4614630000000  0.5051580000000  0.3549220000000 1.0
C      1  0.5065920000000  0.4691860000000  0.5395330000000 1.0
C      1  0.5522110000000  0.4387390000000  0.4945480000000 1.0
C      1  0.4992650000000  0.4985860000000  0.4499160000000 1.0
C      1  0.5281940000000  0.4342190000000  0.4797830000000 1.0
C      1  0.5693840000000  0.4919830000000  0.4564940000000 1.0
C      1  0.5799790000000  0.5022400000000  0.5264130000000 1.0
C      1  0.5823320000000  0.4559700000000  0.6283780000000 1.0
C      1  0.5434330000000  0.5356470000000  0.5125780000000 1.0
C      1  0.4867110000000  0.4657070000000  0.5198910000000 1.0
C      1  0.4532960000000  0.5402190000000  0.5075740000000 1.0
C      1  0.4717220000000  0.5193450000000  0.5006210000000 1.0
C      1  0.4650640000000  0.4645620000000  0.4514930000000 1.0
C      1  0.5240510000000  0.5153960000000  0.5070350000000 1.0
C      1  0.4966830000000  0.5197090000000  0.5163390000000 1.0
C      1  0.4527390000000  0.4812270000000  0.3646030000000 1.0
C      1  0.4825650000000  0.5158770000000  0.3979260000000 1.0
C      1  0.5681010000000  0.5261420000000  0.5221920000000 1.0
C      1  0.4924090000000  0.5345050000000  0.5406470000000 1.0
END
