TITL C-627111-6168-1852 -716.991832018406 125000 -135.678924094801 0 0 24 (Cs) n - 1
REM
REM in /home/nfs/bkarasulu/CARBON/AIRSS/Generating-Clusters/LCBOP/Only-C1/SD-CG/FIRE-CG
REM
REM
REM
REM
REM
REM ./C.cell (11c1c37f851c82e70ff6c80c92926a4b)
REM AIRSS Version 0.9.1 bugfix July 2018 build 013d7b7c2542+ Fri, 06 Jul 2018 19:26:36 +0100
REM compiler GCC version 9.2.1 20190827 (Red Hat 9.2.1-1)
REM options -cpp -mtune=generic -march=x86-64 -g -O0 -fpre-include=/usr/include/finclude/math-vector-fortran.h
REM seed 2112350959 595356182 -1201600511 2087682339 261737065 1614051357 -1091965168 2121012632 1486692568 230838899 -1845912118 2008631435 2037707631 2104065241 1936160616 1267588253 1646042757 1104453086 1876365505 687424197 2093561161 -1347371851 -1612179719 -1872961087 820031232 926893166 -1288653011 1594763172 2067388235 -1465568039 418059610 -1988382735 -1203228498
REM
CELL 1.54180   50.00000   50.00000   50.00000   90.00000   90.00000   90.00000
LATT -1
SFAC C  
C      1  0.6641500000000  0.5037460000000  0.5437490000000 1.0
C      1  0.3994950000000  0.5072430000000  0.4710140000000 1.0
C      1  0.3030290000000  0.5364190000000  0.4381490000000 1.0
C      1  0.6174600000000  0.4807550000000  0.5363790000000 1.0
C      1  0.3271450000000  0.5291050000000  0.4463660000000 1.0
C      1  0.5922870000000  0.4703550000000  0.5319390000000 1.0
C      1  0.3512580000000  0.5218050000000  0.4545800000000 1.0
C      1  0.5459940000000  0.4659210000000  0.5203690000000 1.0
C      1  0.5675930000000  0.5118910000000  0.5155790000000 1.0
C      1  0.5202570000000  0.4714440000000  0.5120840000000 1.0
C      1  0.5567230000000  0.4405820000000  0.5291680000000 1.0
C      1  0.5685580000000  0.4845970000000  0.5221760000000 1.0
C      1  0.2793120000000  0.5436160000000  0.4300640000000 1.0
C      1  0.4718890000000  0.4855360000000  0.4956720000000 1.0
C      1  0.5608940000000  0.5307150000000  0.5350970000000 1.0
C      1  0.6410340000000  0.4922470000000  0.5401300000000 1.0
C      1  0.4960370000000  0.4783630000000  0.5038950000000 1.0
C      1  0.5545910000000  0.5478510000000  0.5536920000000 1.0
C      1  0.4477510000000  0.4927450000000  0.4874510000000 1.0
C      1  0.4236200000000  0.4999840000000  0.4792330000000 1.0
C      1  0.5733360000000  0.5201390000000  0.4895190000000 1.0
C      1  0.5834180000000  0.4431390000000  0.5358400000000 1.0
C      1  0.3753750000000  0.5145170000000  0.4627950000000 1.0
C      1  0.5787940000000  0.5272870000000  0.4650590000000 1.0
END
