TITL C-627110-360-1156 -8.54864779896923e-07 125000 -1057.44838517392 0 0 173 (C1) n - 1
REM
REM in /home/nfs/bkarasulu/CARBON/AIRSS/Generating-Clusters/LCBOP/Only-C1/SD-CG/FIRE-CG
REM
REM
REM
REM
REM
REM ./C.cell (11c1c37f851c82e70ff6c80c92926a4b)
REM AIRSS Version 0.9.1 bugfix July 2018 build 013d7b7c2542+ Fri, 06 Jul 2018 19:26:36 +0100
REM compiler GCC version 9.2.1 20190827 (Red Hat 9.2.1-1)
REM options -cpp -mtune=generic -march=x86-64 -g -O0 -fpre-include=/usr/include/finclude/math-vector-fortran.h
REM seed -796122757 -431337378 830127058 -1993643396 212898077 -1243455784 -1734960397 -324856768 2039945365 -1059839405 1572892963 -1153517141 -329320400 -806695548 -664649328 -454686289 -1524896648 -673982165 87314633 -2013552560 453501912 -830393194 -1109316480 797149931 1314951697 1626593022 1622587166 190283511 -2135588738 -1569210974 -1468377742 -382863840 -2080535421
REM
CELL 1.54180   50.00000   50.00000   50.00000   90.00000   90.00000   90.00000
LATT -1
SFAC C  
C      1  0.4465360000000  0.4374880000000  0.4390730000000 1.0
C      1  0.4832940000000  0.5678490000000  0.4326640000000 1.0
C      1  0.3500130000000  0.4609690000000  0.5053360000000 1.0
C      1  0.5301430000000  0.5080230000000  0.5147310000000 1.0
C      1  0.4486700000000  0.4979730000000  0.4652950000000 1.0
C      1  0.4731300000000  0.5121380000000  0.4661280000000 1.0
C      1  0.5257660000000  0.4616310000000  0.5434720000000 1.0
C      1  0.5120710000000  0.4644170000000  0.4771860000000 1.0
C      1  0.5240520000000  0.5468460000000  0.4373830000000 1.0
C      1  0.5289010000000  0.4929520000000  0.6121260000000 1.0
C      1  0.5661020000000  0.4058610000000  0.5147290000000 1.0
C      1  0.5032760000000  0.5022770000000  0.5047580000000 1.0
C      1  0.6051210000000  0.4253570000000  0.5397150000000 1.0
C      1  0.5309970000000  0.5480900000000  0.5499420000000 1.0
C      1  0.6091780000000  0.5104070000000  0.4670390000000 1.0
C      1  0.5139060000000  0.5635710000000  0.6130800000000 1.0
C      1  0.3871650000000  0.5324240000000  0.5292240000000 1.0
C      1  0.5414770000000  0.5029250000000  0.5659850000000 1.0
C      1  0.4333110000000  0.5036380000000  0.4889280000000 1.0
C      1  0.5067890000000  0.4561900000000  0.5238920000000 1.0
C      1  0.5657210000000  0.4907230000000  0.4411990000000 1.0
C      1  0.5671130000000  0.4794410000000  0.4157020000000 1.0
C      1  0.6129430000000  0.4839530000000  0.4786710000000 1.0
C      1  0.4840710000000  0.5204520000000  0.4920360000000 1.0
C      1  0.5226620000000  0.6167860000000  0.4223220000000 1.0
C      1  0.5438230000000  0.5307580000000  0.4251680000000 1.0
C      1  0.5336300000000  0.5851510000000  0.5105760000000 1.0
C      1  0.3416290000000  0.4872530000000  0.5635540000000 1.0
C      1  0.5531130000000  0.4906260000000  0.5099090000000 1.0
C      1  0.4745990000000  0.3759360000000  0.5040760000000 1.0
C      1  0.4497990000000  0.5878210000000  0.4743810000000 1.0
C      1  0.4781050000000  0.3851650000000  0.5294890000000 1.0
C      1  0.4571180000000  0.4186520000000  0.4583280000000 1.0
C      1  0.5297410000000  0.3969610000000  0.5428550000000 1.0
C      1  0.3753980000000  0.4563550000000  0.5016540000000 1.0
C      1  0.5201510000000  0.5615360000000  0.5044770000000 1.0
C      1  0.4934820000000  0.4148270000000  0.4147960000000 1.0
C      1  0.4396390000000  0.5633870000000  0.4833020000000 1.0
C      1  0.4696120000000  0.3931440000000  0.4532280000000 1.0
C      1  0.5188670000000  0.4890770000000  0.4636700000000 1.0
C      1  0.5357990000000  0.5308440000000  0.3970170000000 1.0
C      1  0.4493720000000  0.4467920000000  0.4996620000000 1.0
C      1  0.5450700000000  0.4418170000000  0.5474290000000 1.0
C      1  0.4951450000000  0.4719970000000  0.5019720000000 1.0
C      1  0.5309760000000  0.5446130000000  0.4852490000000 1.0
C      1  0.5099040000000  0.4412820000000  0.6021290000000 1.0
C      1  0.5408070000000  0.5297890000000  0.5311000000000 1.0
C      1  0.5217090000000  0.4861280000000  0.5570520000000 1.0
C      1  0.4693730000000  0.6040070000000  0.4626680000000 1.0
C      1  0.4007880000000  0.4491690000000  0.4923420000000 1.0
C      1  0.5754500000000  0.5780500000000  0.4512110000000 1.0
C      1  0.4858460000000  0.4774300000000  0.6222870000000 1.0
C      1  0.4038280000000  0.4439830000000  0.4642020000000 1.0
C      1  0.5736830000000  0.5784320000000  0.4231080000000 1.0
C      1  0.4645230000000  0.4704110000000  0.5038650000000 1.0
C      1  0.5706300000000  0.4755210000000  0.4641420000000 1.0
C      1  0.5882870000000  0.5568390000000  0.4675250000000 1.0
C      1  0.4579380000000  0.5057250000000  0.4043210000000 1.0
C      1  0.5186900000000  0.4454830000000  0.4553210000000 1.0
C      1  0.4283040000000  0.5444740000000  0.4657010000000 1.0
C      1  0.4851550000000  0.3935350000000  0.4295330000000 1.0
C      1  0.4906660000000  0.5911500000000  0.4486150000000 1.0
C      1  0.5497700000000  0.5527690000000  0.3851500000000 1.0
C      1  0.4890060000000  0.5152610000000  0.4426420000000 1.0
C      1  0.5023470000000  0.5417730000000  0.6015370000000 1.0
C      1  0.5785050000000  0.4359070000000  0.5796570000000 1.0
C      1  0.5850560000000  0.5474250000000  0.5199780000000 1.0
C      1  0.4477160000000  0.4925430000000  0.5102550000000 1.0
C      1  0.4631530000000  0.4276260000000  0.4847470000000 1.0
C      1  0.4152630000000  0.5234130000000  0.4800900000000 1.0
C      1  0.4251640000000  0.5831450000000  0.5488960000000 1.0
C      1  0.4697910000000  0.4920490000000  0.5520330000000 1.0
C      1  0.5166760000000  0.6043370000000  0.4468730000000 1.0
C      1  0.5144000000000  0.6190120000000  0.3969530000000 1.0
C      1  0.5396720000000  0.4755040000000  0.3735090000000 1.0
C      1  0.5563630000000  0.4747440000000  0.4877570000000 1.0
C      1  0.5122630000000  0.5157550000000  0.3870530000000 1.0
C      1  0.4799150000000  0.5030320000000  0.6110070000000 1.0
C      1  0.5466170000000  0.4183660000000  0.5320170000000 1.0
C      1  0.5281430000000  0.3474360000000  0.5342740000000 1.0
C      1  0.4772740000000  0.5431150000000  0.5857220000000 1.0
C      1  0.4964690000000  0.5429970000000  0.4374340000000 1.0
C      1  0.4517140000000  0.5063550000000  0.5342610000000 1.0
C      1  0.6002740000000  0.4833490000000  0.5300150000000 1.0
C      1  0.4821840000000  0.4368930000000  0.5982040000000 1.0
C      1  0.3850280000000  0.4286720000000  0.4513330000000 1.0
C      1  0.5868520000000  0.5643980000000  0.4965460000000 1.0
C      1  0.4953270000000  0.5596980000000  0.5183430000000 1.0
C      1  0.4609660000000  0.4695500000000  0.5677590000000 1.0
C      1  0.4828980000000  0.4030150000000  0.5519290000000 1.0
C      1  0.5347240000000  0.6063990000000  0.4690930000000 1.0
C      1  0.5248500000000  0.4244380000000  0.5840430000000 1.0
C      1  0.5673280000000  0.5163180000000  0.5668530000000 1.0
C      1  0.5200020000000  0.4935630000000  0.3710290000000 1.0
C      1  0.6168790000000  0.4809630000000  0.5069090000000 1.0
C      1  0.4344390000000  0.5059900000000  0.5844140000000 1.0
C      1  0.5578160000000  0.6135200000000  0.5378330000000 1.0
C      1  0.4082020000000  0.5119230000000  0.4133890000000 1.0
C      1  0.4756070000000  0.5436660000000  0.5066840000000 1.0
C      1  0.5524110000000  0.3814250000000  0.5060780000000 1.0
C      1  0.5649460000000  0.5707860000000  0.3987830000000 1.0
C      1  0.4258800000000  0.4539830000000  0.4494060000000 1.0
C      1  0.5395610000000  0.5731290000000  0.5592230000000 1.0
C      1  0.5739320000000  0.5802420000000  0.5998920000000 1.0
C      1  0.4716890000000  0.5732090000000  0.4075200000000 1.0
C      1  0.5050860000000  0.4903110000000  0.4380870000000 1.0
C      1  0.4474200000000  0.5538120000000  0.5120460000000 1.0
C      1  0.3767910000000  0.5143640000000  0.4545680000000 1.0
C      1  0.4769530000000  0.5889240000000  0.3864130000000 1.0
C      1  0.4106050000000  0.5631050000000  0.5599020000000 1.0
C      1  0.5330440000000  0.3985190000000  0.4625020000000 1.0
C      1  0.3675300000000  0.4873910000000  0.5606550000000 1.0
C      1  0.5901710000000  0.5299840000000  0.4572230000000 1.0
C      1  0.4353040000000  0.5209670000000  0.4165700000000 1.0
C      1  0.4601150000000  0.5186410000000  0.5941190000000 1.0
C      1  0.4101110000000  0.5137350000000  0.5692950000000 1.0
C      1  0.5627880000000  0.5198140000000  0.4464110000000 1.0
C      1  0.3762480000000  0.5262590000000  0.5053790000000 1.0
C      1  0.6033670000000  0.4714910000000  0.5566020000000 1.0
C      1  0.4365800000000  0.5397130000000  0.4385760000000 1.0
C      1  0.6009220000000  0.4871300000000  0.5805900000000 1.0
C      1  0.4104370000000  0.5355840000000  0.5483900000000 1.0
C      1  0.5078550000000  0.5147220000000  0.6093820000000 1.0
C      1  0.4781190000000  0.5625960000000  0.5646580000000 1.0
C      1  0.5344360000000  0.5950190000000  0.5400880000000 1.0
C      1  0.5389680000000  0.4248960000000  0.4544440000000 1.0
C      1  0.5426010000000  0.3804910000000  0.4798740000000 1.0
C      1  0.4952720000000  0.6080030000000  0.3816620000000 1.0
C      1  0.4617210000000  0.4509280000000  0.4177380000000 1.0
C      1  0.4355190000000  0.4768370000000  0.5771080000000 1.0
C      1  0.4880560000000  0.4206800000000  0.4943140000000 1.0
C      1  0.4225570000000  0.4471360000000  0.5106250000000 1.0
C      1  0.4836070000000  0.5162110000000  0.3939830000000 1.0
C      1  0.5771560000000  0.5926070000000  0.4954960000000 1.0
C      1  0.5577790000000  0.4959450000000  0.6087220000000 1.0
C      1  0.5507250000000  0.4351390000000  0.5749730000000 1.0
C      1  0.5920360000000  0.4373420000000  0.4561720000000 1.0
C      1  0.4898840000000  0.5762260000000  0.5420680000000 1.0
C      1  0.5716820000000  0.5253620000000  0.5372970000000 1.0
C      1  0.4965080000000  0.4977970000000  0.5551670000000 1.0
C      1  0.5038810000000  0.6026670000000  0.5402950000000 1.0
C      1  0.4202420000000  0.4457480000000  0.5397700000000 1.0
C      1  0.5063620000000  0.4600920000000  0.4313850000000 1.0
C      1  0.5969280000000  0.4635870000000  0.4658020000000 1.0
C      1  0.5556500000000  0.5770060000000  0.5815950000000 1.0
C      1  0.4373670000000  0.5318040000000  0.5330060000000 1.0
C      1  0.5230670000000  0.6080250000000  0.4951660000000 1.0
C      1  0.5459100000000  0.5274060000000  0.4714780000000 1.0
C      1  0.3872170000000  0.5209180000000  0.4800420000000 1.0
C      1  0.4890120000000  0.4429070000000  0.4165140000000 1.0
C      1  0.4341210000000  0.4805640000000  0.4494740000000 1.0
C      1  0.5626320000000  0.5971640000000  0.4694450000000 1.0
C      1  0.5354190000000  0.3728390000000  0.5282740000000 1.0
C      1  0.5763710000000  0.4981800000000  0.5248020000000 1.0
C      1  0.5130460000000  0.4671510000000  0.6150000000000 1.0
C      1  0.4618720000000  0.4214750000000  0.5584290000000 1.0
C      1  0.4724620000000  0.3768060000000  0.4768340000000 1.0
C      1  0.5669900000000  0.4285850000000  0.4497100000000 1.0
C      1  0.5760580000000  0.6101090000000  0.5177390000000 1.0
C      1  0.5789990000000  0.5028440000000  0.5893150000000 1.0
C      1  0.4559290000000  0.4767100000000  0.4062230000000 1.0
C      1  0.4673710000000  0.6312620000000  0.4634890000000 1.0
C      1  0.4418000000000  0.5794200000000  0.5279740000000 1.0
C      1  0.5928330000000  0.4119720000000  0.5198930000000 1.0
C      1  0.4137940000000  0.4673270000000  0.5591500000000 1.0
C      1  0.3864190000000  0.5107780000000  0.4295110000000 1.0
C      1  0.5986410000000  0.4434010000000  0.5603790000000 1.0
C      1  0.5028410000000  0.6178180000000  0.5142600000000 1.0
C      1  0.5585620000000  0.4711490000000  0.3919130000000 1.0
C      1  0.4349920000000  0.4231990000000  0.5498920000000 1.0
C      1  0.5107860000000  0.4062390000000  0.5627160000000 1.0
C      1  0.4691790000000  0.4435240000000  0.5745030000000 1.0
C      1  0.3951610000000  0.4894430000000  0.5612710000000 1.0
END
