TITL C-627111-6168-131 -9.37579277924807e-07 125000 -773.311019700792 0 0 127 (C1) n - 1
REM
REM in /home/nfs/bkarasulu/CARBON/AIRSS/Generating-Clusters/LCBOP/Only-C1/SD-CG/FIRE-CG
REM
REM
REM
REM
REM
REM ./C.cell (11c1c37f851c82e70ff6c80c92926a4b)
REM AIRSS Version 0.9.1 bugfix July 2018 build 013d7b7c2542+ Fri, 06 Jul 2018 19:26:36 +0100
REM compiler GCC version 9.2.1 20190827 (Red Hat 9.2.1-1)
REM options -cpp -mtune=generic -march=x86-64 -g -O0 -fpre-include=/usr/include/finclude/math-vector-fortran.h
REM seed 2119673399 -718862341 -317521577 -1740832915 1753342234 100041008 550917515 -457299880 1449981586 -725676587 -1895919772 75121635 1907682815 -165988066 -1768988395 -1944695314 -331857232 1473139630 1607103554 672274429 396627990 390192914 -515053659 1509687914 -860351566 85124145 1113675529 -9029828 -691712069 2090043003 124383504 -934514243 -607917531
REM
CELL 1.54180   50.00000   50.00000   50.00000   90.00000   90.00000   90.00000
LATT -1
SFAC C  
C      1  0.4483020000000  0.4946750000000  0.5825540000000 1.0
C      1  0.4873560000000  0.4302940000000  0.5772710000000 1.0
C      1  0.4559580000000  0.4794370000000  0.4866430000000 1.0
C      1  0.4367240000000  0.4457790000000  0.5302520000000 1.0
C      1  0.5202820000000  0.5208770000000  0.5508270000000 1.0
C      1  0.4140990000000  0.5186680000000  0.5478710000000 1.0
C      1  0.5731720000000  0.5011790000000  0.5871650000000 1.0
C      1  0.5292830000000  0.4013900000000  0.5131970000000 1.0
C      1  0.4491920000000  0.5261510000000  0.4697080000000 1.0
C      1  0.4956640000000  0.4223120000000  0.4386600000000 1.0
C      1  0.4710690000000  0.4961820000000  0.6003720000000 1.0
C      1  0.4841240000000  0.4562760000000  0.4072460000000 1.0
C      1  0.4680100000000  0.4277050000000  0.4757440000000 1.0
C      1  0.4098020000000  0.5099830000000  0.4479170000000 1.0
C      1  0.4384690000000  0.5506110000000  0.5158900000000 1.0
C      1  0.4719670000000  0.5476100000000  0.4150840000000 1.0
C      1  0.4504130000000  0.5634290000000  0.4270020000000 1.0
C      1  0.5031600000000  0.5165930000000  0.5088650000000 1.0
C      1  0.4247750000000  0.4637380000000  0.5501820000000 1.0
C      1  0.5404340000000  0.4237410000000  0.4632820000000 1.0
C      1  0.5595420000000  0.4285260000000  0.4861220000000 1.0
C      1  0.5937530000000  0.4950520000000  0.4624260000000 1.0
C      1  0.5849890000000  0.5229540000000  0.4592570000000 1.0
C      1  0.5123180000000  0.4141720000000  0.4619310000000 1.0
C      1  0.5331730000000  0.4422900000000  0.4155710000000 1.0
C      1  0.5193030000000  0.5478570000000  0.6106470000000 1.0
C      1  0.4200710000000  0.5252390000000  0.4703540000000 1.0
C      1  0.4653950000000  0.5196290000000  0.4059680000000 1.0
C      1  0.4948070000000  0.5261220000000  0.4575900000000 1.0
C      1  0.5552730000000  0.5434300000000  0.5247740000000 1.0
C      1  0.5293740000000  0.5753510000000  0.4538490000000 1.0
C      1  0.5287360000000  0.4761340000000  0.5665580000000 1.0
C      1  0.5402610000000  0.4681560000000  0.4033560000000 1.0
C      1  0.5486400000000  0.5842520000000  0.5469360000000 1.0
C      1  0.5247510000000  0.4568600000000  0.5458770000000 1.0
C      1  0.5475580000000  0.4849690000000  0.4265860000000 1.0
C      1  0.4607460000000  0.4551740000000  0.4272680000000 1.0
C      1  0.5433740000000  0.5364280000000  0.6013250000000 1.0
C      1  0.4118930000000  0.5894120000000  0.5199360000000 1.0
C      1  0.4014440000000  0.5372370000000  0.5651950000000 1.0
C      1  0.4177760000000  0.5305290000000  0.5204480000000 1.0
C      1  0.4391440000000  0.4885420000000  0.5080920000000 1.0
C      1  0.5376280000000  0.5497820000000  0.4585360000000 1.0
C      1  0.4821640000000  0.5037680000000  0.3896890000000 1.0
C      1  0.5674600000000  0.5519750000000  0.4996600000000 1.0
C      1  0.5381010000000  0.4989060000000  0.5509120000000 1.0
C      1  0.4427010000000  0.5039610000000  0.4152500000000 1.0
C      1  0.4086650000000  0.4701340000000  0.4764100000000 1.0
C      1  0.5612650000000  0.5550400000000  0.5876240000000 1.0
C      1  0.4646640000000  0.4514940000000  0.5220480000000 1.0
C      1  0.4184210000000  0.5179910000000  0.4220010000000 1.0
C      1  0.4685300000000  0.4328320000000  0.4465920000000 1.0
C      1  0.3999530000000  0.5833910000000  0.5434360000000 1.0
C      1  0.4974720000000  0.5686500000000  0.4964500000000 1.0
C      1  0.4322190000000  0.4931760000000  0.5560730000000 1.0
C      1  0.4319520000000  0.5789340000000  0.4746870000000 1.0
C      1  0.5554670000000  0.4103200000000  0.5081920000000 1.0
C      1  0.5790340000000  0.4531850000000  0.4896460000000 1.0
C      1  0.4896730000000  0.5435850000000  0.5099470000000 1.0
C      1  0.5301950000000  0.5442740000000  0.5393310000000 1.0
C      1  0.5647010000000  0.5803360000000  0.4994140000000 1.0
C      1  0.5466290000000  0.4405190000000  0.4412420000000 1.0
C      1  0.5688940000000  0.5658120000000  0.5615970000000 1.0
C      1  0.5914870000000  0.5061900000000  0.5670830000000 1.0
C      1  0.5199260000000  0.4682960000000  0.5200420000000 1.0
C      1  0.5428240000000  0.4757360000000  0.4754400000000 1.0
C      1  0.4842300000000  0.3991780000000  0.5322070000000 1.0
C      1  0.4701170000000  0.4532630000000  0.4913920000000 1.0
C      1  0.4377800000000  0.5747240000000  0.4484050000000 1.0
C      1  0.5455990000000  0.5022800000000  0.4832100000000 1.0
C      1  0.4694070000000  0.5136450000000  0.6215860000000 1.0
C      1  0.5840420000000  0.5320690000000  0.4879520000000 1.0
C      1  0.5447050000000  0.5907720000000  0.5174420000000 1.0
C      1  0.4936440000000  0.4779850000000  0.3901130000000 1.0
C      1  0.4196530000000  0.4348140000000  0.5101090000000 1.0
C      1  0.4992960000000  0.5595200000000  0.4202390000000 1.0
C      1  0.4166010000000  0.4804860000000  0.4502900000000 1.0
C      1  0.4536020000000  0.4966250000000  0.5343110000000 1.0
C      1  0.5926380000000  0.5086750000000  0.5086100000000 1.0
C      1  0.5030680000000  0.5650830000000  0.5977070000000 1.0
C      1  0.5274160000000  0.5032090000000  0.4339860000000 1.0
C      1  0.5013280000000  0.4032310000000  0.5096670000000 1.0
C      1  0.5912360000000  0.4206430000000  0.5422500000000 1.0
C      1  0.4084710000000  0.5181190000000  0.4962730000000 1.0
C      1  0.4949320000000  0.4796110000000  0.5982770000000 1.0
C      1  0.5241650000000  0.4625960000000  0.4924500000000 1.0
C      1  0.5231690000000  0.4876730000000  0.5928330000000 1.0
C      1  0.4727440000000  0.5433940000000  0.4656630000000 1.0
C      1  0.5789660000000  0.4694500000000  0.5401510000000 1.0
C      1  0.5280640000000  0.5176970000000  0.4957020000000 1.0
C      1  0.5226500000000  0.5270940000000  0.4501850000000 1.0
C      1  0.5173610000000  0.5867540000000  0.5069120000000 1.0
C      1  0.5215830000000  0.4767540000000  0.3840350000000 1.0
C      1  0.4646430000000  0.5432750000000  0.5238730000000 1.0
C      1  0.5017930000000  0.5758990000000  0.4459210000000 1.0
C      1  0.4922810000000  0.4109540000000  0.4836270000000 1.0
C      1  0.4856870000000  0.5688800000000  0.4694700000000 1.0
C      1  0.5237010000000  0.5693270000000  0.5522660000000 1.0
C      1  0.5463720000000  0.5075380000000  0.5979260000000 1.0
C      1  0.4876230000000  0.4137500000000  0.5562260000000 1.0
C      1  0.4121750000000  0.4897290000000  0.4978790000000 1.0
C      1  0.5763450000000  0.4053480000000  0.5261260000000 1.0
C      1  0.4981670000000  0.4600760000000  0.4827370000000 1.0
C      1  0.4291220000000  0.5746170000000  0.5028690000000 1.0
C      1  0.4642500000000  0.3804630000000  0.5306190000000 1.0
C      1  0.5607150000000  0.4889400000000  0.5373080000000 1.0
C      1  0.5909870000000  0.4821460000000  0.4897450000000 1.0
C      1  0.5728990000000  0.5345180000000  0.4349390000000 1.0
C      1  0.4608270000000  0.4990250000000  0.4678270000000 1.0
C      1  0.4844330000000  0.4996770000000  0.4536480000000 1.0
C      1  0.3963080000000  0.5635300000000  0.5612830000000 1.0
C      1  0.4089910000000  0.4436900000000  0.4866840000000 1.0
C      1  0.5778340000000  0.5444790000000  0.5433810000000 1.0
C      1  0.5050210000000  0.4365960000000  0.4157700000000 1.0
C      1  0.4923450000000  0.5206670000000  0.5569660000000 1.0
C      1  0.5266250000000  0.5511870000000  0.4103150000000 1.0
C      1  0.4990660000000  0.4891230000000  0.5213500000000 1.0
C      1  0.4896830000000  0.4519450000000  0.5928880000000 1.0
C      1  0.5029200000000  0.4878840000000  0.4370480000000 1.0
C      1  0.4404120000000  0.4765280000000  0.4296000000000 1.0
C      1  0.5925530000000  0.5200030000000  0.5414690000000 1.0
C      1  0.5530430000000  0.5436750000000  0.4171460000000 1.0
C      1  0.5052680000000  0.5743530000000  0.5725240000000 1.0
C      1  0.4755960000000  0.4769830000000  0.5323650000000 1.0
C      1  0.5522730000000  0.4675310000000  0.4494890000000 1.0
C      1  0.4675070000000  0.5221470000000  0.5428150000000 1.0
C      1  0.5914700000000  0.4469450000000  0.5468380000000 1.0
END
