TITL C-627107-135-1353 7.92316179109508e-07 125000 -560.869379480311 0 0 93 (C1) n - 1
REM
REM in /home/nfs/bkarasulu/CARBON/AIRSS/Generating-Clusters/LCBOP/Only-C1/SD-CG/FIRE-CG
REM
REM
REM
REM
REM
REM ./C.cell (11c1c37f851c82e70ff6c80c92926a4b)
REM AIRSS Version 0.9.1 bugfix July 2018 build 013d7b7c2542+ Fri, 06 Jul 2018 19:26:36 +0100
REM compiler GCC version 9.2.1 20190827 (Red Hat 9.2.1-1)
REM options -cpp -mtune=generic -march=x86-64 -g -O0 -fpre-include=/usr/include/finclude/math-vector-fortran.h
REM seed -1628816682 1668485725 -782530704 -1832342779 1409761153 1816513840 1341916820 -1979669744 -1779161840 -1830937461 -637274096 1622939092 -174118472 -877382120 -1990300826 30077480 902456172 -1722195547 -1625366138 1018737978 1406686030 -415521123 1048123823 -1430934342 -691385269 -1860442735 1612606116 -1504922622 -1527031499 -1637305120 1176750606 -153863244 -713661235
REM
CELL 1.54180   50.00000   50.00000   50.00000   90.00000   90.00000   90.00000
LATT -1
SFAC C  
C      1  0.4967570000000  0.5714780000000  0.5447380000000 1.0
C      1  0.4379310000000  0.4613270000000  0.4637730000000 1.0
C      1  0.5345810000000  0.4703100000000  0.5962090000000 1.0
C      1  0.5387110000000  0.4992240000000  0.5971810000000 1.0
C      1  0.4786750000000  0.4863130000000  0.4712830000000 1.0
C      1  0.5698630000000  0.5972300000000  0.4576330000000 1.0
C      1  0.4388850000000  0.5689440000000  0.4869930000000 1.0
C      1  0.4921560000000  0.4611810000000  0.4764900000000 1.0
C      1  0.4081620000000  0.4952390000000  0.5016990000000 1.0
C      1  0.5535650000000  0.4822440000000  0.4110370000000 1.0
C      1  0.4548320000000  0.5779910000000  0.4658090000000 1.0
C      1  0.5616560000000  0.5106260000000  0.5835880000000 1.0
C      1  0.4716470000000  0.5198800000000  0.5546350000000 1.0
C      1  0.4482010000000  0.5085480000000  0.3896100000000 1.0
C      1  0.4328840000000  0.4957250000000  0.5524790000000 1.0
C      1  0.5332200000000  0.4196530000000  0.5031950000000 1.0
C      1  0.5209190000000  0.4598790000000  0.5285850000000 1.0
C      1  0.5032900000000  0.5196110000000  0.5074390000000 1.0
C      1  0.5135940000000  0.4335450000000  0.5185730000000 1.0
C      1  0.5198150000000  0.4639490000000  0.4682720000000 1.0
C      1  0.5161750000000  0.5145490000000  0.6060370000000 1.0
C      1  0.5456230000000  0.4747010000000  0.5234780000000 1.0
C      1  0.4169080000000  0.4749080000000  0.4052970000000 1.0
C      1  0.5163000000000  0.5731820000000  0.5226520000000 1.0
C      1  0.5412470000000  0.4223380000000  0.4773430000000 1.0
C      1  0.4333100000000  0.5618630000000  0.4255420000000 1.0
C      1  0.5377290000000  0.5523410000000  0.5231420000000 1.0
C      1  0.5132540000000  0.5920350000000  0.5023790000000 1.0
C      1  0.5138260000000  0.4553670000000  0.5837990000000 1.0
C      1  0.5626940000000  0.4830460000000  0.4374530000000 1.0
C      1  0.5847270000000  0.4575160000000  0.5478590000000 1.0
C      1  0.4975920000000  0.4451630000000  0.4204670000000 1.0
C      1  0.4456300000000  0.5510490000000  0.5363300000000 1.0
C      1  0.4850510000000  0.4295090000000  0.5108030000000 1.0
C      1  0.4965400000000  0.4325030000000  0.5852080000000 1.0
C      1  0.5838550000000  0.4677010000000  0.4453860000000 1.0
C      1  0.4741570000000  0.5976300000000  0.4709620000000 1.0
C      1  0.4672540000000  0.5673780000000  0.5506820000000 1.0
C      1  0.4666520000000  0.5588610000000  0.5791050000000 1.0
C      1  0.4984560000000  0.4732950000000  0.5407700000000 1.0
C      1  0.4342030000000  0.5021900000000  0.4997180000000 1.0
C      1  0.4998170000000  0.5056420000000  0.4809900000000 1.0
C      1  0.4445560000000  0.5223990000000  0.5458030000000 1.0
C      1  0.3995350000000  0.4733750000000  0.5152790000000 1.0
C      1  0.4947060000000  0.5188140000000  0.4030440000000 1.0
C      1  0.4712930000000  0.5222080000000  0.3875340000000 1.0
C      1  0.5292260000000  0.4389860000000  0.4576960000000 1.0
C      1  0.4614320000000  0.4791850000000  0.4252200000000 1.0
C      1  0.4557770000000  0.5644420000000  0.4408870000000 1.0
C      1  0.5613540000000  0.5252780000000  0.4608290000000 1.0
C      1  0.4873940000000  0.4712780000000  0.4154300000000 1.0
C      1  0.4354680000000  0.5601300000000  0.5118730000000 1.0
C      1  0.4342180000000  0.4661180000000  0.5502410000000 1.0
C      1  0.5071270000000  0.4282030000000  0.4412650000000 1.0
C      1  0.4349510000000  0.4391020000000  0.5107760000000 1.0
C      1  0.5898980000000  0.4794840000000  0.5052630000000 1.0
C      1  0.5278060000000  0.5442950000000  0.4310250000000 1.0
C      1  0.4888280000000  0.5134600000000  0.5983260000000 1.0
C      1  0.5306870000000  0.4860850000000  0.3980300000000 1.0
C      1  0.5122160000000  0.5556530000000  0.5638440000000 1.0
C      1  0.4748550000000  0.5316440000000  0.5818620000000 1.0
C      1  0.5566610000000  0.5495780000000  0.5450120000000 1.0
C      1  0.5501610000000  0.5479850000000  0.4479650000000 1.0
C      1  0.5621100000000  0.5338330000000  0.5666730000000 1.0
C      1  0.5605980000000  0.5734750000000  0.4522480000000 1.0
C      1  0.4813820000000  0.4878780000000  0.5879460000000 1.0
C      1  0.5838820000000  0.5226760000000  0.4776020000000 1.0
C      1  0.4969800000000  0.6020590000000  0.4839030000000 1.0
C      1  0.4327620000000  0.4432580000000  0.4829920000000 1.0
C      1  0.5730360000000  0.4659000000000  0.5237520000000 1.0
C      1  0.4600680000000  0.4328690000000  0.5251460000000 1.0
C      1  0.4411860000000  0.4872590000000  0.4067130000000 1.0
C      1  0.5042030000000  0.4919000000000  0.4045460000000 1.0
C      1  0.5017530000000  0.5391880000000  0.4218000000000 1.0
C      1  0.4715840000000  0.4325590000000  0.5736020000000 1.0
C      1  0.5840570000000  0.4934040000000  0.5824800000000 1.0
C      1  0.4179900000000  0.4558000000000  0.5275620000000 1.0
C      1  0.5315440000000  0.5268230000000  0.5110170000000 1.0
C      1  0.5942560000000  0.5026160000000  0.4922980000000 1.0
C      1  0.5912800000000  0.4706920000000  0.5702770000000 1.0
C      1  0.4569260000000  0.4798320000000  0.4534230000000 1.0
C      1  0.4872620000000  0.4178310000000  0.4598200000000 1.0
C      1  0.5148960000000  0.5295500000000  0.5554810000000 1.0
C      1  0.4969370000000  0.4738980000000  0.5690040000000 1.0
C      1  0.4943540000000  0.5202000000000  0.5368480000000 1.0
C      1  0.5250830000000  0.4925240000000  0.4686060000000 1.0
C      1  0.4804530000000  0.5541530000000  0.4324300000000 1.0
C      1  0.4557960000000  0.4440720000000  0.5527180000000 1.0
C      1  0.4576170000000  0.4933920000000  0.5097360000000 1.0
C      1  0.5486930000000  0.5004680000000  0.4554510000000 1.0
C      1  0.4832920000000  0.4347980000000  0.4825010000000 1.0
C      1  0.5446120000000  0.5025810000000  0.5176190000000 1.0
C      1  0.4769110000000  0.4811450000000  0.5239770000000 1.0
END
