TITL C-627111-6168-1491 0.625295157313167 125000 -373.395535959771 0 0 63 (C1) n - 1
REM
REM in /home/nfs/bkarasulu/CARBON/AIRSS/Generating-Clusters/LCBOP/Only-C1/SD-CG/FIRE-CG
REM
REM
REM
REM
REM
REM ./C.cell (11c1c37f851c82e70ff6c80c92926a4b)
REM AIRSS Version 0.9.1 bugfix July 2018 build 013d7b7c2542+ Fri, 06 Jul 2018 19:26:36 +0100
REM compiler GCC version 9.2.1 20190827 (Red Hat 9.2.1-1)
REM options -cpp -mtune=generic -march=x86-64 -g -O0 -fpre-include=/usr/include/finclude/math-vector-fortran.h
REM seed 1108590535 1037520353 1739682740 42085037 -904349242 -993933622 315153301 -307490255 -830049532 1406288644 1010455997 1177423856 381087111 293136561 -522102664 1307790910 484230231 855240189 1900131830 -994640613 -1189485394 1994886776 121253486 -571804483 1119916691 -1045661305 -225069044 -1963979424 1885856158 801496962 787666538 1357761042 666197370
REM
CELL 1.54180   50.00000   50.00000   50.00000   90.00000   90.00000   90.00000
LATT -1
SFAC C  
C      1  0.5122680000000  0.4548980000000  0.5872620000000 1.0
C      1  0.5623420000000  0.4435260000000  0.5733440000000 1.0
C      1  0.5672120000000  0.4517250000000  0.5464770000000 1.0
C      1  0.5532080000000  0.4421450000000  0.5239290000000 1.0
C      1  0.4344970000000  0.4742940000000  0.5339970000000 1.0
C      1  0.5016650000000  0.5892890000000  0.5313250000000 1.0
C      1  0.4705570000000  0.5092170000000  0.4874890000000 1.0
C      1  0.4562660000000  0.5071450000000  0.5913020000000 1.0
C      1  0.4195960000000  0.5104470000000  0.4926840000000 1.0
C      1  0.5318840000000  0.4527940000000  0.4763990000000 1.0
C      1  0.5092080000000  0.4948900000000  0.4174970000000 1.0
C      1  0.5564000000000  0.4062940000000  0.3472470000000 1.0
C      1  0.4856130000000  0.5758090000000  0.5476830000000 1.0
C      1  0.5310520000000  0.4529520000000  0.4058240000000 1.0
C      1  0.4992780000000  0.5431460000000  0.4327390000000 1.0
C      1  0.4773030000000  0.5503800000000  0.5554310000000 1.0
C      1  0.4601920000000  0.4951640000000  0.3531340000000 1.0
C      1  0.5828060000000  0.4748590000000  0.5422980000000 1.0
C      1  0.5556280000000  0.5817850000000  0.4809780000000 1.0
C      1  0.4344680000000  0.5477470000000  0.5308550000000 1.0
C      1  0.4508290000000  0.4942620000000  0.5463300000000 1.0
C      1  0.5480990000000  0.4216420000000  0.3666170000000 1.0
C      1  0.5145910000000  0.5186240000000  0.4319470000000 1.0
C      1  0.4564480000000  0.5680540000000  0.4876840000000 1.0
C      1  0.4469490000000  0.5477440000000  0.5045890000000 1.0
C      1  0.4760480000000  0.4953520000000  0.3743640000000 1.0
C      1  0.5303820000000  0.5752780000000  0.4891750000000 1.0
C      1  0.5403500000000  0.4540760000000  0.5875960000000 1.0
C      1  0.5308110000000  0.5157470000000  0.4553390000000 1.0
C      1  0.5317950000000  0.5363000000000  0.6018390000000 1.0
C      1  0.5144500000000  0.5338650000000  0.5825440000000 1.0
C      1  0.4919960000000  0.4953990000000  0.3955100000000 1.0
C      1  0.4958290000000  0.5602700000000  0.4557270000000 1.0
C      1  0.5239310000000  0.4621400000000  0.4526560000000 1.0
C      1  0.4009030000000  0.5195550000000  0.5104740000000 1.0
C      1  0.4782810000000  0.4605090000000  0.5289150000000 1.0
C      1  0.4955130000000  0.4735090000000  0.6003220000000 1.0
C      1  0.4999240000000  0.5073680000000  0.5438900000000 1.0
C      1  0.4791760000000  0.4883280000000  0.5393960000000 1.0
C      1  0.4719140000000  0.5711700000000  0.4658300000000 1.0
C      1  0.4443320000000  0.4949730000000  0.3318960000000 1.0
C      1  0.5396580000000  0.4372480000000  0.3863080000000 1.0
C      1  0.5753530000000  0.4992640000000  0.5340500000000 1.0
C      1  0.5512040000000  0.5095550000000  0.5291520000000 1.0
C      1  0.4505270000000  0.5409240000000  0.5536980000000 1.0
C      1  0.5250680000000  0.5054210000000  0.5317670000000 1.0
C      1  0.5952090000000  0.4075650000000  0.5965760000000 1.0
C      1  0.4287340000000  0.4947860000000  0.3110080000000 1.0
C      1  0.5211710000000  0.4700510000000  0.4257010000000 1.0
C      1  0.4458600000000  0.5213390000000  0.4923100000000 1.0
C      1  0.5792700000000  0.4249470000000  0.5854860000000 1.0
C      1  0.4750190000000  0.4908450000000  0.6019090000000 1.0
C      1  0.4506150000000  0.4552680000000  0.5221690000000 1.0
C      1  0.4931680000000  0.4409050000000  0.5419730000000 1.0
C      1  0.5008710000000  0.4384850000000  0.5674260000000 1.0
C      1  0.5194120000000  0.5267170000000  0.4788900000000 1.0
C      1  0.4074230000000  0.5383140000000  0.5293330000000 1.0
C      1  0.4473770000000  0.5147070000000  0.5653910000000 1.0
C      1  0.4971040000000  0.5123730000000  0.4886690000000 1.0
C      1  0.5157510000000  0.5550330000000  0.4761440000000 1.0
C      1  0.4970250000000  0.5303780000000  0.5609480000000 1.0
C      1  0.5183850000000  0.5885350000000  0.5107050000000 1.0
C      1  0.5417980000000  0.4446700000000  0.4998560000000 1.0
END
