TITL C-627113-6568-828 13.2511845022175 125000 -324.500941674388 0 0 54 (C1) n - 1
REM
REM in /home/nfs/bkarasulu/CARBON/AIRSS/Generating-Clusters/LCBOP/Only-C1/SD-CG/FIRE-CG
REM
REM
REM
REM
REM
REM ./C.cell (11c1c37f851c82e70ff6c80c92926a4b)
REM AIRSS Version 0.9.1 bugfix July 2018 build 013d7b7c2542+ Fri, 06 Jul 2018 19:26:36 +0100
REM compiler GCC version 9.2.1 20190827 (Red Hat 9.2.1-1)
REM options -cpp -mtune=generic -march=x86-64 -g -O0 -fpre-include=/usr/include/finclude/math-vector-fortran.h
REM seed -324560984 248770593 1452037942 579459095 737460508 -113851449 145438349 2092266692 -1042584452 684098387 406219184 1696516234 -2113593027 70922801 1833668651 1707351371 283992323 -1535426137 1703257609 -270621013 888016132 -444808372 -1292817141 -1990425721 1649400363 -103606244 922855510 -1037068673 831729095 -2080788752 -1545959693 1917595874 1243081801
REM
CELL 1.54180   50.00000   50.00000   50.00000   90.00000   90.00000   90.00000
LATT -1
SFAC C  
C      1  0.4442940000000  0.5760240000000  0.5755630000000 1.0
C      1  0.6852600000000  0.4297550000000  0.4707290000000 1.0
C      1  0.5298950000000  0.4745340000000  0.5962680000000 1.0
C      1  0.5903770000000  0.4167820000000  0.4505660000000 1.0
C      1  0.4093000000000  0.4982000000000  0.4858910000000 1.0
C      1  0.5432920000000  0.5339380000000  0.4652490000000 1.0
C      1  0.4798240000000  0.5079300000000  0.4983750000000 1.0
C      1  0.4284070000000  0.5562110000000  0.4999480000000 1.0
C      1  0.4560980000000  0.5977020000000  0.5337920000000 1.0
C      1  0.5674280000000  0.4059870000000  0.4426430000000 1.0
C      1  0.4367890000000  0.6016880000000  0.5136190000000 1.0
C      1  0.4710290000000  0.4695010000000  0.5523600000000 1.0
C      1  0.5472930000000  0.5603810000000  0.4652940000000 1.0
C      1  0.4524310000000  0.5134370000000  0.5028870000000 1.0
C      1  0.5472960000000  0.5614470000000  0.5254830000000 1.0
C      1  0.5479860000000  0.5811620000000  0.4822270000000 1.0
C      1  0.4292670000000  0.4443760000000  0.4974360000000 1.0
C      1  0.3650540000000  0.5096570000000  0.4590820000000 1.0
C      1  0.5020530000000  0.5091020000000  0.5157660000000 1.0
C      1  0.4921150000000  0.4050430000000  0.4429880000000 1.0
C      1  0.5288640000000  0.6060520000000  0.5200090000000 1.0
C      1  0.4942880000000  0.5101330000000  0.5433540000000 1.0
C      1  0.4798110000000  0.6123690000000  0.5344970000000 1.0
C      1  0.4667870000000  0.4014330000000  0.4501140000000 1.0
C      1  0.4328020000000  0.4930420000000  0.5001060000000 1.0
C      1  0.4369600000000  0.4672420000000  0.5115790000000 1.0
C      1  0.5716430000000  0.4765100000000  0.4746780000000 1.0
C      1  0.4926830000000  0.4862470000000  0.5585250000000 1.0
C      1  0.4450790000000  0.4083050000000  0.4637940000000 1.0
C      1  0.4584200000000  0.5484530000000  0.5381490000000 1.0
C      1  0.5164920000000  0.4458200000000  0.4517870000000 1.0
C      1  0.5259530000000  0.4683120000000  0.4621900000000 1.0
C      1  0.4508480000000  0.4645260000000  0.5357500000000 1.0
C      1  0.3433390000000  0.5155960000000  0.4459340000000 1.0
C      1  0.4319040000000  0.4238800000000  0.4807950000000 1.0
C      1  0.5409810000000  0.4062830000000  0.4399900000000 1.0
C      1  0.5114300000000  0.4798980000000  0.5780430000000 1.0
C      1  0.5481390000000  0.4693510000000  0.6141550000000 1.0
C      1  0.6594470000000  0.4321590000000  0.4679760000000 1.0
C      1  0.5435010000000  0.5846010000000  0.5098380000000 1.0
C      1  0.5163370000000  0.4188330000000  0.4441550000000 1.0
C      1  0.4245580000000  0.5827700000000  0.4988540000000 1.0
C      1  0.5922720000000  0.4602450000000  0.4708650000000 1.0
C      1  0.6056220000000  0.4371760000000  0.4622380000000 1.0
C      1  0.5280820000000  0.5166090000000  0.5077720000000 1.0
C      1  0.5056700000000  0.6153560000000  0.5291140000000 1.0
C      1  0.5451670000000  0.4855100000000  0.4730270000000 1.0
C      1  0.4455840000000  0.5389060000000  0.5140240000000 1.0
C      1  0.5382880000000  0.5115390000000  0.4815720000000 1.0
C      1  0.3871410000000  0.5036790000000  0.4724580000000 1.0
C      1  0.6332140000000  0.4346010000000  0.4651780000000 1.0
C      1  0.5419270000000  0.5352980000000  0.5237280000000 1.0
C      1  0.4529620000000  0.5740700000000  0.5496530000000 1.0
C      1  0.4783160000000  0.5323380000000  0.5499330000000 1.0
END
