TITL C-627107-135-1596 -3.65226887453569e-07 125000 -515.079187086438 0 0 84 (C1) n - 1
REM
REM in /home/nfs/bkarasulu/CARBON/AIRSS/Generating-Clusters/LCBOP/Only-C1/SD-CG/FIRE-CG
REM
REM
REM
REM
REM
REM ./C.cell (11c1c37f851c82e70ff6c80c92926a4b)
REM AIRSS Version 0.9.1 bugfix July 2018 build 013d7b7c2542+ Fri, 06 Jul 2018 19:26:36 +0100
REM compiler GCC version 9.2.1 20190827 (Red Hat 9.2.1-1)
REM options -cpp -mtune=generic -march=x86-64 -g -O0 -fpre-include=/usr/include/finclude/math-vector-fortran.h
REM seed -489202003 -533876489 -1839804942 -2051129466 -248869466 -170569762 1200961892 1625737612 -2086242059 2036134452 896181273 -936586079 -1495396363 2000100575 1761043287 1505919315 375802118 -1384547259 -1996030595 -1062425502 -973958501 -183927377 -2085039023 304080523 -1925979584 1460525377 1836525220 337236652 -867071608 751291863 -629230512 -1043394390 -581260946
REM
CELL 1.54180   50.00000   50.00000   50.00000   90.00000   90.00000   90.00000
LATT -1
SFAC C  
C      1  0.5898480000000  0.5054140000000  0.4787970000000 1.0
C      1  0.4223760000000  0.5401360000000  0.5228330000000 1.0
C      1  0.5213060000000  0.5560960000000  0.5107590000000 1.0
C      1  0.4219840000000  0.4325540000000  0.5405320000000 1.0
C      1  0.5705050000000  0.5400220000000  0.5013540000000 1.0
C      1  0.4784720000000  0.5437980000000  0.5753880000000 1.0
C      1  0.4711820000000  0.5579280000000  0.4551730000000 1.0
C      1  0.4200290000000  0.4749030000000  0.4611790000000 1.0
C      1  0.5164630000000  0.4507230000000  0.4669650000000 1.0
C      1  0.5447370000000  0.5395050000000  0.6041650000000 1.0
C      1  0.4999310000000  0.5005740000000  0.5823210000000 1.0
C      1  0.5183150000000  0.4608480000000  0.5632810000000 1.0
C      1  0.5350130000000  0.5090240000000  0.4970090000000 1.0
C      1  0.4333580000000  0.5221180000000  0.4474860000000 1.0
C      1  0.4088490000000  0.5180500000000  0.5114920000000 1.0
C      1  0.4195980000000  0.4231570000000  0.5154770000000 1.0
C      1  0.4386010000000  0.4226750000000  0.4700230000000 1.0
C      1  0.5137310000000  0.4081990000000  0.4817280000000 1.0
C      1  0.4810760000000  0.5167690000000  0.5680590000000 1.0
C      1  0.5823510000000  0.5134450000000  0.5072910000000 1.0
C      1  0.6002010000000  0.5309750000000  0.4684800000000 1.0
C      1  0.5099740000000  0.5884390000000  0.4619200000000 1.0
C      1  0.4093370000000  0.4919150000000  0.5229780000000 1.0
C      1  0.4468270000000  0.5519410000000  0.5222780000000 1.0
C      1  0.5716440000000  0.4924040000000  0.4609920000000 1.0
C      1  0.5638400000000  0.5125010000000  0.5566130000000 1.0
C      1  0.4102110000000  0.4591370000000  0.4836380000000 1.0
C      1  0.5860600000000  0.5531140000000  0.4805370000000 1.0
C      1  0.4543500000000  0.5357730000000  0.4605720000000 1.0
C      1  0.5350080000000  0.4137770000000  0.4981360000000 1.0
C      1  0.5032790000000  0.5048480000000  0.4643030000000 1.0
C      1  0.5160680000000  0.4951670000000  0.5348580000000 1.0
C      1  0.4895010000000  0.4335440000000  0.4179610000000 1.0
C      1  0.4940340000000  0.5586510000000  0.4984490000000 1.0
C      1  0.5756850000000  0.4716120000000  0.5305160000000 1.0
C      1  0.5231160000000  0.5020850000000  0.4434180000000 1.0
C      1  0.4602550000000  0.5241360000000  0.4866030000000 1.0
C      1  0.4530710000000  0.4376160000000  0.4509100000000 1.0
C      1  0.4678530000000  0.4772080000000  0.5088290000000 1.0
C      1  0.5385040000000  0.4793030000000  0.4993890000000 1.0
C      1  0.5598000000000  0.5618660000000  0.5388450000000 1.0
C      1  0.5423650000000  0.5369290000000  0.5009380000000 1.0
C      1  0.5522230000000  0.5132390000000  0.6041550000000 1.0
C      1  0.4259180000000  0.4567120000000  0.5517820000000 1.0
C      1  0.5064620000000  0.5121210000000  0.4927660000000 1.0
C      1  0.5124280000000  0.4994160000000  0.4171110000000 1.0
C      1  0.5759410000000  0.5002450000000  0.5324950000000 1.0
C      1  0.4992390000000  0.4540730000000  0.4034440000000 1.0
C      1  0.4662290000000  0.4874840000000  0.4056390000000 1.0
C      1  0.4968110000000  0.5119980000000  0.5216000000000 1.0
C      1  0.4686540000000  0.5448100000000  0.5056410000000 1.0
C      1  0.5237380000000  0.4844570000000  0.5786940000000 1.0
C      1  0.4633580000000  0.4945890000000  0.4861270000000 1.0
C      1  0.4391990000000  0.4622610000000  0.4429730000000 1.0
C      1  0.5310830000000  0.5680900000000  0.5351980000000 1.0
C      1  0.4158390000000  0.5040720000000  0.4612430000000 1.0
C      1  0.5424560000000  0.5520610000000  0.5790480000000 1.0
C      1  0.5923340000000  0.4559910000000  0.5454520000000 1.0
C      1  0.4791780000000  0.4900430000000  0.4628800000000 1.0
C      1  0.5216730000000  0.5655330000000  0.5631200000000 1.0
C      1  0.4462770000000  0.4759950000000  0.4194370000000 1.0
C      1  0.4743450000000  0.5098850000000  0.5409550000000 1.0
C      1  0.4302150000000  0.4821030000000  0.5400390000000 1.0
C      1  0.4030170000000  0.5167420000000  0.4835400000000 1.0
C      1  0.4939000000000  0.4818760000000  0.4048680000000 1.0
C      1  0.3981030000000  0.4722950000000  0.5055870000000 1.0
C      1  0.5802900000000  0.5781200000000  0.4702490000000 1.0
C      1  0.5382740000000  0.4584660000000  0.4507880000000 1.0
C      1  0.5346800000000  0.5977050000000  0.4586880000000 1.0
C      1  0.4918080000000  0.5695720000000  0.4713980000000 1.0
C      1  0.5608790000000  0.5943280000000  0.4619190000000 1.0
C      1  0.4801400000000  0.4295200000000  0.4444460000000 1.0
C      1  0.4950440000000  0.5645520000000  0.5714590000000 1.0
C      1  0.5141210000000  0.4642410000000  0.4916030000000 1.0
C      1  0.5515610000000  0.4330910000000  0.5077760000000 1.0
C      1  0.4937160000000  0.4627550000000  0.5122580000000 1.0
C      1  0.4566420000000  0.4890240000000  0.5329940000000 1.0
C      1  0.5571820000000  0.4609990000000  0.5118000000000 1.0
C      1  0.5623970000000  0.5416960000000  0.5591950000000 1.0
C      1  0.4207110000000  0.4328440000000  0.4890830000000 1.0
C      1  0.5081690000000  0.4669240000000  0.5375640000000 1.0
C      1  0.5493030000000  0.4986250000000  0.5794090000000 1.0
C      1  0.5465980000000  0.4857040000000  0.4492070000000 1.0
C      1  0.5011590000000  0.4268620000000  0.4638950000000 1.0
END
