TITL C-627107-135-1033 -7.82349653198642e-08 125000 -428.705474799877 0 0 71 (C1) n - 1
REM
REM in /home/nfs/bkarasulu/CARBON/AIRSS/Generating-Clusters/LCBOP/Only-C1/SD-CG/FIRE-CG
REM
REM
REM
REM
REM
REM ./C.cell (11c1c37f851c82e70ff6c80c92926a4b)
REM AIRSS Version 0.9.1 bugfix July 2018 build 013d7b7c2542+ Fri, 06 Jul 2018 19:26:36 +0100
REM compiler GCC version 9.2.1 20190827 (Red Hat 9.2.1-1)
REM options -cpp -mtune=generic -march=x86-64 -g -O0 -fpre-include=/usr/include/finclude/math-vector-fortran.h
REM seed -401875259 -2033391255 -1873902784 552224722 -469531632 -1980085138 255161055 84629157 1758865016 -1138055875 2115758318 -1494804843 28709250 2052628563 -1581771158 -288898162 -1134086218 -1154758639 951848254 1313860823 -20448530 -42769048 1216177493 702715117 -1254950209 -576096402 -1576065196 2033663865 48533605 -1477045258 1698857620 1854671767 -1291720235
REM
CELL 1.54180   50.00000   50.00000   50.00000   90.00000   90.00000   90.00000
LATT -1
SFAC C  
C      1  0.5323490000000  0.4963280000000  0.4814180000000 1.0
C      1  0.5307800000000  0.5421630000000  0.4555610000000 1.0
C      1  0.5225350000000  0.5800540000000  0.5250560000000 1.0
C      1  0.5436420000000  0.4933320000000  0.5387890000000 1.0
C      1  0.4132000000000  0.5676130000000  0.5185350000000 1.0
C      1  0.5682510000000  0.5037770000000  0.5282970000000 1.0
C      1  0.5945050000000  0.4826910000000  0.4676230000000 1.0
C      1  0.3796750000000  0.5027630000000  0.4935600000000 1.0
C      1  0.4425360000000  0.5294720000000  0.5132750000000 1.0
C      1  0.4368290000000  0.5150330000000  0.5693680000000 1.0
C      1  0.4792610000000  0.5311780000000  0.5444140000000 1.0
C      1  0.5070750000000  0.4500930000000  0.4878360000000 1.0
C      1  0.5080260000000  0.5841720000000  0.5013140000000 1.0
C      1  0.5549470000000  0.5504220000000  0.4673270000000 1.0
C      1  0.4977950000000  0.4730530000000  0.5042250000000 1.0
C      1  0.4928750000000  0.5766880000000  0.4807000000000 1.0
C      1  0.5448130000000  0.4249730000000  0.4670250000000 1.0
C      1  0.5613490000000  0.4265340000000  0.4440930000000 1.0
C      1  0.4638030000000  0.5449190000000  0.5247170000000 1.0
C      1  0.3912530000000  0.5056220000000  0.4696060000000 1.0
C      1  0.4347270000000  0.5839390000000  0.5217640000000 1.0
C      1  0.4426800000000  0.4772350000000  0.4987040000000 1.0
C      1  0.3815570000000  0.5033640000000  0.5213790000000 1.0
C      1  0.5204830000000  0.5072330000000  0.5283840000000 1.0
C      1  0.5035060000000  0.4368860000000  0.5309290000000 1.0
C      1  0.5134040000000  0.4965470000000  0.5027530000000 1.0
C      1  0.5403290000000  0.4659060000000  0.5462450000000 1.0
C      1  0.5301570000000  0.4394740000000  0.5414180000000 1.0
C      1  0.5497520000000  0.4074960000000  0.4883250000000 1.0
C      1  0.4162770000000  0.5395050000000  0.5194140000000 1.0
C      1  0.5616580000000  0.5436600000000  0.4938440000000 1.0
C      1  0.6220710000000  0.5176840000000  0.4390980000000 1.0
C      1  0.4109390000000  0.5100330000000  0.5596210000000 1.0
C      1  0.5706840000000  0.4723250000000  0.4561160000000 1.0
C      1  0.4531910000000  0.4324440000000  0.4824550000000 1.0
C      1  0.5741310000000  0.5633870000000  0.4515160000000 1.0
C      1  0.5982880000000  0.4800020000000  0.4953090000000 1.0
C      1  0.3764950000000  0.4836850000000  0.5419330000000 1.0
C      1  0.5732370000000  0.4502620000000  0.4382290000000 1.0
C      1  0.4594180000000  0.5729980000000  0.5250190000000 1.0
C      1  0.5035260000000  0.5381560000000  0.4517410000000 1.0
C      1  0.4119760000000  0.5065310000000  0.4526860000000 1.0
C      1  0.6132990000000  0.4960400000000  0.4518410000000 1.0
C      1  0.5674220000000  0.5291320000000  0.5155380000000 1.0
C      1  0.4695440000000  0.4672280000000  0.5493060000000 1.0
C      1  0.5073470000000  0.5299750000000  0.5393950000000 1.0
C      1  0.3931800000000  0.4874940000000  0.5637700000000 1.0
C      1  0.5201930000000  0.5550330000000  0.5377000000000 1.0
C      1  0.4580120000000  0.5458390000000  0.4578930000000 1.0
C      1  0.5973180000000  0.5611080000000  0.4385730000000 1.0
C      1  0.5886530000000  0.4866780000000  0.5193390000000 1.0
C      1  0.4629670000000  0.5205050000000  0.5650140000000 1.0
C      1  0.5306960000000  0.4493920000000  0.4726670000000 1.0
C      1  0.4454810000000  0.5027200000000  0.5059290000000 1.0
C      1  0.4388160000000  0.4994990000000  0.4470960000000 1.0
C      1  0.5448310000000  0.4744130000000  0.4686400000000 1.0
C      1  0.4725820000000  0.4178500000000  0.4944420000000 1.0
C      1  0.5586910000000  0.4063820000000  0.5628070000000 1.0
C      1  0.4878470000000  0.5162070000000  0.4410580000000 1.0
C      1  0.4458240000000  0.4591270000000  0.4773060000000 1.0
C      1  0.4591410000000  0.5190940000000  0.4459800000000 1.0
C      1  0.4841370000000  0.5569010000000  0.4632510000000 1.0
C      1  0.4976680000000  0.4269880000000  0.5035570000000 1.0
C      1  0.5520290000000  0.4056860000000  0.5148530000000 1.0
C      1  0.6164280000000  0.5431580000000  0.4335360000000 1.0
C      1  0.4452980000000  0.4721780000000  0.4521770000000 1.0
C      1  0.4531400000000  0.4612010000000  0.5686840000000 1.0
C      1  0.4008060000000  0.5215030000000  0.5341400000000 1.0
C      1  0.5384150000000  0.5996760000000  0.5354700000000 1.0
C      1  0.5473860000000  0.4168340000000  0.5402650000000 1.0
C      1  0.4888640000000  0.4625260000000  0.5301550000000 1.0
END
