TITL C-627111-6168-1348 110.591980507772 125000 -256.764044502281 0 0 44 (C1) n - 1
REM
REM in /home/nfs/bkarasulu/CARBON/AIRSS/Generating-Clusters/LCBOP/Only-C1/SD-CG/FIRE-CG
REM
REM
REM
REM
REM
REM ./C.cell (11c1c37f851c82e70ff6c80c92926a4b)
REM AIRSS Version 0.9.1 bugfix July 2018 build 013d7b7c2542+ Fri, 06 Jul 2018 19:26:36 +0100
REM compiler GCC version 9.2.1 20190827 (Red Hat 9.2.1-1)
REM options -cpp -mtune=generic -march=x86-64 -g -O0 -fpre-include=/usr/include/finclude/math-vector-fortran.h
REM seed 413177188 -494801013 -1953496881 1902404322 8376726 527503050 -912891629 1418527687 -713856123 2056534063 1718400807 428852383 1155920022 -1705601743 1300580317 -670624917 1365510326 -2089707296 728118822 -351538928 798476229 -423169541 244456142 -1748667984 1860622902 1928762383 1052789997 -893749805 817787933 -468240239 -1212613328 -825148581 -1169405568
REM
CELL 1.54180   50.00000   50.00000   50.00000   90.00000   90.00000   90.00000
LATT -1
SFAC C  
C      1  0.4887500000000  0.5613660000000  0.4492830000000 1.0
C      1  0.4098770000000  0.4839200000000  0.5745400000000 1.0
C      1  0.4102760000000  0.4952370000000  0.4137760000000 1.0
C      1  0.6452030000000  0.4498230000000  0.6443740000000 1.0
C      1  0.5203720000000  0.4939000000000  0.5713010000000 1.0
C      1  0.5010020000000  0.5136660000000  0.5753190000000 1.0
C      1  0.4969800000000  0.5853590000000  0.3772590000000 1.0
C      1  0.5603010000000  0.4683650000000  0.5812050000000 1.0
C      1  0.4703050000000  0.5221410000000  0.4821090000000 1.0
C      1  0.4544980000000  0.5120360000000  0.3537300000000 1.0
C      1  0.4494290000000  0.4997800000000  0.3782270000000 1.0
C      1  0.5339610000000  0.4579430000000  0.5419190000000 1.0
C      1  0.4454820000000  0.4753740000000  0.5111500000000 1.0
C      1  0.4268840000000  0.4946930000000  0.4365830000000 1.0
C      1  0.4802850000000  0.5167930000000  0.5568150000000 1.0
C      1  0.4797380000000  0.5428480000000  0.4659760000000 1.0
C      1  0.4540200000000  0.4944840000000  0.4442240000000 1.0
C      1  0.5230410000000  0.4485940000000  0.5196160000000 1.0
C      1  0.4895020000000  0.5749730000000  0.3539600000000 1.0
C      1  0.6936760000000  0.4676350000000  0.6284940000000 1.0
C      1  0.6423890000000  0.4363650000000  0.6680210000000 1.0
C      1  0.4777030000000  0.5556120000000  0.3400490000000 1.0
C      1  0.4620330000000  0.4743020000000  0.4883690000000 1.0
C      1  0.4830660000000  0.4558920000000  0.4879600000000 1.0
C      1  0.5811800000000  0.4637480000000  0.5968370000000 1.0
C      1  0.4234980000000  0.4970570000000  0.3889060000000 1.0
C      1  0.5023480000000  0.5302160000000  0.5977690000000 1.0
C      1  0.6229860000000  0.4545510000000  0.6280680000000 1.0
C      1  0.6703320000000  0.4590070000000  0.6362330000000 1.0
C      1  0.4690290000000  0.5252560000000  0.5100330000000 1.0
C      1  0.4647640000000  0.5323660000000  0.3399990000000 1.0
C      1  0.3831000000000  0.4940760000000  0.4156500000000 1.0
C      1  0.4988670000000  0.5853250000000  0.4037540000000 1.0
C      1  0.5036750000000  0.5455980000000  0.6187660000000 1.0
C      1  0.4447140000000  0.4915260000000  0.5341910000000 1.0
C      1  0.4265060000000  0.4874470000000  0.5547870000000 1.0
C      1  0.4639540000000  0.5126530000000  0.5346420000000 1.0
C      1  0.4622160000000  0.4969700000000  0.4710490000000 1.0
C      1  0.5051750000000  0.4473100000000  0.4999960000000 1.0
C      1  0.4724430000000  0.4926240000000  0.4229650000000 1.0
C      1  0.5382510000000  0.4733900000000  0.5648340000000 1.0
C      1  0.4704480000000  0.4942320000000  0.3962420000000 1.0
C      1  0.4956600000000  0.5764060000000  0.4285490000000 1.0
C      1  0.6020760000000  0.4591400000000  0.6124680000000 1.0
END
