TITL C-627106-156-987 0.00258373602766895 125000 -375.805759114797 0 0 63 (C1) n - 1
REM
REM in /home/nfs/bkarasulu/CARBON/AIRSS/Generating-Clusters/LCBOP/Only-C1/SD-CG/FIRE-CG
REM
REM
REM
REM
REM
REM ./C.cell (11c1c37f851c82e70ff6c80c92926a4b)
REM AIRSS Version 0.9.1 bugfix July 2018 build 013d7b7c2542+ Fri, 06 Jul 2018 19:26:36 +0100
REM compiler GCC version 9.2.1 20190827 (Red Hat 9.2.1-1)
REM options -cpp -mtune=generic -march=x86-64 -g -O0 -fpre-include=/usr/include/finclude/math-vector-fortran.h
REM seed -1620720817 379983350 2015855787 1907172755 1107013962 -683444586 1265624483 -2066050965 1729697262 -441658549 -1836993285 1400674056 1590018147 874153331 -32106508 -1433220858 -634043786 -523418098 -1892677792 2029485337 797024402 -304261728 1457646290 475271443 -114468850 -1511892405 231861686 -1600193726 -185424512 1147622203 -2051558665 -184967172 -273829295
REM
CELL 1.54180   50.00000   50.00000   50.00000   90.00000   90.00000   90.00000
LATT -1
SFAC C  
C      1  0.5073490000000  0.5388270000000  0.4706260000000 1.0
C      1  0.4314060000000  0.5662140000000  0.4624080000000 1.0
C      1  0.5581350000000  0.4836040000000  0.5191240000000 1.0
C      1  0.4829840000000  0.4422840000000  0.4732050000000 1.0
C      1  0.4569810000000  0.4939830000000  0.5849350000000 1.0
C      1  0.4440490000000  0.4713250000000  0.5146330000000 1.0
C      1  0.4616840000000  0.4774190000000  0.5368960000000 1.0
C      1  0.4477500000000  0.4758570000000  0.4606230000000 1.0
C      1  0.4700670000000  0.3913710000000  0.4843660000000 1.0
C      1  0.4713580000000  0.5534840000000  0.4356230000000 1.0
C      1  0.4630710000000  0.5067000000000  0.4202310000000 1.0
C      1  0.5467500000000  0.3880040000000  0.5269520000000 1.0
C      1  0.5152510000000  0.4823960000000  0.5731400000000 1.0
C      1  0.4387100000000  0.4729960000000  0.4878180000000 1.0
C      1  0.5894860000000  0.4566590000000  0.4952400000000 1.0
C      1  0.5577310000000  0.5143430000000  0.4750430000000 1.0
C      1  0.5446480000000  0.5225190000000  0.4242120000000 1.0
C      1  0.4814820000000  0.5401700000000  0.5617900000000 1.0
C      1  0.5124900000000  0.5543850000000  0.5213440000000 1.0
C      1  0.5846420000000  0.4721340000000  0.5183260000000 1.0
C      1  0.4305970000000  0.5526460000000  0.4852730000000 1.0
C      1  0.5451750000000  0.4136810000000  0.5311570000000 1.0
C      1  0.4376140000000  0.5302460000000  0.5005160000000 1.0
C      1  0.4899170000000  0.4736940000000  0.4375570000000 1.0
C      1  0.5245470000000  0.4661550000000  0.4684430000000 1.0
C      1  0.4184880000000  0.5201290000000  0.5173440000000 1.0
C      1  0.5252110000000  0.5199700000000  0.4038070000000 1.0
C      1  0.5352920000000  0.6047500000000  0.6537110000000 1.0
C      1  0.4472890000000  0.5663820000000  0.4409370000000 1.0
C      1  0.5090370000000  0.5712710000000  0.6228220000000 1.0
C      1  0.5384040000000  0.4677810000000  0.5330530000000 1.0
C      1  0.4929790000000  0.5558000000000  0.4535300000000 1.0
C      1  0.4448020000000  0.4979910000000  0.4415810000000 1.0
C      1  0.5553310000000  0.5199500000000  0.4487960000000 1.0
C      1  0.5431740000000  0.4399640000000  0.5338100000000 1.0
C      1  0.4630050000000  0.5180910000000  0.4973330000000 1.0
C      1  0.4617260000000  0.5238660000000  0.5495300000000 1.0
C      1  0.5742830000000  0.4504780000000  0.4740170000000 1.0
C      1  0.5540450000000  0.5037850000000  0.4995940000000 1.0
C      1  0.4761890000000  0.4159690000000  0.4783240000000 1.0
C      1  0.5038200000000  0.4568880000000  0.4865900000000 1.0
C      1  0.5160940000000  0.5495250000000  0.4953170000000 1.0
C      1  0.4958860000000  0.5543980000000  0.6072060000000 1.0
C      1  0.5025070000000  0.5104420000000  0.4692150000000 1.0
C      1  0.4856930000000  0.5023820000000  0.4911430000000 1.0
C      1  0.6030670000000  0.4761580000000  0.5379830000000 1.0
C      1  0.5226400000000  0.4848120000000  0.5980290000000 1.0
C      1  0.4707010000000  0.4593420000000  0.4537910000000 1.0
C      1  0.4828240000000  0.5366470000000  0.5903220000000 1.0
C      1  0.4751420000000  0.5328740000000  0.4166860000000 1.0
C      1  0.5222730000000  0.5881490000000  0.6383950000000 1.0
C      1  0.5140280000000  0.4759930000000  0.5460530000000 1.0
C      1  0.5106060000000  0.4868740000000  0.4533110000000 1.0
C      1  0.5004260000000  0.5522530000000  0.5450870000000 1.0
C      1  0.4694710000000  0.5131780000000  0.5998560000000 1.0
C      1  0.4984440000000  0.4823910000000  0.3911860000000 1.0
C      1  0.5496610000000  0.4550590000000  0.4647530000000 1.0
C      1  0.4940410000000  0.4778730000000  0.5033150000000 1.0
C      1  0.5219710000000  0.4959000000000  0.3890300000000 1.0
C      1  0.4811530000000  0.4850580000000  0.4132720000000 1.0
C      1  0.4898700000000  0.4750430000000  0.5308520000000 1.0
C      1  0.5008620000000  0.5346490000000  0.4042470000000 1.0
C      1  0.4556930000000  0.4968410000000  0.5566940000000 1.0
END
