TITL C-627106-156-742 9.67432042921422e-07 125000 -956.315255558732 0 0 155 (C1) n - 1
REM
REM in /home/nfs/bkarasulu/CARBON/AIRSS/Generating-Clusters/LCBOP/Only-C1/SD-CG/FIRE-CG
REM
REM
REM
REM
REM
REM ./C.cell (11c1c37f851c82e70ff6c80c92926a4b)
REM AIRSS Version 0.9.1 bugfix July 2018 build 013d7b7c2542+ Fri, 06 Jul 2018 19:26:36 +0100
REM compiler GCC version 9.2.1 20190827 (Red Hat 9.2.1-1)
REM options -cpp -mtune=generic -march=x86-64 -g -O0 -fpre-include=/usr/include/finclude/math-vector-fortran.h
REM seed -398414607 -1899940192 762231846 540238197 -34721844 231770524 1757576314 -1994828620 2124365981 -1567345991 279324965 750570776 728174487 1936450918 -977817055 1016733217 -881933055 -1244837050 -724408102 1927868152 1614794055 -1264430511 -2118016088 84025821 -1834070424 -745110093 -1308067405 1120962627 -172501193 605862895 2122860552 1328052602 -1423384413
REM
CELL 1.54180   50.00000   50.00000   50.00000   90.00000   90.00000   90.00000
LATT -1
SFAC C  
C      1  0.3884600000000  0.5144250000000  0.4669760000000 1.0
C      1  0.4497730000000  0.5355760000000  0.4118070000000 1.0
C      1  0.4161150000000  0.5442270000000  0.4470150000000 1.0
C      1  0.4585060000000  0.4224180000000  0.4954680000000 1.0
C      1  0.5157840000000  0.4319720000000  0.4938700000000 1.0
C      1  0.4426570000000  0.5072410000000  0.4095670000000 1.0
C      1  0.5772230000000  0.4799750000000  0.4912710000000 1.0
C      1  0.5446200000000  0.5402740000000  0.3902870000000 1.0
C      1  0.5858480000000  0.5474180000000  0.5608710000000 1.0
C      1  0.4104790000000  0.5531730000000  0.4744280000000 1.0
C      1  0.4723870000000  0.4620420000000  0.5414170000000 1.0
C      1  0.4501900000000  0.6437130000000  0.5071180000000 1.0
C      1  0.4942610000000  0.6004470000000  0.5706460000000 1.0
C      1  0.4556630000000  0.4258040000000  0.4382500000000 1.0
C      1  0.5533330000000  0.4994650000000  0.5025510000000 1.0
C      1  0.4046790000000  0.4607440000000  0.4832270000000 1.0
C      1  0.4509230000000  0.5816350000000  0.4714180000000 1.0
C      1  0.4520760000000  0.3854230000000  0.5252490000000 1.0
C      1  0.5377100000000  0.5122390000000  0.3917840000000 1.0
C      1  0.4683280000000  0.3973650000000  0.5050250000000 1.0
C      1  0.5087360000000  0.3736610000000  0.5161430000000 1.0
C      1  0.5513580000000  0.5152250000000  0.4761740000000 1.0
C      1  0.4893980000000  0.5817730000000  0.5909720000000 1.0
C      1  0.5090260000000  0.4643740000000  0.6007130000000 1.0
C      1  0.4716300000000  0.4477540000000  0.4895140000000 1.0
C      1  0.4069590000000  0.5412820000000  0.5432110000000 1.0
C      1  0.3979870000000  0.5241100000000  0.5193050000000 1.0
C      1  0.4530530000000  0.5264390000000  0.5153840000000 1.0
C      1  0.4247710000000  0.5759780000000  0.4809310000000 1.0
C      1  0.5746480000000  0.4754990000000  0.5658300000000 1.0
C      1  0.4822710000000  0.6476740000000  0.4729220000000 1.0
C      1  0.4818650000000  0.4728740000000  0.4225530000000 1.0
C      1  0.5096740000000  0.5089910000000  0.3950470000000 1.0
C      1  0.6275900000000  0.4711490000000  0.4897620000000 1.0
C      1  0.4419030000000  0.4351000000000  0.5792150000000 1.0
C      1  0.5016500000000  0.5349320000000  0.5982520000000 1.0
C      1  0.5826110000000  0.4273910000000  0.5020580000000 1.0
C      1  0.5140310000000  0.5780120000000  0.5248520000000 1.0
C      1  0.4298780000000  0.4319540000000  0.4495390000000 1.0
C      1  0.4948250000000  0.5370860000000  0.5444470000000 1.0
C      1  0.4186790000000  0.4582270000000  0.4570870000000 1.0
C      1  0.5767790000000  0.5717630000000  0.4786730000000 1.0
C      1  0.4241980000000  0.4819540000000  0.5666730000000 1.0
C      1  0.5274740000000  0.5725490000000  0.4771920000000 1.0
C      1  0.5516900000000  0.4613150000000  0.4538300000000 1.0
C      1  0.5311850000000  0.4167670000000  0.4373670000000 1.0
C      1  0.5524230000000  0.5697270000000  0.4613740000000 1.0
C      1  0.5333330000000  0.5041640000000  0.4561160000000 1.0
C      1  0.4300680000000  0.4218320000000  0.4932020000000 1.0
C      1  0.4410950000000  0.5502550000000  0.4348920000000 1.0
C      1  0.5053040000000  0.5051990000000  0.4635490000000 1.0
C      1  0.5703510000000  0.4229460000000  0.4753050000000 1.0
C      1  0.5668040000000  0.4418880000000  0.4159300000000 1.0
C      1  0.5329080000000  0.4784550000000  0.4429030000000 1.0
C      1  0.5023380000000  0.5520560000000  0.5227160000000 1.0
C      1  0.4372820000000  0.5059690000000  0.5581430000000 1.0
C      1  0.4511250000000  0.6150030000000  0.5075630000000 1.0
C      1  0.4942520000000  0.4134400000000  0.4083520000000 1.0
C      1  0.4610740000000  0.5630700000000  0.4517130000000 1.0
C      1  0.4073290000000  0.4758160000000  0.5426900000000 1.0
C      1  0.4995810000000  0.4777740000000  0.5760900000000 1.0
C      1  0.4419800000000  0.3931250000000  0.5493810000000 1.0
C      1  0.4404000000000  0.5742020000000  0.5364960000000 1.0
C      1  0.4815770000000  0.6206190000000  0.4698740000000 1.0
C      1  0.4303120000000  0.4813080000000  0.4461290000000 1.0
C      1  0.6030170000000  0.5664670000000  0.5484120000000 1.0
C      1  0.4801670000000  0.5556600000000  0.5943330000000 1.0
C      1  0.5767890000000  0.5943910000000  0.4955290000000 1.0
C      1  0.4807430000000  0.5209190000000  0.5599570000000 1.0
C      1  0.5976040000000  0.5173570000000  0.5258390000000 1.0
C      1  0.5079600000000  0.4703820000000  0.4306190000000 1.0
C      1  0.6135840000000  0.5621070000000  0.5235240000000 1.0
C      1  0.4523200000000  0.4941840000000  0.4580460000000 1.0
C      1  0.5268280000000  0.4868740000000  0.5040120000000 1.0
C      1  0.5744960000000  0.5326780000000  0.4392930000000 1.0
C      1  0.5758600000000  0.5269660000000  0.4672080000000 1.0
C      1  0.5870400000000  0.4674920000000  0.5412300000000 1.0
C      1  0.4726980000000  0.4717170000000  0.5684450000000 1.0
C      1  0.4489640000000  0.5483660000000  0.5787500000000 1.0
C      1  0.4949850000000  0.5411100000000  0.4977020000000 1.0
C      1  0.4850670000000  0.4370580000000  0.5403970000000 1.0
C      1  0.4992960000000  0.4537340000000  0.4858140000000 1.0
C      1  0.4731840000000  0.5210820000000  0.4959610000000 1.0
C      1  0.5233160000000  0.5332640000000  0.5780570000000 1.0
C      1  0.4453300000000  0.5035180000000  0.5306610000000 1.0
C      1  0.4659140000000  0.6593700000000  0.4913100000000 1.0
C      1  0.5321420000000  0.5147630000000  0.5571840000000 1.0
C      1  0.4745380000000  0.6203070000000  0.5679830000000 1.0
C      1  0.5240470000000  0.4409080000000  0.5907340000000 1.0
C      1  0.4607320000000  0.4727800000000  0.4968230000000 1.0
C      1  0.6041370000000  0.4789420000000  0.5008170000000 1.0
C      1  0.5469550000000  0.4707610000000  0.5660540000000 1.0
C      1  0.4816750000000  0.4157060000000  0.5587000000000 1.0
C      1  0.6045530000000  0.5397930000000  0.5077200000000 1.0
C      1  0.5482760000000  0.4345230000000  0.5385980000000 1.0
C      1  0.5036870000000  0.5567960000000  0.4754970000000 1.0
C      1  0.5399750000000  0.4426990000000  0.5658020000000 1.0
C      1  0.5594350000000  0.4956440000000  0.4028940000000 1.0
C      1  0.4032350000000  0.5188530000000  0.4414910000000 1.0
C      1  0.4207380000000  0.4118100000000  0.4681100000000 1.0
C      1  0.4166480000000  0.4440050000000  0.5036600000000 1.0
C      1  0.4551630000000  0.5219100000000  0.5715350000000 1.0
C      1  0.5060800000000  0.4112770000000  0.4526050000000 1.0
C      1  0.5556810000000  0.4334770000000  0.4447580000000 1.0
C      1  0.4199370000000  0.4997640000000  0.4272050000000 1.0
C      1  0.5978920000000  0.4732850000000  0.4483800000000 1.0
C      1  0.5244330000000  0.4880600000000  0.5634660000000 1.0
C      1  0.4068150000000  0.3892190000000  0.4629460000000 1.0
C      1  0.4511670000000  0.6176040000000  0.5550380000000 1.0
C      1  0.5080740000000  0.4078440000000  0.4804600000000 1.0
C      1  0.5755100000000  0.4720870000000  0.4643190000000 1.0
C      1  0.5764190000000  0.5274670000000  0.5423660000000 1.0
C      1  0.4248880000000  0.4587560000000  0.5263740000000 1.0
C      1  0.4478680000000  0.5537870000000  0.5183750000000 1.0
C      1  0.5533130000000  0.6021850000000  0.5066070000000 1.0
C      1  0.4868750000000  0.4952970000000  0.3836290000000 1.0
C      1  0.3892570000000  0.4805850000000  0.4971680000000 1.0
C      1  0.4758770000000  0.5418590000000  0.4029730000000 1.0
C      1  0.6298530000000  0.4011330000000  0.5090890000000 1.0
C      1  0.5108140000000  0.3768790000000  0.5428440000000 1.0
C      1  0.5868280000000  0.4892700000000  0.5868830000000 1.0
C      1  0.4660510000000  0.4885250000000  0.4033630000000 1.0
C      1  0.4972370000000  0.5266890000000  0.4146280000000 1.0
C      1  0.4946020000000  0.3893200000000  0.4973830000000 1.0
C      1  0.4632570000000  0.6036710000000  0.4835780000000 1.0
C      1  0.5639120000000  0.4666860000000  0.4031930000000 1.0
C      1  0.5902250000000  0.5138160000000  0.5970600000000 1.0
C      1  0.5762330000000  0.5120300000000  0.4198650000000 1.0
C      1  0.5292940000000  0.4301470000000  0.5182620000000 1.0
C      1  0.3943410000000  0.4944700000000  0.5226350000000 1.0
C      1  0.4819470000000  0.4153090000000  0.4347930000000 1.0
C      1  0.5017490000000  0.5125960000000  0.6166390000000 1.0
C      1  0.4512330000000  0.4741870000000  0.5239800000000 1.0
C      1  0.5579900000000  0.5566400000000  0.4357390000000 1.0
C      1  0.5482470000000  0.5592210000000  0.4094260000000 1.0
C      1  0.4452550000000  0.6018170000000  0.5323390000000 1.0
C      1  0.4946040000000  0.5252010000000  0.4433320000000 1.0
C      1  0.4869890000000  0.5509650000000  0.4539380000000 1.0
C      1  0.5063110000000  0.4821450000000  0.4846000000000 1.0
C      1  0.5072540000000  0.4858050000000  0.6199560000000 1.0
C      1  0.5515840000000  0.5171730000000  0.5354660000000 1.0
C      1  0.5889850000000  0.5459630000000  0.4841440000000 1.0
C      1  0.6071140000000  0.4133380000000  0.5054850000000 1.0
C      1  0.4642850000000  0.4968410000000  0.4825540000000 1.0
C      1  0.5219210000000  0.4139960000000  0.4098290000000 1.0
C      1  0.5882980000000  0.5388910000000  0.5875070000000 1.0
C      1  0.5000490000000  0.3945060000000  0.5600810000000 1.0
C      1  0.6016180000000  0.4888440000000  0.5269920000000 1.0
C      1  0.3968540000000  0.5323400000000  0.4898430000000 1.0
C      1  0.4449960000000  0.4637370000000  0.5776390000000 1.0
C      1  0.4539580000000  0.4125390000000  0.5663560000000 1.0
C      1  0.5297950000000  0.5869260000000  0.5027910000000 1.0
C      1  0.5097290000000  0.5932380000000  0.5481630000000 1.0
C      1  0.5744470000000  0.4429150000000  0.5272780000000 1.0
C      1  0.4285350000000  0.5585190000000  0.5586630000000 1.0
END
