TITL C-627108-131-1646 52.9033270489966 125000 -643.184667517319 0 0 106 (C1) n - 1
REM
REM in /home/nfs/bkarasulu/CARBON/AIRSS/Generating-Clusters/LCBOP/Only-C1/SD-CG/FIRE-CG
REM
REM
REM
REM
REM
REM ./C.cell (11c1c37f851c82e70ff6c80c92926a4b)
REM AIRSS Version 0.9.1 bugfix July 2018 build 013d7b7c2542+ Fri, 06 Jul 2018 19:26:36 +0100
REM compiler GCC version 9.2.1 20190827 (Red Hat 9.2.1-1)
REM options -cpp -mtune=generic -march=x86-64 -g -O0 -fpre-include=/usr/include/finclude/math-vector-fortran.h
REM seed 1639391569 -1711579992 -1751535723 -462945725 -625936302 428768677 1221085992 -318817727 859478738 841653301 -1854498423 1953535565 414736044 -1267313870 561809938 -806787846 -1407466489 -1939394500 1366291418 656085035 217360132 833474646 536508284 -1480448032 1197796661 -10876432 1177601882 -591819456 -899638058 -1413318581 -1318647695 314936977 -1403549704
REM
CELL 1.54180   50.00000   50.00000   50.00000   90.00000   90.00000   90.00000
LATT -1
SFAC C  
C      1  0.4435640000000  0.4753440000000  0.5603520000000 1.0
C      1  0.4172830000000  0.5278830000000  0.5541110000000 1.0
C      1  0.4621700000000  0.5366570000000  0.5759210000000 1.0
C      1  0.5016490000000  0.5406220000000  0.4652240000000 1.0
C      1  0.4798440000000  0.4291100000000  0.4068040000000 1.0
C      1  0.5961060000000  0.4949530000000  0.5021330000000 1.0
C      1  0.5498030000000  0.5421100000000  0.4347950000000 1.0
C      1  0.4491220000000  0.5074740000000  0.5265010000000 1.0
C      1  0.4960160000000  0.4589530000000  0.5267250000000 1.0
C      1  0.5496580000000  0.4755470000000  0.5005630000000 1.0
C      1  0.4397200000000  0.5091930000000  0.4336680000000 1.0
C      1  0.5623330000000  0.4672710000000  0.4458550000000 1.0
C      1  0.5681200000000  0.4297850000000  0.4791570000000 1.0
C      1  0.5311040000000  0.5858580000000  0.5000260000000 1.0
C      1  0.4665980000000  0.5014110000000  0.4830810000000 1.0
C      1  0.4891310000000  0.4838870000000  0.5378430000000 1.0
C      1  0.4477630000000  0.4695930000000  0.4030600000000 1.0
C      1  0.5027300000000  0.4408480000000  0.5484040000000 1.0
C      1  0.4384110000000  0.5780820000000  0.5307720000000 1.0
C      1  0.4879210000000  0.5491030000000  0.4879750000000 1.0
C      1  0.4715960000000  0.5900890000000  0.4716300000000 1.0
C      1  0.4254950000000  0.4629460000000  0.5407730000000 1.0
C      1  0.4335660000000  0.4712810000000  0.4702490000000 1.0
C      1  0.5335250000000  0.5725340000000  0.4441940000000 1.0
C      1  0.4966840000000  0.4447980000000  0.5759640000000 1.0
C      1  0.4767200000000  0.3939070000000  0.4843850000000 1.0
C      1  0.4075570000000  0.4847400000000  0.5296010000000 1.0
C      1  0.5999210000000  0.5205210000000  0.4902970000000 1.0
C      1  0.5414070000000  0.5761890000000  0.5679600000000 1.0
C      1  0.4242900000000  0.4915490000000  0.4516350000000 1.0
C      1  0.4856310000000  0.5443180000000  0.4195430000000 1.0
C      1  0.4918330000000  0.4961590000000  0.5943200000000 1.0
C      1  0.4647330000000  0.5645430000000  0.4831290000000 1.0
C      1  0.4655930000000  0.5786610000000  0.5391600000000 1.0
C      1  0.5143460000000  0.5880580000000  0.5241800000000 1.0
C      1  0.5253650000000  0.4931140000000  0.4502790000000 1.0
C      1  0.4656140000000  0.5163370000000  0.5066430000000 1.0
C      1  0.5056740000000  0.4066080000000  0.5167020000000 1.0
C      1  0.4875260000000  0.5338920000000  0.5117640000000 1.0
C      1  0.4567310000000  0.4929060000000  0.4164130000000 1.0
C      1  0.5337040000000  0.4661780000000  0.4552100000000 1.0
C      1  0.4618770000000  0.3772000000000  0.4665580000000 1.0
C      1  0.4611480000000  0.4751820000000  0.4751660000000 1.0
C      1  0.5109830000000  0.5008340000000  0.5001040000000 1.0
C      1  0.4802630000000  0.4557760000000  0.4801200000000 1.0
C      1  0.4360660000000  0.5231860000000  0.5752410000000 1.0
C      1  0.5011170000000  0.5309570000000  0.4387720000000 1.0
C      1  0.5977920000000  0.5036620000000  0.5540530000000 1.0
C      1  0.4263170000000  0.5479300000000  0.4617960000000 1.0
C      1  0.5623530000000  0.5472430000000  0.5286010000000 1.0
C      1  0.5025220000000  0.4553080000000  0.4976100000000 1.0
C      1  0.4597390000000  0.4455910000000  0.4004590000000 1.0
C      1  0.4962340000000  0.4140520000000  0.4216890000000 1.0
C      1  0.4208870000000  0.5103700000000  0.5319150000000 1.0
C      1  0.5668840000000  0.4912590000000  0.4278240000000 1.0
C      1  0.4255480000000  0.5681700000000  0.5091880000000 1.0
C      1  0.5077820000000  0.5836330000000  0.4384530000000 1.0
C      1  0.5759300000000  0.5106510000000  0.5704920000000 1.0
C      1  0.5408380000000  0.5101060000000  0.4681650000000 1.0
C      1  0.5449310000000  0.5753800000000  0.4768280000000 1.0
C      1  0.5585480000000  0.5597660000000  0.5807650000000 1.0
C      1  0.4749210000000  0.3759240000000  0.4422580000000 1.0
C      1  0.5480510000000  0.4203660000000  0.4978130000000 1.0
C      1  0.4369950000000  0.5590290000000  0.4852520000000 1.0
C      1  0.5715020000000  0.5362040000000  0.5816750000000 1.0
C      1  0.4341260000000  0.4455620000000  0.5167300000000 1.0
C      1  0.4967110000000  0.4703920000000  0.5883730000000 1.0
C      1  0.5036180000000  0.3992310000000  0.4705160000000 1.0
C      1  0.4743940000000  0.5572760000000  0.5580330000000 1.0
C      1  0.4636130000000  0.5587750000000  0.4312160000000 1.0
C      1  0.4417660000000  0.5391320000000  0.4391710000000 1.0
C      1  0.5286190000000  0.4586860000000  0.4836570000000 1.0
C      1  0.5196110000000  0.4217740000000  0.5366740000000 1.0
C      1  0.4764560000000  0.4070200000000  0.5100140000000 1.0
C      1  0.5228350000000  0.4055650000000  0.4915250000000 1.0
C      1  0.4973290000000  0.3946960000000  0.4419240000000 1.0
C      1  0.4542050000000  0.4244950000000  0.5167210000000 1.0
C      1  0.5367510000000  0.4845600000000  0.5474050000000 1.0
C      1  0.4786170000000  0.5827940000000  0.4441360000000 1.0
C      1  0.3990930000000  0.4745290000000  0.5042630000000 1.0
C      1  0.5051940000000  0.5036860000000  0.4347630000000 1.0
C      1  0.5200380000000  0.5751300000000  0.5496420000000 1.0
C      1  0.5118540000000  0.5002770000000  0.5433510000000 1.0
C      1  0.5785760000000  0.4751450000000  0.4908500000000 1.0
C      1  0.4845450000000  0.4920090000000  0.4207280000000 1.0
C      1  0.4625340000000  0.4888920000000  0.5434440000000 1.0
C      1  0.4813080000000  0.5206840000000  0.5905660000000 1.0
C      1  0.5374340000000  0.5017260000000  0.4945630000000 1.0
C      1  0.5831340000000  0.5625500000000  0.5329720000000 1.0
C      1  0.5644960000000  0.5534940000000  0.4780320000000 1.0
C      1  0.4854370000000  0.5936520000000  0.5211380000000 1.0
C      1  0.5596810000000  0.5178740000000  0.4200840000000 1.0
C      1  0.4362100000000  0.4940880000000  0.5813110000000 1.0
C      1  0.6030690000000  0.4939270000000  0.5295790000000 1.0
C      1  0.5770990000000  0.4558160000000  0.4689770000000 1.0
C      1  0.5093410000000  0.5298970000000  0.5342710000000 1.0
C      1  0.4202100000000  0.4584070000000  0.4923060000000 1.0
C      1  0.5459440000000  0.4638610000000  0.5281620000000 1.0
C      1  0.5538390000000  0.5331780000000  0.4613770000000 1.0
C      1  0.5438750000000  0.4339980000000  0.5251510000000 1.0
C      1  0.4781390000000  0.6053070000000  0.4952450000000 1.0
C      1  0.5539270000000  0.4932710000000  0.5678910000000 1.0
C      1  0.5379620000000  0.5369500000000  0.5260930000000 1.0
C      1  0.5900610000000  0.5455160000000  0.4867790000000 1.0
C      1  0.4901280000000  0.4229510000000  0.5912390000000 1.0
C      1  0.5024350000000  0.5524340000000  0.5533300000000 1.0
END
