TITL C-627109-622-1080 -8.27482405813314e-07 125000 -455.044579522973 0 0 75 (C1) n - 1
REM
REM in /home/nfs/bkarasulu/CARBON/AIRSS/Generating-Clusters/LCBOP/Only-C1/SD-CG/FIRE-CG
REM
REM
REM
REM
REM
REM ./C.cell (11c1c37f851c82e70ff6c80c92926a4b)
REM AIRSS Version 0.9.1 bugfix July 2018 build 013d7b7c2542+ Fri, 06 Jul 2018 19:26:36 +0100
REM compiler GCC version 9.2.1 20190827 (Red Hat 9.2.1-1)
REM options -cpp -mtune=generic -march=x86-64 -g -O0 -fpre-include=/usr/include/finclude/math-vector-fortran.h
REM seed -1139740790 1724375429 -2122459617 851493274 -210615548 239697598 1508502951 1069433684 1785903364 2132079186 -1295621296 -757312920 -658505210 865976888 -260322032 2137425388 -29657674 -775907383 -541354573 1885835 -277815243 1327085670 39780811 1094200472 385698640 2086483896 765988662 1168327676 1922361057 -194189569 1795545483 -717200633 1555313674
REM
CELL 1.54180   50.00000   50.00000   50.00000   90.00000   90.00000   90.00000
LATT -1
SFAC C  
C      1  0.4646600000000  0.5229450000000  0.5336680000000 1.0
C      1  0.5725740000000  0.4740820000000  0.4414070000000 1.0
C      1  0.4968080000000  0.4185980000000  0.4287830000000 1.0
C      1  0.4468710000000  0.5133780000000  0.5534920000000 1.0
C      1  0.5277240000000  0.4928710000000  0.5801320000000 1.0
C      1  0.4440720000000  0.4931750000000  0.4395830000000 1.0
C      1  0.4815340000000  0.5582180000000  0.4334240000000 1.0
C      1  0.5332220000000  0.5354850000000  0.4782790000000 1.0
C      1  0.4281620000000  0.4863340000000  0.5119420000000 1.0
C      1  0.4770900000000  0.5273240000000  0.4855440000000 1.0
C      1  0.5163580000000  0.5060010000000  0.4294800000000 1.0
C      1  0.5762030000000  0.5416870000000  0.5092220000000 1.0
C      1  0.5649980000000  0.4998270000000  0.4800780000000 1.0
C      1  0.4973160000000  0.4663110000000  0.4079010000000 1.0
C      1  0.5006460000000  0.4077390000000  0.4530370000000 1.0
C      1  0.4910170000000  0.4119090000000  0.5013820000000 1.0
C      1  0.4968090000000  0.4399250000000  0.4125710000000 1.0
C      1  0.4999010000000  0.5016500000000  0.5826600000000 1.0
C      1  0.4390580000000  0.4421390000000  0.5294800000000 1.0
C      1  0.4543850000000  0.5374700000000  0.4721930000000 1.0
C      1  0.4417020000000  0.5834370000000  0.5394680000000 1.0
C      1  0.5272630000000  0.4818390000000  0.5356540000000 1.0
C      1  0.4956870000000  0.4325340000000  0.5206020000000 1.0
C      1  0.4842990000000  0.5443350000000  0.5304780000000 1.0
C      1  0.5166690000000  0.5508070000000  0.4942740000000 1.0
C      1  0.5288720000000  0.4914820000000  0.4504680000000 1.0
C      1  0.5928860000000  0.5772390000000  0.4799740000000 1.0
C      1  0.4802190000000  0.4999920000000  0.4940160000000 1.0
C      1  0.4612130000000  0.5868110000000  0.5575180000000 1.0
C      1  0.5703840000000  0.5179600000000  0.5245440000000 1.0
C      1  0.5060970000000  0.5320900000000  0.5471750000000 1.0
C      1  0.4304460000000  0.5307580000000  0.4868510000000 1.0
C      1  0.4266230000000  0.5696460000000  0.5221990000000 1.0
C      1  0.4444250000000  0.4195910000000  0.5156480000000 1.0
C      1  0.5546290000000  0.5395150000000  0.4384690000000 1.0
C      1  0.5750480000000  0.5571040000000  0.4848120000000 1.0
C      1  0.4666210000000  0.4982600000000  0.4257780000000 1.0
C      1  0.5271990000000  0.5333200000000  0.4271030000000 1.0
C      1  0.4382750000000  0.5270330000000  0.5764410000000 1.0
C      1  0.5449460000000  0.4678540000000  0.4446860000000 1.0
C      1  0.4258850000000  0.5020340000000  0.4878220000000 1.0
C      1  0.4782690000000  0.5754150000000  0.5749950000000 1.0
C      1  0.4633770000000  0.4051560000000  0.5024260000000 1.0
C      1  0.5373830000000  0.5075120000000  0.4729240000000 1.0
C      1  0.4818100000000  0.5014010000000  0.5224930000000 1.0
C      1  0.5089620000000  0.5042330000000  0.5338170000000 1.0
C      1  0.4521850000000  0.4846460000000  0.5563600000000 1.0
C      1  0.4982710000000  0.4270210000000  0.5470510000000 1.0
C      1  0.5405810000000  0.4467320000000  0.5691680000000 1.0
C      1  0.5653000000000  0.4943080000000  0.5080160000000 1.0
C      1  0.5091250000000  0.4139620000000  0.4793740000000 1.0
C      1  0.4766210000000  0.4842400000000  0.5742500000000 1.0
C      1  0.4603830000000  0.5523280000000  0.4490580000000 1.0
C      1  0.5067650000000  0.5530870000000  0.4255230000000 1.0
C      1  0.5494360000000  0.5115270000000  0.5746530000000 1.0
C      1  0.4292150000000  0.4903690000000  0.4619630000000 1.0
C      1  0.4393460000000  0.4701750000000  0.5338690000000 1.0
C      1  0.4915640000000  0.4572790000000  0.5084620000000 1.0
C      1  0.4933950000000  0.4925000000000  0.4182440000000 1.0
C      1  0.5543840000000  0.5504770000000  0.4658950000000 1.0
C      1  0.4834330000000  0.4732340000000  0.4865940000000 1.0
C      1  0.4208760000000  0.5501910000000  0.5047170000000 1.0
C      1  0.4800890000000  0.5493170000000  0.5859470000000 1.0
C      1  0.5641630000000  0.5181930000000  0.5525400000000 1.0
C      1  0.4907780000000  0.5464780000000  0.5026250000000 1.0
C      1  0.4765750000000  0.4613980000000  0.4632510000000 1.0
C      1  0.5769480000000  0.5212770000000  0.4372320000000 1.0
C      1  0.5420630000000  0.4487200000000  0.5023690000000 1.0
C      1  0.5388480000000  0.4430250000000  0.4554430000000 1.0
C      1  0.5307130000000  0.4709870000000  0.5620370000000 1.0
C      1  0.4982000000000  0.5298610000000  0.5751760000000 1.0
C      1  0.5313630000000  0.4330400000000  0.4807550000000 1.0
C      1  0.5461920000000  0.4737630000000  0.5158500000000 1.0
C      1  0.5797780000000  0.4982880000000  0.4545800000000 1.0
C      1  0.4548090000000  0.5391500000000  0.5941070000000 1.0
END
