TITL C-627108-131-1140 0.00490052796187258 125000 -325.897915116466 0 0 54 (C1) n - 1
REM
REM in /home/nfs/bkarasulu/CARBON/AIRSS/Generating-Clusters/LCBOP/Only-C1/SD-CG/FIRE-CG
REM
REM
REM
REM
REM
REM ./C.cell (11c1c37f851c82e70ff6c80c92926a4b)
REM AIRSS Version 0.9.1 bugfix July 2018 build 013d7b7c2542+ Fri, 06 Jul 2018 19:26:36 +0100
REM compiler GCC version 9.2.1 20190827 (Red Hat 9.2.1-1)
REM options -cpp -mtune=generic -march=x86-64 -g -O0 -fpre-include=/usr/include/finclude/math-vector-fortran.h
REM seed -807513903 -153662986 -1628007357 -632939723 -1322911792 2041814185 -735821277 527884535 566177893 876885519 1962437113 -1728415603 -401583528 532576733 -495659603 79565425 22528469 649623084 623313791 -1481770352 1298171331 -260699123 -517063514 -1908617226 1515086856 -1261680038 -214650312 1040677627 605917953 436861084 1082455666 -1397433477 -660268121
REM
CELL 1.54180   50.00000   50.00000   50.00000   90.00000   90.00000   90.00000
LATT -1
SFAC C  
C      1  0.5433950000000  0.4622730000000  0.4913000000000 1.0
C      1  0.4702600000000  0.5064360000000  0.4991840000000 1.0
C      1  0.5077000000000  0.4729460000000  0.5545850000000 1.0
C      1  0.4349580000000  0.5098080000000  0.4683930000000 1.0
C      1  0.4708520000000  0.5490210000000  0.5480810000000 1.0
C      1  0.4586530000000  0.5248910000000  0.4766590000000 1.0
C      1  0.3633680000000  0.5097570000000  0.4527790000000 1.0
C      1  0.5154850000000  0.4974890000000  0.5132700000000 1.0
C      1  0.3179640000000  0.4989820000000  0.4285570000000 1.0
C      1  0.4970210000000  0.4723980000000  0.4755780000000 1.0
C      1  0.5572080000000  0.4537180000000  0.5147210000000 1.0
C      1  0.5985350000000  0.4840740000000  0.5251460000000 1.0
C      1  0.4984830000000  0.5174170000000  0.5022880000000 1.0
C      1  0.5949270000000  0.5253810000000  0.4960660000000 1.0
C      1  0.3404780000000  0.5043250000000  0.4405680000000 1.0
C      1  0.5039040000000  0.5377730000000  0.4826530000000 1.0
C      1  0.4820580000000  0.5348700000000  0.4631300000000 1.0
C      1  0.5169320000000  0.4968190000000  0.5416740000000 1.0
C      1  0.5319540000000  0.4648420000000  0.4444510000000 1.0
C      1  0.5181630000000  0.4750700000000  0.4955720000000 1.0
C      1  0.4121010000000  0.5369140000000  0.5006080000000 1.0
C      1  0.4470970000000  0.5527200000000  0.5363570000000 1.0
C      1  0.5497140000000  0.5526280000000  0.4936890000000 1.0
C      1  0.4943130000000  0.5381870000000  0.5549060000000 1.0
C      1  0.4900350000000  0.5258050000000  0.4370150000000 1.0
C      1  0.4451270000000  0.4824410000000  0.4679730000000 1.0
C      1  0.5401520000000  0.4419900000000  0.6023550000000 1.0
C      1  0.5419520000000  0.4439530000000  0.5362600000000 1.0
C      1  0.3862580000000  0.5151510000000  0.4649660000000 1.0
C      1  0.4705590000000  0.4799800000000  0.4824080000000 1.0
C      1  0.5243680000000  0.4348970000000  0.5811650000000 1.0
C      1  0.4918760000000  0.3918070000000  0.5833020000000 1.0
C      1  0.4962280000000  0.4982970000000  0.4342610000000 1.0
C      1  0.5745460000000  0.5443700000000  0.4984750000000 1.0
C      1  0.6025290000000  0.5095280000000  0.5180030000000 1.0
C      1  0.5264890000000  0.5542940000000  0.4782110000000 1.0
C      1  0.5526020000000  0.4629110000000  0.4640100000000 1.0
C      1  0.5078220000000  0.4124070000000  0.5826070000000 1.0
C      1  0.5783580000000  0.4713830000000  0.4572180000000 1.0
C      1  0.4797840000000  0.4720070000000  0.5584770000000 1.0
C      1  0.5171720000000  0.5215870000000  0.5560060000000 1.0
C      1  0.5246040000000  0.4503590000000  0.5573990000000 1.0
C      1  0.5014330000000  0.5456530000000  0.4205120000000 1.0
C      1  0.4104380000000  0.5204340000000  0.4776140000000 1.0
C      1  0.4260740000000  0.5482980000000  0.5204070000000 1.0
C      1  0.5951540000000  0.4921110000000  0.4574490000000 1.0
C      1  0.5063800000000  0.4761690000000  0.4486070000000 1.0
C      1  0.4595020000000  0.4845350000000  0.5460890000000 1.0
C      1  0.5392820000000  0.5290790000000  0.5702460000000 1.0
C      1  0.6009800000000  0.5145600000000  0.4707660000000 1.0
C      1  0.4563870000000  0.5000890000000  0.5244500000000 1.0
C      1  0.5830510000000  0.4629060000000  0.5203940000000 1.0
C      1  0.5179540000000  0.5652330000000  0.4290970000000 1.0
C      1  0.5273830000000  0.5690300000000  0.4540420000000 1.0
END
