TITL C-627109-622-1102 0.00872833969004584 125000 -605.20255917517 0 0 98 (C1) n - 1
REM
REM in /home/nfs/bkarasulu/CARBON/AIRSS/Generating-Clusters/LCBOP/Only-C1/SD-CG/FIRE-CG
REM
REM
REM
REM
REM
REM ./C.cell (11c1c37f851c82e70ff6c80c92926a4b)
REM AIRSS Version 0.9.1 bugfix July 2018 build 013d7b7c2542+ Fri, 06 Jul 2018 19:26:36 +0100
REM compiler GCC version 9.2.1 20190827 (Red Hat 9.2.1-1)
REM options -cpp -mtune=generic -march=x86-64 -g -O0 -fpre-include=/usr/include/finclude/math-vector-fortran.h
REM seed 1961490334 -1577364284 -381671828 -1790511705 -594464445 886039151 325958459 1213613638 1384314122 2124637503 -1339569420 -1777139175 -187762430 1321694811 -1843777397 -1001187696 -714076746 -1543198268 1324873746 1443357285 2128920791 670521784 691534459 430796833 -938244979 1135332283 -1661088604 227775188 -1536045333 -1939381693 267930992 1952920971 -732344655
REM
CELL 1.54180   50.00000   50.00000   50.00000   90.00000   90.00000   90.00000
LATT -1
SFAC C  
C      1  0.5137530000000  0.3736070000000  0.4808380000000 1.0
C      1  0.5599030000000  0.5714340000000  0.4567270000000 1.0
C      1  0.5801100000000  0.4620470000000  0.5623800000000 1.0
C      1  0.5317350000000  0.5683000000000  0.4503070000000 1.0
C      1  0.4328390000000  0.5934940000000  0.5470890000000 1.0
C      1  0.4418250000000  0.5681520000000  0.4438840000000 1.0
C      1  0.4463010000000  0.5865860000000  0.5258630000000 1.0
C      1  0.4874190000000  0.5883500000000  0.4394210000000 1.0
C      1  0.5004090000000  0.5316370000000  0.5015620000000 1.0
C      1  0.4065260000000  0.3905100000000  0.4762170000000 1.0
C      1  0.4120130000000  0.4252300000000  0.4480590000000 1.0
C      1  0.5400170000000  0.4330640000000  0.4826400000000 1.0
C      1  0.6250570000000  0.4953530000000  0.4732310000000 1.0
C      1  0.3914560000000  0.4128440000000  0.4880210000000 1.0
C      1  0.5166290000000  0.5072210000000  0.4987690000000 1.0
C      1  0.5615320000000  0.5041160000000  0.5825080000000 1.0
C      1  0.4971450000000  0.4590030000000  0.4939570000000 1.0
C      1  0.4837380000000  0.5012690000000  0.5493540000000 1.0
C      1  0.5782930000000  0.4416780000000  0.5434620000000 1.0
C      1  0.4930860000000  0.5367280000000  0.4520080000000 1.0
C      1  0.6437190000000  0.4789190000000  0.4824050000000 1.0
C      1  0.5772990000000  0.4481150000000  0.5150030000000 1.0
C      1  0.5207470000000  0.5414550000000  0.4463290000000 1.0
C      1  0.6615310000000  0.4624160000000  0.4918930000000 1.0
C      1  0.4601120000000  0.5779150000000  0.5049840000000 1.0
C      1  0.5101430000000  0.5678680000000  0.5395710000000 1.0
C      1  0.4031220000000  0.5347750000000  0.5047810000000 1.0
C      1  0.3909320000000  0.4343690000000  0.4664590000000 1.0
C      1  0.3799270000000  0.4825650000000  0.4604670000000 1.0
C      1  0.4847580000000  0.5526840000000  0.4072400000000 1.0
C      1  0.5718030000000  0.4887910000000  0.5608670000000 1.0
C      1  0.3970690000000  0.5525800000000  0.4587040000000 1.0
C      1  0.5448610000000  0.5098310000000  0.4935070000000 1.0
C      1  0.5133810000000  0.6084600000000  0.4743750000000 1.0
C      1  0.4710200000000  0.5678480000000  0.4814890000000 1.0
C      1  0.5551430000000  0.5122220000000  0.4670000000000 1.0
C      1  0.4858740000000  0.5289600000000  0.5498380000000 1.0
C      1  0.5696950000000  0.4991810000000  0.5349070000000 1.0
C      1  0.5617330000000  0.4288690000000  0.5002070000000 1.0
C      1  0.5299880000000  0.3759600000000  0.4595330000000 1.0
C      1  0.4504940000000  0.4117010000000  0.4766080000000 1.0
C      1  0.4957020000000  0.3907850000000  0.4938760000000 1.0
C      1  0.5684890000000  0.5913060000000  0.4747610000000 1.0
C      1  0.5168440000000  0.4199780000000  0.5620730000000 1.0
C      1  0.5126180000000  0.5902700000000  0.4529830000000 1.0
C      1  0.6046420000000  0.5105120000000  0.4658090000000 1.0
C      1  0.4245000000000  0.4429890000000  0.5048660000000 1.0
C      1  0.5439250000000  0.4120140000000  0.5641080000000 1.0
C      1  0.3994500000000  0.5279580000000  0.4437940000000 1.0
C      1  0.5356040000000  0.5783030000000  0.5332650000000 1.0
C      1  0.4698950000000  0.3929240000000  0.4834180000000 1.0
C      1  0.4123210000000  0.4670800000000  0.4943360000000 1.0
C      1  0.5651860000000  0.5320440000000  0.5820940000000 1.0
C      1  0.5365690000000  0.5182900000000  0.4467480000000 1.0
C      1  0.4049560000000  0.4231700000000  0.5111660000000 1.0
C      1  0.5067630000000  0.4601170000000  0.5958520000000 1.0
C      1  0.3919520000000  0.4618260000000  0.4746570000000 1.0
C      1  0.4974960000000  0.5069890000000  0.6082490000000 1.0
C      1  0.4247450000000  0.5247510000000  0.4312560000000 1.0
C      1  0.4472250000000  0.5413780000000  0.4336150000000 1.0
C      1  0.4994540000000  0.5691040000000  0.5665310000000 1.0
C      1  0.4985720000000  0.5433930000000  0.5276680000000 1.0
C      1  0.5651740000000  0.4156260000000  0.5462710000000 1.0
C      1  0.5575110000000  0.5616220000000  0.5406490000000 1.0
C      1  0.5615130000000  0.4063610000000  0.5188900000000 1.0
C      1  0.5399710000000  0.5991440000000  0.5146030000000 1.0
C      1  0.4965440000000  0.4828700000000  0.5349440000000 1.0
C      1  0.5806730000000  0.5238450000000  0.4618180000000 1.0
C      1  0.4882610000000  0.5302000000000  0.5985640000000 1.0
C      1  0.4686970000000  0.4583820000000  0.4890060000000 1.0
C      1  0.5041380000000  0.4141670000000  0.5375540000000 1.0
C      1  0.4647920000000  0.5800460000000  0.4559210000000 1.0
C      1  0.3827770000000  0.5060550000000  0.4482560000000 1.0
C      1  0.5138500000000  0.4359030000000  0.4943670000000 1.0
C      1  0.4278040000000  0.4042270000000  0.4607900000000 1.0
C      1  0.5423390000000  0.4926500000000  0.5993440000000 1.0
C      1  0.5057880000000  0.4822810000000  0.5083100000000 1.0
C      1  0.4874690000000  0.5442430000000  0.5745140000000 1.0
C      1  0.5641510000000  0.5997280000000  0.4998930000000 1.0
C      1  0.4749740000000  0.5369200000000  0.4291870000000 1.0
C      1  0.5667420000000  0.5441280000000  0.5206210000000 1.0
C      1  0.5632430000000  0.5541830000000  0.5671440000000 1.0
C      1  0.3915370000000  0.5501980000000  0.4861640000000 1.0
C      1  0.5406130000000  0.3975860000000  0.4475160000000 1.0
C      1  0.4195210000000  0.5138080000000  0.5063210000000 1.0
C      1  0.4863030000000  0.5434960000000  0.4793690000000 1.0
C      1  0.5784460000000  0.5504350000000  0.4524990000000 1.0
C      1  0.5426810000000  0.4229230000000  0.4564550000000 1.0
C      1  0.5045420000000  0.4130320000000  0.5094610000000 1.0
C      1  0.5153340000000  0.4858400000000  0.6031420000000 1.0
C      1  0.4880850000000  0.5793440000000  0.4123440000000 1.0
C      1  0.5617920000000  0.5170560000000  0.5151640000000 1.0
C      1  0.4556030000000  0.4839620000000  0.4881800000000 1.0
C      1  0.5066140000000  0.4379600000000  0.5809940000000 1.0
C      1  0.4148100000000  0.5730980000000  0.4502310000000 1.0
C      1  0.4290090000000  0.4899100000000  0.4957380000000 1.0
C      1  0.5187510000000  0.6111010000000  0.5005120000000 1.0
C      1  0.4499020000000  0.4363850000000  0.4916750000000 1.0
END
