TITL C-627107-135-751 -4.62908106917079e-07 125000 -400.949565827192 0 0 68 (C1) n - 1
REM
REM in /home/nfs/bkarasulu/CARBON/AIRSS/Generating-Clusters/LCBOP/Only-C1/SD-CG/FIRE-CG
REM
REM
REM
REM
REM
REM ./C.cell (11c1c37f851c82e70ff6c80c92926a4b)
REM AIRSS Version 0.9.1 bugfix July 2018 build 013d7b7c2542+ Fri, 06 Jul 2018 19:26:36 +0100
REM compiler GCC version 9.2.1 20190827 (Red Hat 9.2.1-1)
REM options -cpp -mtune=generic -march=x86-64 -g -O0 -fpre-include=/usr/include/finclude/math-vector-fortran.h
REM seed -2126458204 1375772527 -2030485477 749891192 173324357 247547860 -912206118 598647139 417097541 -745023 -1405396291 -1319597703 511693971 -1906177373 1505877949 417678873 -792500769 -392002500 -855441915 -1620270667 151382330 1091792650 -252681328 1140180499 60622400 -16124851 -1766426551 -1637878994 -1359776055 -1548534467 1353763477 2134467796 127503820
REM
CELL 1.54180   50.00000   50.00000   50.00000   90.00000   90.00000   90.00000
LATT -1
SFAC C  
C      1  0.5140720000000  0.4514650000000  0.4872660000000 1.0
C      1  0.5176590000000  0.4580720000000  0.4227790000000 1.0
C      1  0.5023880000000  0.5655430000000  0.4619080000000 1.0
C      1  0.5110470000000  0.5416750000000  0.5068510000000 1.0
C      1  0.4727850000000  0.5080750000000  0.4796980000000 1.0
C      1  0.5435790000000  0.4332560000000  0.4609070000000 1.0
C      1  0.4611940000000  0.5882480000000  0.5338160000000 1.0
C      1  0.5588970000000  0.6049910000000  0.5371640000000 1.0
C      1  0.4585960000000  0.5614480000000  0.5297560000000 1.0
C      1  0.5002650000000  0.4843700000000  0.5722030000000 1.0
C      1  0.5733310000000  0.4920270000000  0.4608330000000 1.0
C      1  0.5553290000000  0.5547940000000  0.5331690000000 1.0
C      1  0.5057490000000  0.4240790000000  0.4864970000000 1.0
C      1  0.5033370000000  0.4740180000000  0.4795180000000 1.0
C      1  0.5579850000000  0.4399880000000  0.4853940000000 1.0
C      1  0.5031040000000  0.4799030000000  0.5453670000000 1.0
C      1  0.4765000000000  0.5229720000000  0.4550250000000 1.0
C      1  0.4442660000000  0.5165690000000  0.5480120000000 1.0
C      1  0.4816980000000  0.4411190000000  0.5253810000000 1.0
C      1  0.5587450000000  0.4765770000000  0.4442500000000 1.0
C      1  0.5072420000000  0.4529940000000  0.5349740000000 1.0
C      1  0.4921100000000  0.5236930000000  0.5189320000000 1.0
C      1  0.5296280000000  0.5250490000000  0.4954020000000 1.0
C      1  0.4477910000000  0.4933170000000  0.5638430000000 1.0
C      1  0.5544510000000  0.4849620000000  0.5039790000000 1.0
C      1  0.5408960000000  0.5360050000000  0.5518390000000 1.0
C      1  0.5074490000000  0.5000910000000  0.5264660000000 1.0
C      1  0.4777920000000  0.5515940000000  0.4601660000000 1.0
C      1  0.4805890000000  0.4257160000000  0.5002940000000 1.0
C      1  0.4882680000000  0.5416330000000  0.5632420000000 1.0
C      1  0.4573790000000  0.5086910000000  0.4377630000000 1.0
C      1  0.4299150000000  0.5433420000000  0.4583480000000 1.0
C      1  0.4953000000000  0.4765220000000  0.4232400000000 1.0
C      1  0.5509460000000  0.4604740000000  0.5558500000000 1.0
C      1  0.5157350000000  0.5494140000000  0.5615200000000 1.0
C      1  0.5372340000000  0.4501120000000  0.5327000000000 1.0
C      1  0.4236180000000  0.5381430000000  0.5103680000000 1.0
C      1  0.4536280000000  0.4613790000000  0.4411040000000 1.0
C      1  0.5229450000000  0.5775110000000  0.5582340000000 1.0
C      1  0.4269670000000  0.4909210000000  0.5049350000000 1.0
C      1  0.5181400000000  0.4405480000000  0.4013790000000 1.0
C      1  0.4235640000000  0.4977930000000  0.4763370000000 1.0
C      1  0.4693580000000  0.5233340000000  0.5028540000000 1.0
C      1  0.5523740000000  0.4565180000000  0.5081390000000 1.0
C      1  0.5465860000000  0.5813510000000  0.5423000000000 1.0
C      1  0.4535070000000  0.4673830000000  0.5585310000000 1.0
C      1  0.4514990000000  0.5566740000000  0.4730360000000 1.0
C      1  0.5315160000000  0.5001560000000  0.5096180000000 1.0
C      1  0.5398240000000  0.4554190000000  0.4416360000000 1.0
C      1  0.5501290000000  0.5661150000000  0.4852570000000 1.0
C      1  0.5640760000000  0.5508550000000  0.5057140000000 1.0
C      1  0.5277870000000  0.5702380000000  0.4702690000000 1.0
C      1  0.4764530000000  0.4804120000000  0.4781870000000 1.0
C      1  0.4268440000000  0.5133240000000  0.5240000000000 1.0
C      1  0.4382620000000  0.4664070000000  0.5141050000000 1.0
C      1  0.5227660000000  0.4133410000000  0.4660570000000 1.0
C      1  0.4568880000000  0.4553490000000  0.5329970000000 1.0
C      1  0.5560900000000  0.4856360000000  0.5643320000000 1.0
C      1  0.4505760000000  0.5493420000000  0.5027850000000 1.0
C      1  0.5202510000000  0.3893430000000  0.4536620000000 1.0
C      1  0.4595690000000  0.4586020000000  0.4685840000000 1.0
C      1  0.5517330000000  0.5120050000000  0.5617880000000 1.0
C      1  0.4623490000000  0.5405670000000  0.5502080000000 1.0
C      1  0.5730710000000  0.5001010000000  0.4879680000000 1.0
C      1  0.4673440000000  0.4829830000000  0.4282550000000 1.0
C      1  0.4316110000000  0.5144690000000  0.4532250000000 1.0
C      1  0.5778380000000  0.5269950000000  0.4970870000000 1.0
C      1  0.4595870000000  0.4339900000000  0.4826940000000 1.0
END
