TITL C-627112-676-1281 -44.3893525052923 125000 -1062.50156749923 0 0 177 (C1) n - 1
REM
REM in /home/nfs/bkarasulu/CARBON/AIRSS/Generating-Clusters/LCBOP/Only-C1/SD-CG/FIRE-CG
REM
REM
REM
REM
REM
REM ./C.cell (11c1c37f851c82e70ff6c80c92926a4b)
REM AIRSS Version 0.9.1 bugfix July 2018 build 013d7b7c2542+ Fri, 06 Jul 2018 19:26:36 +0100
REM compiler GCC version 9.2.1 20190827 (Red Hat 9.2.1-1)
REM options -cpp -mtune=generic -march=x86-64 -g -O0 -fpre-include=/usr/include/finclude/math-vector-fortran.h
REM seed -2067499722 18141015 1488629246 -1330193306 731193190 -954582654 -195225515 -440872574 -591566582 -1386237055 927068285 491672027 -718000267 -2079418595 573991430 1217377715 -1661174388 -145894154 -1124776380 1658691522 -1729599126 -1522251169 724376386 1931375204 594554156 -387870580 -438266447 328153644 -1318353717 -847767231 1021085141 1374033382 -742236919
REM
CELL 1.54180   50.00000   50.00000   50.00000   90.00000   90.00000   90.00000
LATT -1
SFAC C  
C      1  0.4299110000000  0.4600400000000  0.5804900000000 1.0
C      1  0.4785290000000  0.4319010000000  0.4679410000000 1.0
C      1  0.5417230000000  0.4805070000000  0.4573210000000 1.0
C      1  0.4900870000000  0.6039270000000  0.4716410000000 1.0
C      1  0.5399140000000  0.5056310000000  0.5199620000000 1.0
C      1  0.4561920000000  0.5695370000000  0.4428600000000 1.0
C      1  0.5573490000000  0.5712410000000  0.5589160000000 1.0
C      1  0.5440070000000  0.5329260000000  0.4672650000000 1.0
C      1  0.5479570000000  0.4493230000000  0.5782770000000 1.0
C      1  0.5677950000000  0.4032010000000  0.5020040000000 1.0
C      1  0.4253650000000  0.4717190000000  0.4504900000000 1.0
C      1  0.4550910000000  0.4805180000000  0.4838940000000 1.0
C      1  0.5431900000000  0.4887650000000  0.6062560000000 1.0
C      1  0.4089170000000  0.5463080000000  0.5809250000000 1.0
C      1  0.4082980000000  0.5074060000000  0.5495830000000 1.0
C      1  0.4792530000000  0.5028610000000  0.6190430000000 1.0
C      1  0.5166480000000  0.5747110000000  0.5170370000000 1.0
C      1  0.4977060000000  0.6162940000000  0.5639200000000 1.0
C      1  0.4980880000000  0.4200300000000  0.4852020000000 1.0
C      1  0.4557410000000  0.5289220000000  0.4009370000000 1.0
C      1  0.3889070000000  0.5643930000000  0.5844070000000 1.0
C      1  0.5488210000000  0.5857450000000  0.4293870000000 1.0
C      1  0.4737390000000  0.5652860000000  0.5010770000000 1.0
C      1  0.5662170000000  0.5446040000000  0.5711560000000 1.0
C      1  0.4788930000000  0.4549040000000  0.5439190000000 1.0
C      1  0.5328060000000  0.5151670000000  0.6095860000000 1.0
C      1  0.5508240000000  0.3587470000000  0.4949310000000 1.0
C      1  0.4541440000000  0.5071620000000  0.4715470000000 1.0
C      1  0.4841880000000  0.4866960000000  0.3850900000000 1.0
C      1  0.4086600000000  0.5185520000000  0.4323550000000 1.0
C      1  0.5767140000000  0.4513450000000  0.5668460000000 1.0
C      1  0.4737470000000  0.4023330000000  0.5259980000000 1.0
C      1  0.5886690000000  0.5703860000000  0.4885740000000 1.0
C      1  0.4823950000000  0.6262050000000  0.5196130000000 1.0
C      1  0.5364440000000  0.5788120000000  0.5779090000000 1.0
C      1  0.5602080000000  0.3939060000000  0.5648270000000 1.0
C      1  0.4341760000000  0.4101760000000  0.4949950000000 1.0
C      1  0.5157450000000  0.3851870000000  0.5484940000000 1.0
C      1  0.5054590000000  0.5574060000000  0.4008000000000 1.0
C      1  0.5559490000000  0.4966770000000  0.4336870000000 1.0
C      1  0.4618700000000  0.5961830000000  0.4328220000000 1.0
C      1  0.4488450000000  0.5372950000000  0.5389400000000 1.0
C      1  0.4484270000000  0.4796330000000  0.4351100000000 1.0
C      1  0.5270810000000  0.5981710000000  0.4163870000000 1.0
C      1  0.3901790000000  0.4964980000000  0.4382650000000 1.0
C      1  0.6111110000000  0.5322140000000  0.5840460000000 1.0
C      1  0.4625820000000  0.4179950000000  0.4480290000000 1.0
C      1  0.4410260000000  0.3658400000000  0.5154640000000 1.0
C      1  0.4634100000000  0.5063380000000  0.3841440000000 1.0
C      1  0.4130740000000  0.5284910000000  0.4590750000000 1.0
C      1  0.4381320000000  0.6004570000000  0.4977770000000 1.0
C      1  0.4671160000000  0.5434010000000  0.5174870000000 1.0
C      1  0.6135970000000  0.4862770000000  0.5081220000000 1.0
C      1  0.5800000000000  0.4292690000000  0.5016040000000 1.0
C      1  0.5195960000000  0.4924580000000  0.5655210000000 1.0
C      1  0.4965340000000  0.5035510000000  0.4505010000000 1.0
C      1  0.5066560000000  0.5101170000000  0.4249860000000 1.0
C      1  0.5391110000000  0.5240090000000  0.3841300000000 1.0
C      1  0.4800900000000  0.5443160000000  0.4104460000000 1.0
C      1  0.5065300000000  0.5580030000000  0.5365460000000 1.0
C      1  0.4780010000000  0.5974750000000  0.4092110000000 1.0
C      1  0.5266860000000  0.5109570000000  0.5456550000000 1.0
C      1  0.4675230000000  0.4440620000000  0.4009230000000 1.0
C      1  0.5043130000000  0.6162610000000  0.5363330000000 1.0
C      1  0.4875640000000  0.3884540000000  0.5523870000000 1.0
C      1  0.5820310000000  0.5028620000000  0.4736310000000 1.0
C      1  0.5014310000000  0.4895000000000  0.4076460000000 1.0
C      1  0.4657390000000  0.4292010000000  0.5406390000000 1.0
C      1  0.4364940000000  0.5527760000000  0.5819200000000 1.0
C      1  0.4551950000000  0.4187380000000  0.5669530000000 1.0
C      1  0.4838360000000  0.6528060000000  0.5122270000000 1.0
C      1  0.5466330000000  0.3838230000000  0.5055660000000 1.0
C      1  0.5270370000000  0.5992080000000  0.5278840000000 1.0
C      1  0.5216090000000  0.5467800000000  0.4600450000000 1.0
C      1  0.4467690000000  0.4921670000000  0.5251300000000 1.0
C      1  0.4423890000000  0.5615910000000  0.4668710000000 1.0
C      1  0.4489850000000  0.3918080000000  0.5119620000000 1.0
C      1  0.5558980000000  0.4559680000000  0.5274840000000 1.0
C      1  0.5904950000000  0.5295350000000  0.5660210000000 1.0
C      1  0.4330160000000  0.4830510000000  0.5987200000000 1.0
C      1  0.5675820000000  0.4120820000000  0.5462310000000 1.0
C      1  0.5213080000000  0.5020480000000  0.4961270000000 1.0
C      1  0.4729890000000  0.4206540000000  0.4190020000000 1.0
C      1  0.6056790000000  0.4854860000000  0.5376950000000 1.0
C      1  0.4913530000000  0.4952780000000  0.5723930000000 1.0
C      1  0.5944790000000  0.5124220000000  0.5435610000000 1.0
C      1  0.4268070000000  0.5838310000000  0.4773330000000 1.0
C      1  0.5966430000000  0.4575630000000  0.5443490000000 1.0
C      1  0.5037990000000  0.4649730000000  0.4217670000000 1.0
C      1  0.4814660000000  0.4681480000000  0.5701520000000 1.0
C      1  0.6097560000000  0.4538290000000  0.4677010000000 1.0
C      1  0.5600350000000  0.4738830000000  0.4133680000000 1.0
C      1  0.5661710000000  0.4779270000000  0.4774560000000 1.0
C      1  0.4045810000000  0.5186120000000  0.5757060000000 1.0
C      1  0.5298170000000  0.5629680000000  0.4960110000000 1.0
C      1  0.5675820000000  0.4514620000000  0.4316720000000 1.0
C      1  0.4966410000000  0.4245920000000  0.5887450000000 1.0
C      1  0.4178330000000  0.4568490000000  0.4980710000000 1.0
C      1  0.5544400000000  0.5582000000000  0.4192360000000 1.0
C      1  0.5118510000000  0.6196450000000  0.4763420000000 1.0
C      1  0.5048510000000  0.5136500000000  0.6190840000000 1.0
C      1  0.5325530000000  0.3959350000000  0.5703780000000 1.0
C      1  0.4077700000000  0.5897110000000  0.4563520000000 1.0
C      1  0.6010070000000  0.4422820000000  0.5170920000000 1.0
C      1  0.4195800000000  0.4310980000000  0.5096410000000 1.0
C      1  0.4878790000000  0.5760080000000  0.4786270000000 1.0
C      1  0.4789440000000  0.4030790000000  0.5757270000000 1.0
C      1  0.4828330000000  0.5202940000000  0.5127210000000 1.0
C      1  0.5363000000000  0.4754740000000  0.5822370000000 1.0
C      1  0.4397840000000  0.4091640000000  0.4654680000000 1.0
C      1  0.4323900000000  0.5139760000000  0.5356860000000 1.0
C      1  0.5564580000000  0.5899430000000  0.5319310000000 1.0
C      1  0.5164680000000  0.4209240000000  0.3925230000000 1.0
C      1  0.4703740000000  0.6134060000000  0.4535340000000 1.0
C      1  0.4379090000000  0.4749790000000  0.5049180000000 1.0
C      1  0.5096670000000  0.5748520000000  0.5865620000000 1.0
C      1  0.5595220000000  0.6041470000000  0.4803040000000 1.0
C      1  0.4867850000000  0.4573420000000  0.3814760000000 1.0
C      1  0.5171440000000  0.4942090000000  0.4689560000000 1.0
C      1  0.4973780000000  0.5491300000000  0.5880990000000 1.0
C      1  0.5712760000000  0.5895550000000  0.5039910000000 1.0
C      1  0.5216560000000  0.4289660000000  0.5391410000000 1.0
C      1  0.4581770000000  0.6121220000000  0.5122680000000 1.0
C      1  0.4492430000000  0.4744550000000  0.6432280000000 1.0
C      1  0.5487370000000  0.5342920000000  0.5936730000000 1.0
C      1  0.4967630000000  0.5570730000000  0.4584760000000 1.0
C      1  0.5039330000000  0.5864920000000  0.4046660000000 1.0
C      1  0.4975350000000  0.4005980000000  0.5062380000000 1.0
C      1  0.4754510000000  0.4950630000000  0.5217010000000 1.0
C      1  0.5414900000000  0.4504940000000  0.4484590000000 1.0
C      1  0.4507360000000  0.4636390000000  0.4124170000000 1.0
C      1  0.5254060000000  0.4223410000000  0.5830640000000 1.0
C      1  0.4974300000000  0.4086340000000  0.4084750000000 1.0
C      1  0.4891920000000  0.4706170000000  0.5231130000000 1.0
C      1  0.6142320000000  0.4598650000000  0.4961300000000 1.0
C      1  0.4780260000000  0.5526590000000  0.4378450000000 1.0
C      1  0.4119290000000  0.4580690000000  0.5553550000000 1.0
C      1  0.4498100000000  0.4398170000000  0.5853890000000 1.0
C      1  0.5588400000000  0.5275130000000  0.5133900000000 1.0
C      1  0.5932230000000  0.4496500000000  0.4457900000000 1.0
C      1  0.3945520000000  0.4713040000000  0.4886730000000 1.0
C      1  0.4564780000000  0.5404600000000  0.5661760000000 1.0
C      1  0.4542490000000  0.4873910000000  0.6190780000000 1.0
C      1  0.5335300000000  0.5464340000000  0.4010170000000 1.0
C      1  0.3840590000000  0.4805010000000  0.5150220000000 1.0
C      1  0.5823910000000  0.5678640000000  0.4592510000000 1.0
C      1  0.4159430000000  0.5610160000000  0.4132830000000 1.0
C      1  0.5214190000000  0.3882020000000  0.5192070000000 1.0
C      1  0.5088330000000  0.4601250000000  0.5064560000000 1.0
C      1  0.5180270000000  0.4393300000000  0.4900050000000 1.0
C      1  0.5547490000000  0.4815460000000  0.5247530000000 1.0
C      1  0.5757720000000  0.5467260000000  0.4382450000000 1.0
C      1  0.4063820000000  0.5795610000000  0.4309140000000 1.0
C      1  0.5630230000000  0.5909930000000  0.4541520000000 1.0
C      1  0.4385360000000  0.5324210000000  0.4708980000000 1.0
C      1  0.4135990000000  0.4342280000000  0.5380330000000 1.0
C      1  0.5489620000000  0.5437570000000  0.4935970000000 1.0
C      1  0.5654990000000  0.4491660000000  0.4869010000000 1.0
C      1  0.5173850000000  0.4458580000000  0.4339640000000 1.0
C      1  0.5419250000000  0.4719930000000  0.3897830000000 1.0
C      1  0.4702150000000  0.4584610000000  0.4740200000000 1.0
C      1  0.3986010000000  0.4783030000000  0.4598570000000 1.0
C      1  0.5160870000000  0.4483550000000  0.3830740000000 1.0
C      1  0.5162910000000  0.5363580000000  0.5478010000000 1.0
C      1  0.5861120000000  0.5225610000000  0.5175940000000 1.0
C      1  0.5671320000000  0.5206270000000  0.4509680000000 1.0
C      1  0.5990600000000  0.5083320000000  0.4957430000000 1.0
C      1  0.4944460000000  0.5984020000000  0.5837350000000 1.0
C      1  0.5485880000000  0.4311620000000  0.5363100000000 1.0
C      1  0.4804430000000  0.5285250000000  0.5767110000000 1.0
C      1  0.3976140000000  0.4814450000000  0.5419500000000 1.0
C      1  0.4118400000000  0.5015680000000  0.5969070000000 1.0
C      1  0.4675570000000  0.4999840000000  0.4471180000000 1.0
C      1  0.4781550000000  0.4483010000000  0.5908380000000 1.0
C      1  0.5416120000000  0.4385390000000  0.4753430000000 1.0
C      1  0.4265230000000  0.5334680000000  0.4124410000000 1.0
C      1  0.5398380000000  0.4977650000000  0.3773680000000 1.0
END
