TITL C-627109-622-1577 -1237.5965701565 125000 -1057.73184083777 0 0 173 (C1) n - 1
REM
REM in /home/nfs/bkarasulu/CARBON/AIRSS/Generating-Clusters/LCBOP/Only-C1/SD-CG/FIRE-CG
REM
REM
REM
REM
REM
REM ./C.cell (11c1c37f851c82e70ff6c80c92926a4b)
REM AIRSS Version 0.9.1 bugfix July 2018 build 013d7b7c2542+ Fri, 06 Jul 2018 19:26:36 +0100
REM compiler GCC version 9.2.1 20190827 (Red Hat 9.2.1-1)
REM options -cpp -mtune=generic -march=x86-64 -g -O0 -fpre-include=/usr/include/finclude/math-vector-fortran.h
REM seed -666333971 948448422 -1184183358 -591923965 -1578574401 -1213394558 -244762107 -1934266233 492048698 -1659827062 -633139541 1634556419 127639650 -1929914971 -1836076037 929657349 -1403900892 -652301166 243921010 -1999868403 1749938899 -342487324 -1316135579 -1834406567 -1028635975 -329502098 -911935222 -1205844898 160295294 -802412159 -1271407164 1021145630 -81823491
REM
CELL 1.54180   50.00000   50.00000   50.00000   90.00000   90.00000   90.00000
LATT -1
SFAC C  
C      1  0.4427480000000  0.5218990000000  0.5972700000000 1.0
C      1  0.4376140000000  0.5266380000000  0.4854320000000 1.0
C      1  0.5411510000000  0.5170490000000  0.5449600000000 1.0
C      1  0.4957910000000  0.5554600000000  0.4100510000000 1.0
C      1  0.5084300000000  0.5783640000000  0.4931450000000 1.0
C      1  0.4538110000000  0.5327080000000  0.5077290000000 1.0
C      1  0.5450700000000  0.5025410000000  0.4090900000000 1.0
C      1  0.5809590000000  0.5926230000000  0.5267950000000 1.0
C      1  0.4417560000000  0.4967330000000  0.5842230000000 1.0
C      1  0.5695300000000  0.4591110000000  0.4578040000000 1.0
C      1  0.5003870000000  0.4792250000000  0.5414220000000 1.0
C      1  0.4130200000000  0.5866250000000  0.4541420000000 1.0
C      1  0.4893130000000  0.4677990000000  0.3908010000000 1.0
C      1  0.4051960000000  0.5312080000000  0.5348120000000 1.0
C      1  0.3891110000000  0.4594220000000  0.4457810000000 1.0
C      1  0.5079540000000  0.4720760000000  0.4415790000000 1.0
C      1  0.5165760000000  0.4268110000000  0.5758490000000 1.0
C      1  0.3848440000000  0.4808520000000  0.5018050000000 1.0
C      1  0.5096430000000  0.4555970000000  0.5251610000000 1.0
C      1  0.5585000000000  0.5045580000000  0.4543760000000 1.0
C      1  0.5370330000000  0.5233670000000  0.4555670000000 1.0
C      1  0.5335070000000  0.5404510000000  0.6054890000000 1.0
C      1  0.4014480000000  0.4828160000000  0.4403750000000 1.0
C      1  0.5663890000000  0.4427860000000  0.4347970000000 1.0
C      1  0.4257880000000  0.4918830000000  0.4506540000000 1.0
C      1  0.5864240000000  0.5652240000000  0.5201290000000 1.0
C      1  0.5222660000000  0.5089510000000  0.4954190000000 1.0
C      1  0.4052690000000  0.4436580000000  0.5826500000000 1.0
C      1  0.6297110000000  0.4778970000000  0.4423990000000 1.0
C      1  0.4519950000000  0.5480610000000  0.5343510000000 1.0
C      1  0.6089660000000  0.4914050000000  0.4505260000000 1.0
C      1  0.4992940000000  0.5754000000000  0.4324780000000 1.0
C      1  0.3999170000000  0.5574700000000  0.4938850000000 1.0
C      1  0.5245470000000  0.5413170000000  0.6323480000000 1.0
C      1  0.4212920000000  0.4880460000000  0.5661590000000 1.0
C      1  0.5434130000000  0.5793030000000  0.5725410000000 1.0
C      1  0.4407520000000  0.5247040000000  0.6249800000000 1.0
C      1  0.5053090000000  0.5292740000000  0.3991990000000 1.0
C      1  0.5080460000000  0.4827760000000  0.6119890000000 1.0
C      1  0.4601860000000  0.4596340000000  0.3880750000000 1.0
C      1  0.5268570000000  0.4838420000000  0.4228230000000 1.0
C      1  0.4897020000000  0.4175570000000  0.3914900000000 1.0
C      1  0.5805840000000  0.4553680000000  0.5054810000000 1.0
C      1  0.5491200000000  0.3901190000000  0.5157210000000 1.0
C      1  0.4708960000000  0.6154130000000  0.5201330000000 1.0
C      1  0.4170750000000  0.4214990000000  0.4377740000000 1.0
C      1  0.5737440000000  0.5059400000000  0.4081220000000 1.0
C      1  0.4611830000000  0.3972060000000  0.4296860000000 1.0
C      1  0.5688700000000  0.5095420000000  0.5807300000000 1.0
C      1  0.5831650000000  0.5449170000000  0.5425050000000 1.0
C      1  0.4808440000000  0.4916030000000  0.4817420000000 1.0
C      1  0.4814490000000  0.5367200000000  0.5010860000000 1.0
C      1  0.4879290000000  0.5645310000000  0.5064450000000 1.0
C      1  0.4068190000000  0.4381010000000  0.4856990000000 1.0
C      1  0.4803200000000  0.5960960000000  0.5434230000000 1.0
C      1  0.5299890000000  0.4836660000000  0.4832290000000 1.0
C      1  0.4319580000000  0.4807470000000  0.4961430000000 1.0
C      1  0.4271770000000  0.5019230000000  0.4778150000000 1.0
C      1  0.4836210000000  0.3900900000000  0.4469520000000 1.0
C      1  0.5265960000000  0.5643610000000  0.5899420000000 1.0
C      1  0.4438940000000  0.4447690000000  0.5554240000000 1.0
C      1  0.4481620000000  0.4366330000000  0.4008490000000 1.0
C      1  0.4880880000000  0.4282110000000  0.5746600000000 1.0
C      1  0.5953110000000  0.5581470000000  0.4919310000000 1.0
C      1  0.4822870000000  0.4797320000000  0.6059970000000 1.0
C      1  0.4082050000000  0.5079440000000  0.5506930000000 1.0
C      1  0.5580470000000  0.4398830000000  0.5190110000000 1.0
C      1  0.5266310000000  0.5847410000000  0.4412930000000 1.0
C      1  0.5347980000000  0.4472770000000  0.5656730000000 1.0
C      1  0.4655920000000  0.4139470000000  0.4057150000000 1.0
C      1  0.4227740000000  0.5544870000000  0.5352600000000 1.0
C      1  0.4750860000000  0.5104950000000  0.3660310000000 1.0
C      1  0.5876220000000  0.5093030000000  0.4615020000000 1.0
C      1  0.5450070000000  0.5149970000000  0.5974650000000 1.0
C      1  0.5909550000000  0.5356180000000  0.4460760000000 1.0
C      1  0.4557780000000  0.4410320000000  0.4714350000000 1.0
C      1  0.5082330000000  0.4047560000000  0.4404740000000 1.0
C      1  0.5408420000000  0.6121760000000  0.5060230000000 1.0
C      1  0.5350280000000  0.5333290000000  0.4838230000000 1.0
C      1  0.4663910000000  0.4825630000000  0.5831810000000 1.0
C      1  0.5313440000000  0.4323180000000  0.4055340000000 1.0
C      1  0.4756450000000  0.5771140000000  0.4514920000000 1.0
C      1  0.5637620000000  0.4178660000000  0.4757540000000 1.0
C      1  0.4449200000000  0.4745550000000  0.3694320000000 1.0
C      1  0.5336340000000  0.5283420000000  0.4039030000000 1.0
C      1  0.5516880000000  0.5393690000000  0.5067430000000 1.0
C      1  0.5001180000000  0.5755370000000  0.5901480000000 1.0
C      1  0.4018100000000  0.4365720000000  0.4570540000000 1.0
C      1  0.6228580000000  0.4898260000000  0.5131570000000 1.0
C      1  0.5477680000000  0.5510470000000  0.4148540000000 1.0
C      1  0.4347260000000  0.3993490000000  0.4408610000000 1.0
C      1  0.4905960000000  0.4495640000000  0.4408160000000 1.0
C      1  0.4531310000000  0.5706340000000  0.5851600000000 1.0
C      1  0.5060690000000  0.4776290000000  0.4700370000000 1.0
C      1  0.5723920000000  0.4806150000000  0.5785610000000 1.0
C      1  0.4125940000000  0.5617270000000  0.4676720000000 1.0
C      1  0.4806210000000  0.5272200000000  0.4483090000000 1.0
C      1  0.5029450000000  0.4286420000000  0.4564860000000 1.0
C      1  0.4946620000000  0.5280610000000  0.5518290000000 1.0
C      1  0.5096010000000  0.6032940000000  0.5463460000000 1.0
C      1  0.4628650000000  0.4552170000000  0.4473690000000 1.0
C      1  0.4524810000000  0.4979840000000  0.3584680000000 1.0
C      1  0.6185320000000  0.5404260000000  0.4938830000000 1.0
C      1  0.6016910000000  0.6098650000000  0.5315700000000 1.0
C      1  0.5964120000000  0.4800600000000  0.5055690000000 1.0
C      1  0.4555720000000  0.6050360000000  0.4966940000000 1.0
C      1  0.5896490000000  0.5260900000000  0.4184920000000 1.0
C      1  0.4976560000000  0.4192340000000  0.4838650000000 1.0
C      1  0.4590580000000  0.3875610000000  0.4927590000000 1.0
C      1  0.4930760000000  0.4392650000000  0.5050810000000 1.0
C      1  0.4145240000000  0.5732670000000  0.5145530000000 1.0
C      1  0.5327700000000  0.4111950000000  0.4277240000000 1.0
C      1  0.3911220000000  0.5323090000000  0.5085800000000 1.0
C      1  0.4794180000000  0.5354630000000  0.6561780000000 1.0
C      1  0.4603140000000  0.4760410000000  0.4984450000000 1.0
C      1  0.5679900000000  0.5232400000000  0.5559180000000 1.0
C      1  0.4598230000000  0.4276430000000  0.5726100000000 1.0
C      1  0.4312840000000  0.5833980000000  0.5952330000000 1.0
C      1  0.5797840000000  0.4431800000000  0.4789550000000 1.0
C      1  0.5559770000000  0.4466390000000  0.4088650000000 1.0
C      1  0.5372980000000  0.3814290000000  0.5640150000000 1.0
C      1  0.5215330000000  0.6032810000000  0.4877330000000 1.0
C      1  0.5064040000000  0.4415850000000  0.3934940000000 1.0
C      1  0.4298990000000  0.5953850000000  0.5064570000000 1.0
C      1  0.4720660000000  0.5709950000000  0.5293510000000 1.0
C      1  0.5857990000000  0.5029100000000  0.4913260000000 1.0
C      1  0.6414030000000  0.4743970000000  0.5269070000000 1.0
C      1  0.5276570000000  0.4011120000000  0.5793180000000 1.0
C      1  0.4430140000000  0.4151050000000  0.5921170000000 1.0
C      1  0.4228520000000  0.4352070000000  0.4131640000000 1.0
C      1  0.4159640000000  0.4149410000000  0.4988860000000 1.0
C      1  0.4927450000000  0.5043370000000  0.3874000000000 1.0
C      1  0.5359820000000  0.4476090000000  0.5360750000000 1.0
C      1  0.5541020000000  0.6016410000000  0.5285850000000 1.0
C      1  0.5095760000000  0.5266270000000  0.4457120000000 1.0
C      1  0.4666940000000  0.4486020000000  0.4974890000000 1.0
C      1  0.4545520000000  0.5422340000000  0.5817140000000 1.0
C      1  0.6586570000000  0.4596400000000  0.5397000000000 1.0
C      1  0.4350120000000  0.3962210000000  0.5008180000000 1.0
C      1  0.5265930000000  0.6063860000000  0.4599040000000 1.0
C      1  0.5555780000000  0.4169420000000  0.4465840000000 1.0
C      1  0.4346730000000  0.6031730000000  0.4529610000000 1.0
C      1  0.4371650000000  0.5466240000000  0.4652570000000 1.0
C      1  0.4778420000000  0.4761340000000  0.5581880000000 1.0
C      1  0.5050850000000  0.5396000000000  0.6504130000000 1.0
C      1  0.5546460000000  0.4143460000000  0.5031290000000 1.0
C      1  0.4202070000000  0.4593700000000  0.5639550000000 1.0
C      1  0.4550770000000  0.5298700000000  0.6468740000000 1.0
C      1  0.5359080000000  0.5420720000000  0.5301010000000 1.0
C      1  0.4698970000000  0.5019840000000  0.4555350000000 1.0
C      1  0.4814700000000  0.3944770000000  0.4772400000000 1.0
C      1  0.5461230000000  0.4682360000000  0.5821240000000 1.0
C      1  0.5220270000000  0.5584850000000  0.4793390000000 1.0
C      1  0.5136540000000  0.5044750000000  0.5475110000000 1.0
C      1  0.6281670000000  0.5171160000000  0.5045810000000 1.0
C      1  0.4522890000000  0.4824440000000  0.4438250000000 1.0
C      1  0.4945160000000  0.5126730000000  0.4973790000000 1.0
C      1  0.5732590000000  0.5219000000000  0.5068890000000 1.0
C      1  0.5522310000000  0.4796410000000  0.4660410000000 1.0
C      1  0.4631370000000  0.5505430000000  0.4528430000000 1.0
C      1  0.5793030000000  0.5583430000000  0.4591660000000 1.0
C      1  0.5113390000000  0.5498710000000  0.5416790000000 1.0
C      1  0.3795370000000  0.5075260000000  0.5010140000000 1.0
C      1  0.5511580000000  0.5679110000000  0.4381600000000 1.0
C      1  0.4764220000000  0.5840590000000  0.5768430000000 1.0
C      1  0.5320570000000  0.4882190000000  0.5990900000000 1.0
C      1  0.5958910000000  0.4675050000000  0.5748810000000 1.0
C      1  0.4080510000000  0.4643520000000  0.4983150000000 1.0
C      1  0.4667150000000  0.5342290000000  0.5569400000000 1.0
C      1  0.4598290000000  0.5982980000000  0.4669950000000 1.0
C      1  0.5369250000000  0.5962090000000  0.5505840000000 1.0
C      1  0.4171360000000  0.4230090000000  0.5961260000000 1.0
C      1  0.5444180000000  0.3773230000000  0.5386130000000 1.0
END
