TITL C-627107-135-287 -3.80465957842977e-07 125000 -863.989784714718 0 0 142 (C1) n - 1
REM
REM in /home/nfs/bkarasulu/CARBON/AIRSS/Generating-Clusters/LCBOP/Only-C1/SD-CG/FIRE-CG
REM
REM
REM
REM
REM
REM ./C.cell (11c1c37f851c82e70ff6c80c92926a4b)
REM AIRSS Version 0.9.1 bugfix July 2018 build 013d7b7c2542+ Fri, 06 Jul 2018 19:26:36 +0100
REM compiler GCC version 9.2.1 20190827 (Red Hat 9.2.1-1)
REM options -cpp -mtune=generic -march=x86-64 -g -O0 -fpre-include=/usr/include/finclude/math-vector-fortran.h
REM seed -218532191 -330057540 -722057532 -806690920 2007250484 1813083429 -554645851 -1473387710 -473537912 1508444790 2079559958 -2124782467 -1555117366 -449028796 -24378178 -538845971 -955978974 -937897536 1523614773 -546095181 1019155434 -731109746 -812998661 1294798023 696690262 -417591498 1602392934 -372639119 1929520393 -937221118 -694599353 1032283536 1727780601
REM
CELL 1.54180   50.00000   50.00000   50.00000   90.00000   90.00000   90.00000
LATT -1
SFAC C  
C      1  0.5760220000000  0.5516910000000  0.4753690000000 1.0
C      1  0.5766370000000  0.4444680000000  0.5478050000000 1.0
C      1  0.4372820000000  0.4750920000000  0.5929910000000 1.0
C      1  0.5758740000000  0.4421050000000  0.4424360000000 1.0
C      1  0.4777050000000  0.3898340000000  0.5060050000000 1.0
C      1  0.5786580000000  0.5312790000000  0.4942410000000 1.0
C      1  0.5312200000000  0.5716620000000  0.5469500000000 1.0
C      1  0.4403360000000  0.5499800000000  0.4599090000000 1.0
C      1  0.5045790000000  0.4705870000000  0.4081430000000 1.0
C      1  0.4861280000000  0.3969230000000  0.4313410000000 1.0
C      1  0.4727550000000  0.5603800000000  0.5572950000000 1.0
C      1  0.4561310000000  0.5959270000000  0.5256260000000 1.0
C      1  0.5199050000000  0.4655520000000  0.6068460000000 1.0
C      1  0.4499980000000  0.4598510000000  0.4433450000000 1.0
C      1  0.4957960000000  0.4156520000000  0.4141940000000 1.0
C      1  0.4325110000000  0.6037540000000  0.4775220000000 1.0
C      1  0.4299030000000  0.4165150000000  0.4698490000000 1.0
C      1  0.4177730000000  0.5598820000000  0.5331470000000 1.0
C      1  0.5288730000000  0.4602710000000  0.4468820000000 1.0
C      1  0.4733530000000  0.3933730000000  0.4564120000000 1.0
C      1  0.4659660000000  0.5404080000000  0.6010630000000 1.0
C      1  0.4256710000000  0.5370600000000  0.5497050000000 1.0
C      1  0.5099450000000  0.5163020000000  0.6260660000000 1.0
C      1  0.5380500000000  0.4129930000000  0.4671030000000 1.0
C      1  0.3990870000000  0.4954510000000  0.4745180000000 1.0
C      1  0.5563970000000  0.5753360000000  0.5317880000000 1.0
C      1  0.4694050000000  0.5145650000000  0.4050460000000 1.0
C      1  0.5439150000000  0.4747180000000  0.4667960000000 1.0
C      1  0.4224170000000  0.4382830000000  0.5203740000000 1.0
C      1  0.5508430000000  0.4865480000000  0.4109110000000 1.0
C      1  0.4292940000000  0.5846500000000  0.5216480000000 1.0
C      1  0.4453030000000  0.3949240000000  0.4601680000000 1.0
C      1  0.4605580000000  0.4053050000000  0.5230080000000 1.0
C      1  0.4175240000000  0.5879890000000  0.4952460000000 1.0
C      1  0.5757270000000  0.5596450000000  0.5474910000000 1.0
C      1  0.5066030000000  0.5195310000000  0.5548270000000 1.0
C      1  0.4426180000000  0.4894200000000  0.5319630000000 1.0
C      1  0.5835180000000  0.5178520000000  0.4381360000000 1.0
C      1  0.5341530000000  0.5563620000000  0.5715680000000 1.0
C      1  0.4428370000000  0.4227540000000  0.5377970000000 1.0
C      1  0.4535380000000  0.5437630000000  0.4841920000000 1.0
C      1  0.3910730000000  0.4952500000000  0.5018410000000 1.0
C      1  0.5626780000000  0.5541660000000  0.5733210000000 1.0
C      1  0.5285840000000  0.4806340000000  0.5625600000000 1.0
C      1  0.4507070000000  0.4853380000000  0.4582870000000 1.0
C      1  0.5282960000000  0.5627990000000  0.4242850000000 1.0
C      1  0.6200490000000  0.4640210000000  0.5279310000000 1.0
C      1  0.5024530000000  0.5682980000000  0.5059040000000 1.0
C      1  0.5718520000000  0.5431150000000  0.4466360000000 1.0
C      1  0.6018090000000  0.5030260000000  0.5774330000000 1.0
C      1  0.5022670000000  0.5688670000000  0.4267240000000 1.0
C      1  0.5534930000000  0.5642660000000  0.4365790000000 1.0
C      1  0.4842950000000  0.5503140000000  0.5820140000000 1.0
C      1  0.5066570000000  0.5559080000000  0.4830270000000 1.0
C      1  0.4118370000000  0.5525140000000  0.4625040000000 1.0
C      1  0.5848170000000  0.4431440000000  0.5018050000000 1.0
C      1  0.4742020000000  0.5000430000000  0.4547320000000 1.0
C      1  0.5291710000000  0.6067340000000  0.5036460000000 1.0
C      1  0.5449800000000  0.4942600000000  0.5441070000000 1.0
C      1  0.5021160000000  0.6127530000000  0.5042320000000 1.0
C      1  0.4675810000000  0.5871270000000  0.5500990000000 1.0
C      1  0.5061350000000  0.4645000000000  0.4891580000000 1.0
C      1  0.5026970000000  0.4470680000000  0.4631500000000 1.0
C      1  0.4363770000000  0.4534500000000  0.5772430000000 1.0
C      1  0.3937960000000  0.4479240000000  0.5246830000000 1.0
C      1  0.4014960000000  0.5459120000000  0.5111640000000 1.0
C      1  0.3934790000000  0.5363670000000  0.4486700000000 1.0
C      1  0.4817860000000  0.5158200000000  0.5429030000000 1.0
C      1  0.5253840000000  0.4876590000000  0.5900340000000 1.0
C      1  0.5642390000000  0.5780270000000  0.4815680000000 1.0
C      1  0.4849730000000  0.3647380000000  0.5147010000000 1.0
C      1  0.4788490000000  0.4495160000000  0.4417440000000 1.0
C      1  0.5993280000000  0.4297240000000  0.4831560000000 1.0
C      1  0.4896630000000  0.4251120000000  0.5964430000000 1.0
C      1  0.5240670000000  0.4367410000000  0.5384990000000 1.0
C      1  0.4458260000000  0.4960330000000  0.6072660000000 1.0
C      1  0.4734170000000  0.6062780000000  0.5031170000000 1.0
C      1  0.4236120000000  0.5110780000000  0.5360320000000 1.0
C      1  0.4881340000000  0.3985200000000  0.4802540000000 1.0
C      1  0.4357780000000  0.4655020000000  0.5185690000000 1.0
C      1  0.5116460000000  0.4604100000000  0.5513140000000 1.0
C      1  0.5199700000000  0.5146770000000  0.5995420000000 1.0
C      1  0.5972360000000  0.4480030000000  0.5274820000000 1.0
C      1  0.4842560000000  0.5123410000000  0.6337300000000 1.0
C      1  0.4844000000000  0.6228520000000  0.4390290000000 1.0
C      1  0.5087530000000  0.5723620000000  0.5312030000000 1.0
C      1  0.5563580000000  0.4477440000000  0.5055160000000 1.0
C      1  0.6203670000000  0.5119000000000  0.5108630000000 1.0
C      1  0.5126130000000  0.5366190000000  0.5790140000000 1.0
C      1  0.5590410000000  0.4230110000000  0.4526260000000 1.0
C      1  0.4770870000000  0.5751320000000  0.4383910000000 1.0
C      1  0.4482760000000  0.4309290000000  0.5648560000000 1.0
C      1  0.4266410000000  0.4918940000000  0.4703390000000 1.0
C      1  0.4366400000000  0.4657200000000  0.4165450000000 1.0
C      1  0.5364800000000  0.4629410000000  0.4918520000000 1.0
C      1  0.5950920000000  0.5403840000000  0.5402700000000 1.0
C      1  0.5874060000000  0.4680170000000  0.4386900000000 1.0
C      1  0.6090020000000  0.5085650000000  0.4494400000000 1.0
C      1  0.5499230000000  0.5030210000000  0.5194150000000 1.0
C      1  0.4958410000000  0.5010810000000  0.4101590000000 1.0
C      1  0.5068160000000  0.4422390000000  0.6076450000000 1.0
C      1  0.4990000000000  0.5056800000000  0.4409700000000 1.0
C      1  0.4040430000000  0.5634130000000  0.4877710000000 1.0
C      1  0.4598040000000  0.5434410000000  0.5101070000000 1.0
C      1  0.4694680000000  0.5403740000000  0.5363590000000 1.0
C      1  0.5729330000000  0.4916260000000  0.4272570000000 1.0
C      1  0.4682400000000  0.4460780000000  0.3892210000000 1.0
C      1  0.4207110000000  0.4207360000000  0.4958620000000 1.0
C      1  0.6284300000000  0.4876360000000  0.5186260000000 1.0
C      1  0.5441740000000  0.5027690000000  0.4691610000000 1.0
C      1  0.3834020000000  0.4712040000000  0.5149390000000 1.0
C      1  0.4608760000000  0.6047320000000  0.4767410000000 1.0
C      1  0.5814090000000  0.4561880000000  0.5727000000000 1.0
C      1  0.4624690000000  0.5168340000000  0.6162050000000 1.0
C      1  0.3859020000000  0.5113010000000  0.4552960000000 1.0
C      1  0.5306830000000  0.4681180000000  0.4200030000000 1.0
C      1  0.5166440000000  0.5145030000000  0.3929540000000 1.0
C      1  0.4697050000000  0.4198060000000  0.5794780000000 1.0
C      1  0.5524020000000  0.5882340000000  0.5058330000000 1.0
C      1  0.5560550000000  0.5866000000000  0.4552330000000 1.0
C      1  0.5575280000000  0.5121920000000  0.4937830000000 1.0
C      1  0.4922100000000  0.4538390000000  0.5112080000000 1.0
C      1  0.4319650000000  0.4397020000000  0.4547890000000 1.0
C      1  0.5080160000000  0.4293350000000  0.5148140000000 1.0
C      1  0.6047730000000  0.5243170000000  0.5615980000000 1.0
C      1  0.5516520000000  0.4398780000000  0.5336150000000 1.0
C      1  0.4984710000000  0.5126260000000  0.5000830000000 1.0
C      1  0.4439960000000  0.4574410000000  0.3920910000000 1.0
C      1  0.5198810000000  0.5149920000000  0.4588140000000 1.0
C      1  0.5099870000000  0.4185390000000  0.4789420000000 1.0
C      1  0.6107290000000  0.4808200000000  0.4502700000000 1.0
C      1  0.4881370000000  0.4683800000000  0.5356670000000 1.0
C      1  0.5921760000000  0.4786510000000  0.5825310000000 1.0
C      1  0.4741370000000  0.6006390000000  0.4516700000000 1.0
C      1  0.5422180000000  0.5058460000000  0.3922970000000 1.0
C      1  0.4881130000000  0.4449930000000  0.4116670000000 1.0
C      1  0.4569580000000  0.5360120000000  0.4158380000000 1.0
C      1  0.5078810000000  0.5286930000000  0.4802470000000 1.0
C      1  0.5991230000000  0.5301510000000  0.5138970000000 1.0
C      1  0.4563810000000  0.5550240000000  0.4369220000000 1.0
C      1  0.4705020000000  0.4905980000000  0.5386080000000 1.0
C      1  0.4022050000000  0.5170320000000  0.5162680000000 1.0
END
