TITL C-627112-676-390 -6.4543127935014e-07 125000 -461.852792702448 0 0 77 (C1) n - 1
REM
REM in /home/nfs/bkarasulu/CARBON/AIRSS/Generating-Clusters/LCBOP/Only-C1/SD-CG/FIRE-CG
REM
REM
REM
REM
REM
REM ./C.cell (11c1c37f851c82e70ff6c80c92926a4b)
REM AIRSS Version 0.9.1 bugfix July 2018 build 013d7b7c2542+ Fri, 06 Jul 2018 19:26:36 +0100
REM compiler GCC version 9.2.1 20190827 (Red Hat 9.2.1-1)
REM options -cpp -mtune=generic -march=x86-64 -g -O0 -fpre-include=/usr/include/finclude/math-vector-fortran.h
REM seed 2109691402 1806780085 -1977340019 259085702 1294391381 -1007864553 -1820817390 -804526092 -2089499142 -1594801324 -827799463 1040715853 1046803916 -878648057 925163521 -896298157 -1998641396 -146889053 -1792317321 2042880474 -1992454667 -137418590 -243298073 339489935 861395879 1436395169 1108700033 125649027 -1543242953 1325408456 2049358089 -2073793590 -2110951159
REM
CELL 1.54180   50.00000   50.00000   50.00000   90.00000   90.00000   90.00000
LATT -1
SFAC C  
C      1  0.5247210000000  0.5356570000000  0.4919270000000 1.0
C      1  0.4511900000000  0.4457470000000  0.5646390000000 1.0
C      1  0.4408830000000  0.5550030000000  0.4425640000000 1.0
C      1  0.5274160000000  0.4416110000000  0.4849190000000 1.0
C      1  0.5098070000000  0.5391140000000  0.4237300000000 1.0
C      1  0.4596750000000  0.5384800000000  0.4297570000000 1.0
C      1  0.4309920000000  0.4642080000000  0.5122660000000 1.0
C      1  0.5624050000000  0.5147380000000  0.4839490000000 1.0
C      1  0.4762630000000  0.4403830000000  0.4530520000000 1.0
C      1  0.4708620000000  0.4350860000000  0.5073740000000 1.0
C      1  0.5251890000000  0.4658230000000  0.4129430000000 1.0
C      1  0.4574470000000  0.5732960000000  0.5059570000000 1.0
C      1  0.5675490000000  0.4620560000000  0.4400410000000 1.0
C      1  0.5174980000000  0.4673710000000  0.4793480000000 1.0
C      1  0.5142960000000  0.4659280000000  0.5464890000000 1.0
C      1  0.4524860000000  0.4988300000000  0.5712970000000 1.0
C      1  0.5726270000000  0.5078410000000  0.5599780000000 1.0
C      1  0.5117560000000  0.4412560000000  0.5311760000000 1.0
C      1  0.5947740000000  0.5174680000000  0.5730200000000 1.0
C      1  0.5253370000000  0.4416020000000  0.4283750000000 1.0
C      1  0.4565230000000  0.5435630000000  0.5101420000000 1.0
C      1  0.5558440000000  0.5535850000000  0.5237440000000 1.0
C      1  0.5087940000000  0.4220090000000  0.4787740000000 1.0
C      1  0.5501590000000  0.4996350000000  0.5751960000000 1.0
C      1  0.4584930000000  0.4603280000000  0.5114590000000 1.0
C      1  0.4567880000000  0.5328120000000  0.5364530000000 1.0
C      1  0.4614990000000  0.5100540000000  0.4313190000000 1.0
C      1  0.5524520000000  0.4393450000000  0.4375710000000 1.0
C      1  0.5115230000000  0.5107710000000  0.4198710000000 1.0
C      1  0.5676180000000  0.5268070000000  0.5117680000000 1.0
C      1  0.5033620000000  0.5167090000000  0.5367170000000 1.0
C      1  0.5180280000000  0.5316820000000  0.5186950000000 1.0
C      1  0.4259030000000  0.4924310000000  0.4614000000000 1.0
C      1  0.5124580000000  0.4565970000000  0.5737340000000 1.0
C      1  0.4825540000000  0.5323280000000  0.5473050000000 1.0
C      1  0.4952270000000  0.4357340000000  0.5784880000000 1.0
C      1  0.5377810000000  0.5747940000000  0.5126170000000 1.0
C      1  0.4461520000000  0.4711070000000  0.5723790000000 1.0
C      1  0.5514150000000  0.5549770000000  0.5525680000000 1.0
C      1  0.5328940000000  0.5558020000000  0.5722270000000 1.0
C      1  0.4857060000000  0.4285930000000  0.5315010000000 1.0
C      1  0.4164820000000  0.4883050000000  0.5108430000000 1.0
C      1  0.5033730000000  0.5178160000000  0.5891810000000 1.0
C      1  0.4334220000000  0.5720930000000  0.4619000000000 1.0
C      1  0.4383830000000  0.5818630000000  0.4866390000000 1.0
C      1  0.4760210000000  0.5085100000000  0.5858410000000 1.0
C      1  0.4634510000000  0.4623170000000  0.4398680000000 1.0
C      1  0.4485360000000  0.4877250000000  0.4457080000000 1.0
C      1  0.4129040000000  0.4971060000000  0.4843910000000 1.0
C      1  0.4851890000000  0.4986030000000  0.4172280000000 1.0
C      1  0.5237050000000  0.5516280000000  0.4447110000000 1.0
C      1  0.4745570000000  0.4306970000000  0.5588560000000 1.0
C      1  0.5118060000000  0.5844440000000  0.5102200000000 1.0
C      1  0.5334860000000  0.4920410000000  0.4225010000000 1.0
C      1  0.4397250000000  0.5140300000000  0.5494420000000 1.0
C      1  0.5152980000000  0.5523730000000  0.4712850000000 1.0
C      1  0.5524960000000  0.4405140000000  0.4972820000000 1.0
C      1  0.5262080000000  0.5008120000000  0.5875410000000 1.0
C      1  0.4858420000000  0.5075820000000  0.4810450000000 1.0
C      1  0.5119340000000  0.5449580000000  0.5856210000000 1.0
C      1  0.4761240000000  0.4801640000000  0.5213100000000 1.0
C      1  0.4836130000000  0.5498610000000  0.4188710000000 1.0
C      1  0.5771010000000  0.4792150000000  0.5212770000000 1.0
C      1  0.5588430000000  0.4896770000000  0.4383690000000 1.0
C      1  0.4859120000000  0.5779840000000  0.4989630000000 1.0
C      1  0.4804900000000  0.4291270000000  0.4811590000000 1.0
C      1  0.4887370000000  0.5570290000000  0.4788700000000 1.0
C      1  0.5733880000000  0.5053960000000  0.5314160000000 1.0
C      1  0.5337040000000  0.5112240000000  0.4820340000000 1.0
C      1  0.5700220000000  0.4559890000000  0.5102630000000 1.0
C      1  0.5023020000000  0.4324030000000  0.4411540000000 1.0
C      1  0.5115200000000  0.4941830000000  0.4785890000000 1.0
C      1  0.4180310000000  0.5043830000000  0.5340040000000 1.0
C      1  0.5713130000000  0.5069950000000  0.4578130000000 1.0
C      1  0.4784760000000  0.4707660000000  0.4160600000000 1.0
C      1  0.4735330000000  0.5327880000000  0.4876250000000 1.0
C      1  0.4997260000000  0.4882400000000  0.5353920000000 1.0
END
