TITL C-627111-6168-1494 5463.74728832515 125000 -870.910081147139 0 0 142 (C1) n - 1
REM
REM in /home/nfs/bkarasulu/CARBON/AIRSS/Generating-Clusters/LCBOP/Only-C1/SD-CG/FIRE-CG
REM
REM
REM
REM
REM
REM ./C.cell (11c1c37f851c82e70ff6c80c92926a4b)
REM AIRSS Version 0.9.1 bugfix July 2018 build 013d7b7c2542+ Fri, 06 Jul 2018 19:26:36 +0100
REM compiler GCC version 9.2.1 20190827 (Red Hat 9.2.1-1)
REM options -cpp -mtune=generic -march=x86-64 -g -O0 -fpre-include=/usr/include/finclude/math-vector-fortran.h
REM seed 1558989419 3379248 1401190370 630823553 -187647219 -895737122 1867010669 -841109351 -32412779 -1855436746 939624786 617672355 -840258203 424218562 933910755 1791979673 -491218411 -790140008 -2131737697 -1225917390 507393496 1955232499 -305484288 1526614695 -1309710669 -1876231455 -1364058279 937211530 1952632814 -2052519064 -1093751945 1132308314 -1508260977
REM
CELL 1.54180   50.00000   50.00000   50.00000   90.00000   90.00000   90.00000
LATT -1
SFAC C  
C      1  0.5817220000000  0.4999040000000  0.4823000000000 1.0
C      1  0.4543830000000  0.4187390000000  0.4921560000000 1.0
C      1  0.5360110000000  0.4322380000000  0.5333260000000 1.0
C      1  0.4433180000000  0.4416540000000  0.5068710000000 1.0
C      1  0.5970800000000  0.4758640000000  0.4028420000000 1.0
C      1  0.5744050000000  0.3864320000000  0.4920460000000 1.0
C      1  0.5523100000000  0.5892390000000  0.5112020000000 1.0
C      1  0.4843920000000  0.5297700000000  0.4322330000000 1.0
C      1  0.4393400000000  0.5843280000000  0.5406230000000 1.0
C      1  0.5381060000000  0.4642180000000  0.4736250000000 1.0
C      1  0.5366580000000  0.5684560000000  0.4236640000000 1.0
C      1  0.4819270000000  0.4570010000000  0.6034980000000 1.0
C      1  0.5380850000000  0.5066740000000  0.4878830000000 1.0
C      1  0.5463010000000  0.5191580000000  0.5481820000000 1.0
C      1  0.5309570000000  0.5046330000000  0.3890570000000 1.0
C      1  0.4153430000000  0.5801900000000  0.5286510000000 1.0
C      1  0.5086950000000  0.4953960000000  0.4509660000000 1.0
C      1  0.4656940000000  0.4043720000000  0.5147850000000 1.0
C      1  0.4574700000000  0.4478330000000  0.5901670000000 1.0
C      1  0.4825280000000  0.4114380000000  0.4518790000000 1.0
C      1  0.5289640000000  0.4587500000000  0.5231450000000 1.0
C      1  0.4676540000000  0.5063000000000  0.5701570000000 1.0
C      1  0.6560310000000  0.4679260000000  0.6088070000000 1.0
C      1  0.4638730000000  0.5518180000000  0.6015470000000 1.0
C      1  0.4341420000000  0.5031480000000  0.4334740000000 1.0
C      1  0.4399000000000  0.3994480000000  0.5297670000000 1.0
C      1  0.4526420000000  0.5056420000000  0.5944560000000 1.0
C      1  0.5119650000000  0.4832640000000  0.5351360000000 1.0
C      1  0.4282640000000  0.5307330000000  0.4247380000000 1.0
C      1  0.4557700000000  0.5675870000000  0.4387330000000 1.0
C      1  0.5595930000000  0.5035670000000  0.3924370000000 1.0
C      1  0.4556840000000  0.4866230000000  0.5237790000000 1.0
C      1  0.4753340000000  0.4491800000000  0.5486730000000 1.0
C      1  0.4441370000000  0.5522540000000  0.4133920000000 1.0
C      1  0.4063430000000  0.4818550000000  0.5472230000000 1.0
C      1  0.5131370000000  0.4504450000000  0.4309550000000 1.0
C      1  0.5219620000000  0.4697440000000  0.4501610000000 1.0
C      1  0.5455330000000  0.5972690000000  0.4621280000000 1.0
C      1  0.4142850000000  0.4389210000000  0.5095890000000 1.0
C      1  0.5563510000000  0.4859530000000  0.4815380000000 1.0
C      1  0.5733920000000  0.5700770000000  0.5162500000000 1.0
C      1  0.5180260000000  0.5150870000000  0.4706580000000 1.0
C      1  0.5550560000000  0.5813090000000  0.4409390000000 1.0
C      1  0.4960750000000  0.4683990000000  0.5570020000000 1.0
C      1  0.3963960000000  0.4868660000000  0.5204100000000 1.0
C      1  0.3934420000000  0.5411010000000  0.5071570000000 1.0
C      1  0.5390320000000  0.5851740000000  0.4865980000000 1.0
C      1  0.5004400000000  0.4266150000000  0.4389830000000 1.0
C      1  0.4852540000000  0.5021850000000  0.4361680000000 1.0
C      1  0.4689560000000  0.4299650000000  0.5695730000000 1.0
C      1  0.4813490000000  0.5453610000000  0.4789190000000 1.0
C      1  0.6022740000000  0.5637600000000  0.5823600000000 1.0
C      1  0.5973020000000  0.4175810000000  0.4597560000000 1.0
C      1  0.5133460000000  0.4140190000000  0.5343090000000 1.0
C      1  0.4813680000000  0.5839120000000  0.4292340000000 1.0
C      1  0.4939130000000  0.4356720000000  0.6183150000000 1.0
C      1  0.5223230000000  0.5292370000000  0.4008640000000 1.0
C      1  0.4953510000000  0.4899810000000  0.5109080000000 1.0
C      1  0.4468440000000  0.5594630000000  0.3874930000000 1.0
C      1  0.6107610000000  0.5008650000000  0.5530060000000 1.0
C      1  0.4362910000000  0.5257000000000  0.5376140000000 1.0
C      1  0.4289330000000  0.5668060000000  0.4567190000000 1.0
C      1  0.4848600000000  0.4830270000000  0.4878980000000 1.0
C      1  0.4589930000000  0.4063280000000  0.4669250000000 1.0
C      1  0.4146730000000  0.4129600000000  0.5244670000000 1.0
C      1  0.4350290000000  0.4626310000000  0.5814810000000 1.0
C      1  0.5676370000000  0.5949910000000  0.5692650000000 1.0
C      1  0.5086510000000  0.5402430000000  0.4781550000000 1.0
C      1  0.4879360000000  0.4099070000000  0.5779280000000 1.0
C      1  0.4348080000000  0.5234780000000  0.5091070000000 1.0
C      1  0.4237830000000  0.4303720000000  0.4302130000000 1.0
C      1  0.4964720000000  0.4387310000000  0.4928320000000 1.0
C      1  0.5133850000000  0.6166800000000  0.5224510000000 1.0
C      1  0.4484340000000  0.4596850000000  0.4674230000000 1.0
C      1  0.5859340000000  0.5481660000000  0.4674590000000 1.0
C      1  0.4550610000000  0.5809330000000  0.4955060000000 1.0
C      1  0.4387620000000  0.4483410000000  0.4433790000000 1.0
C      1  0.5766210000000  0.5569100000000  0.5414150000000 1.0
C      1  0.4059400000000  0.4666250000000  0.5003200000000 1.0
C      1  0.5000110000000  0.5351000000000  0.5389550000000 1.0
C      1  0.4275260000000  0.4613730000000  0.5526860000000 1.0
C      1  0.5460350000000  0.5424820000000  0.4135750000000 1.0
C      1  0.5647350000000  0.3965370000000  0.5149990000000 1.0
C      1  0.4789150000000  0.5542470000000  0.5314750000000 1.0
C      1  0.4219050000000  0.4039330000000  0.4354470000000 1.0
C      1  0.5971470000000  0.4843010000000  0.4299010000000 1.0
C      1  0.4292300000000  0.5732600000000  0.4843620000000 1.0
C      1  0.4380240000000  0.3924400000000  0.4538970000000 1.0
C      1  0.4576590000000  0.5065870000000  0.5442430000000 1.0
C      1  0.4956640000000  0.4116240000000  0.6053530000000 1.0
C      1  0.5864840000000  0.5585840000000  0.4937730000000 1.0
C      1  0.5926170000000  0.5107220000000  0.5342670000000 1.0
C      1  0.5128910000000  0.4590500000000  0.4041370000000 1.0
C      1  0.5822460000000  0.4406640000000  0.5175990000000 1.0
C      1  0.4608560000000  0.5681450000000  0.5513100000000 1.0
C      1  0.4594070000000  0.5268730000000  0.6117270000000 1.0
C      1  0.5387560000000  0.6065320000000  0.5295620000000 1.0
C      1  0.5228340000000  0.4523230000000  0.4948700000000 1.0
C      1  0.5065560000000  0.5703980000000  0.4208000000000 1.0
C      1  0.4892940000000  0.6168860000000  0.5107340000000 1.0
C      1  0.4175050000000  0.4971330000000  0.4575040000000 1.0
C      1  0.5857840000000  0.5199730000000  0.4617070000000 1.0
C      1  0.4131300000000  0.5439280000000  0.4473130000000 1.0
C      1  0.6414540000000  0.4791320000000  0.5903250000000 1.0
C      1  0.5788080000000  0.5668190000000  0.4472170000000 1.0
C      1  0.5169250000000  0.4805020000000  0.3886160000000 1.0
C      1  0.4425270000000  0.4975560000000  0.5001510000000 1.0
C      1  0.4708810000000  0.5449260000000  0.4525910000000 1.0
C      1  0.4512820000000  0.5598170000000  0.5775810000000 1.0
C      1  0.4598590000000  0.4912760000000  0.4303140000000 1.0
C      1  0.4278060000000  0.4797640000000  0.4803430000000 1.0
C      1  0.5618640000000  0.4226210000000  0.5256190000000 1.0
C      1  0.5940550000000  0.5027280000000  0.5073760000000 1.0
C      1  0.5058610000000  0.4011790000000  0.5581740000000 1.0
C      1  0.5672530000000  0.5220460000000  0.4145240000000 1.0
C      1  0.6264300000000  0.4902980000000  0.5715590000000 1.0
C      1  0.4996890000000  0.4719340000000  0.5857630000000 1.0
C      1  0.4239240000000  0.5501410000000  0.5759820000000 1.0
C      1  0.6035030000000  0.4655360000000  0.4499880000000 1.0
C      1  0.4930400000000  0.4161750000000  0.5137340000000 1.0
C      1  0.4673840000000  0.6059220000000  0.4996900000000 1.0
C      1  0.5786190000000  0.4843940000000  0.3850500000000 1.0
C      1  0.5197720000000  0.4873630000000  0.5962140000000 1.0
C      1  0.4021910000000  0.5213930000000  0.4614390000000 1.0
C      1  0.5719990000000  0.5287450000000  0.5423460000000 1.0
C      1  0.5964640000000  0.4481660000000  0.4960510000000 1.0
C      1  0.5499270000000  0.6092140000000  0.5551000000000 1.0
C      1  0.5827140000000  0.5716380000000  0.5650420000000 1.0
C      1  0.5845790000000  0.5103680000000  0.4347950000000 1.0
C      1  0.4093800000000  0.5656280000000  0.5047450000000 1.0
C      1  0.4179740000000  0.5280760000000  0.5594490000000 1.0
C      1  0.5193540000000  0.5129570000000  0.5431880000000 1.0
C      1  0.4516700000000  0.4582380000000  0.5317970000000 1.0
C      1  0.4288120000000  0.4901360000000  0.5896460000000 1.0
C      1  0.5869700000000  0.3949720000000  0.4699260000000 1.0
C      1  0.4755630000000  0.4573300000000  0.4796280000000 1.0
C      1  0.6005700000000  0.4443370000000  0.4682620000000 1.0
C      1  0.5250410000000  0.5612530000000  0.4849760000000 1.0
C      1  0.3887970000000  0.5143280000000  0.5128520000000 1.0
C      1  0.4104090000000  0.5018890000000  0.5689940000000 1.0
C      1  0.5002120000000  0.5425320000000  0.4129450000000 1.0
C      1  0.4718290000000  0.5584710000000  0.5025640000000 1.0
END
