TITL C-627107-135-722 -8.68750720032215e-07 125000 -315.398350599402 0 0 52 (C1) n - 1
REM
REM in /home/nfs/bkarasulu/CARBON/AIRSS/Generating-Clusters/LCBOP/Only-C1/SD-CG/FIRE-CG
REM
REM
REM
REM
REM
REM ./C.cell (11c1c37f851c82e70ff6c80c92926a4b)
REM AIRSS Version 0.9.1 bugfix July 2018 build 013d7b7c2542+ Fri, 06 Jul 2018 19:26:36 +0100
REM compiler GCC version 9.2.1 20190827 (Red Hat 9.2.1-1)
REM options -cpp -mtune=generic -march=x86-64 -g -O0 -fpre-include=/usr/include/finclude/math-vector-fortran.h
REM seed 2124056293 339536074 2059536882 -577031698 2134033824 973432349 2128433599 1397087845 -1459620710 -93081210 368583895 -998245703 1366720130 -756926637 1729912774 1875232773 2115724892 -1419133579 403960049 1827000583 -1299158446 -1391963124 1756159909 1932869913 -152591356 -362162188 -213064350 1751508150 -905917755 -1413087335 -1889631254 2013546518 -1923916021
REM
CELL 1.54180   50.00000   50.00000   50.00000   90.00000   90.00000   90.00000
LATT -1
SFAC C  
C      1  0.4956690000000  0.4506430000000  0.4444140000000 1.0
C      1  0.4719300000000  0.4961280000000  0.5684120000000 1.0
C      1  0.4883600000000  0.5176520000000  0.5766190000000 1.0
C      1  0.5258920000000  0.4454520000000  0.5340070000000 1.0
C      1  0.5270380000000  0.4897700000000  0.4928490000000 1.0
C      1  0.5475350000000  0.4729210000000  0.4478640000000 1.0
C      1  0.4502780000000  0.5334390000000  0.5379750000000 1.0
C      1  0.4493160000000  0.5071690000000  0.5527820000000 1.0
C      1  0.5696640000000  0.5296560000000  0.5424380000000 1.0
C      1  0.5681080000000  0.4680490000000  0.4706420000000 1.0
C      1  0.4769510000000  0.4936400000000  0.4252290000000 1.0
C      1  0.5079400000000  0.5198010000000  0.5344560000000 1.0
C      1  0.4397290000000  0.5280540000000  0.5107300000000 1.0
C      1  0.5179120000000  0.4339590000000  0.4385370000000 1.0
C      1  0.4104590000000  0.4717330000000  0.4757500000000 1.0
C      1  0.4842130000000  0.4526560000000  0.4707960000000 1.0
C      1  0.4987340000000  0.5197600000000  0.5068660000000 1.0
C      1  0.4786150000000  0.5175870000000  0.4415780000000 1.0
C      1  0.5472920000000  0.5106510000000  0.5026800000000 1.0
C      1  0.5063190000000  0.4566830000000  0.5525960000000 1.0
C      1  0.4304640000000  0.4870400000000  0.4858130000000 1.0
C      1  0.5562860000000  0.4474580000000  0.5255830000000 1.0
C      1  0.5296330000000  0.5039900000000  0.5436570000000 1.0
C      1  0.4986840000000  0.4758920000000  0.4311070000000 1.0
C      1  0.5599250000000  0.5551230000000  0.5388780000000 1.0
C      1  0.5588810000000  0.4565100000000  0.4965850000000 1.0
C      1  0.5547850000000  0.5080090000000  0.5311570000000 1.0
C      1  0.4756220000000  0.5572220000000  0.4940490000000 1.0
C      1  0.4989900000000  0.4949080000000  0.4938480000000 1.0
C      1  0.4845780000000  0.5667070000000  0.5204830000000 1.0
C      1  0.5083730000000  0.5191500000000  0.4460900000000 1.0
C      1  0.4982170000000  0.5410790000000  0.4868790000000 1.0
C      1  0.5310580000000  0.4622790000000  0.4929300000000 1.0
C      1  0.5477470000000  0.5395890000000  0.4959750000000 1.0
C      1  0.4574110000000  0.4640290000000  0.5387470000000 1.0
C      1  0.5423110000000  0.4461810000000  0.4363930000000 1.0
C      1  0.4736480000000  0.5502770000000  0.5421560000000 1.0
C      1  0.4593240000000  0.5201680000000  0.4641670000000 1.0
C      1  0.5410520000000  0.5588960000000  0.5176020000000 1.0
C      1  0.4393700000000  0.4863360000000  0.5343730000000 1.0
C      1  0.5149100000000  0.5397520000000  0.4638340000000 1.0
C      1  0.5226840000000  0.4918330000000  0.4411230000000 1.0
C      1  0.4547940000000  0.4926480000000  0.4728650000000 1.0
C      1  0.4302220000000  0.4999280000000  0.5108110000000 1.0
C      1  0.5144430000000  0.5709230000000  0.5211890000000 1.0
C      1  0.5140900000000  0.4436990000000  0.5068960000000 1.0
C      1  0.4533610000000  0.5393730000000  0.4870720000000 1.0
C      1  0.4787570000000  0.4794040000000  0.4802710000000 1.0
C      1  0.5412710000000  0.5464540000000  0.4696170000000 1.0
C      1  0.4806130000000  0.4699080000000  0.5562480000000 1.0
C      1  0.4942990000000  0.5345880000000  0.5546450000000 1.0
C      1  0.4922430000000  0.4352440000000  0.4917350000000 1.0
END
