TITL C-627107-135-430 4.67766085970056e-07 125000 -1179.22589476278 0 0 191 (C1) n - 1
REM
REM in /home/nfs/bkarasulu/CARBON/AIRSS/Generating-Clusters/LCBOP/Only-C1/SD-CG/FIRE-CG
REM
REM
REM
REM
REM
REM ./C.cell (11c1c37f851c82e70ff6c80c92926a4b)
REM AIRSS Version 0.9.1 bugfix July 2018 build 013d7b7c2542+ Fri, 06 Jul 2018 19:26:36 +0100
REM compiler GCC version 9.2.1 20190827 (Red Hat 9.2.1-1)
REM options -cpp -mtune=generic -march=x86-64 -g -O0 -fpre-include=/usr/include/finclude/math-vector-fortran.h
REM seed 677526992 291356863 219614276 1897123884 353303595 1747685577 1968466852 -1004650454 910916916 -315181319 1857257784 -1216736347 -785471528 -127970939 -406895100 -1213542585 1692807132 883245186 -1754611659 -213249335 1528199096 -361040780 -1981137218 1119346674 -1450309384 -1448335265 -520773855 -947513205 -1178907656 233705923 835937646 709745205 1649183919
REM
CELL 1.54180   50.00000   50.00000   50.00000   90.00000   90.00000   90.00000
LATT -1
SFAC C  
C      1  0.6116380000000  0.4243180000000  0.4678240000000 1.0
C      1  0.4600020000000  0.5758770000000  0.5109170000000 1.0
C      1  0.6201030000000  0.6129570000000  0.4854100000000 1.0
C      1  0.5645710000000  0.4845620000000  0.6054960000000 1.0
C      1  0.4438080000000  0.4705180000000  0.5193050000000 1.0
C      1  0.5443010000000  0.4171160000000  0.3774380000000 1.0
C      1  0.5762810000000  0.5017140000000  0.6236780000000 1.0
C      1  0.4647170000000  0.4241770000000  0.5668970000000 1.0
C      1  0.5163940000000  0.4818890000000  0.4288770000000 1.0
C      1  0.5368670000000  0.4761460000000  0.6049970000000 1.0
C      1  0.4387740000000  0.4200630000000  0.5239900000000 1.0
C      1  0.5304680000000  0.6210840000000  0.4765220000000 1.0
C      1  0.5869320000000  0.5309760000000  0.4034600000000 1.0
C      1  0.4187030000000  0.4288850000000  0.4328390000000 1.0
C      1  0.4530000000000  0.6162540000000  0.5353270000000 1.0
C      1  0.3702590000000  0.5351650000000  0.5747880000000 1.0
C      1  0.5323330000000  0.4860090000000  0.4897120000000 1.0
C      1  0.5514610000000  0.5650610000000  0.5226630000000 1.0
C      1  0.3850410000000  0.4955960000000  0.4482990000000 1.0
C      1  0.5433210000000  0.3847410000000  0.4652890000000 1.0
C      1  0.5865130000000  0.4895350000000  0.4251680000000 1.0
C      1  0.5669200000000  0.3975410000000  0.4762940000000 1.0
C      1  0.5433870000000  0.5673710000000  0.5514040000000 1.0
C      1  0.4791800000000  0.4257950000000  0.4068370000000 1.0
C      1  0.5536560000000  0.5050100000000  0.5334380000000 1.0
C      1  0.4567420000000  0.4108330000000  0.4775270000000 1.0
C      1  0.4059100000000  0.3940280000000  0.3956580000000 1.0
C      1  0.5151890000000  0.6127290000000  0.4288660000000 1.0
C      1  0.5604630000000  0.4392260000000  0.5474260000000 1.0
C      1  0.4684740000000  0.5478340000000  0.4661560000000 1.0
C      1  0.4987640000000  0.5883130000000  0.5614650000000 1.0
C      1  0.4831580000000  0.4391180000000  0.6111890000000 1.0
C      1  0.4060360000000  0.4987070000000  0.4296200000000 1.0
C      1  0.5676530000000  0.4570300000000  0.4521310000000 1.0
C      1  0.4855640000000  0.4852320000000  0.5298100000000 1.0
C      1  0.5741350000000  0.6074280000000  0.4889920000000 1.0
C      1  0.5924850000000  0.4651240000000  0.5213660000000 1.0
C      1  0.4754810000000  0.3889680000000  0.6145800000000 1.0
C      1  0.3686930000000  0.5174840000000  0.4549710000000 1.0
C      1  0.4227430000000  0.5581200000000  0.4680380000000 1.0
C      1  0.4567560000000  0.4937000000000  0.5857600000000 1.0
C      1  0.3679420000000  0.5347110000000  0.5024250000000 1.0
C      1  0.4202410000000  0.5611630000000  0.4182920000000 1.0
C      1  0.4875370000000  0.5401380000000  0.5423690000000 1.0
C      1  0.5242430000000  0.3710530000000  0.4826440000000 1.0
C      1  0.6216520000000  0.5122700000000  0.5047240000000 1.0
C      1  0.4257420000000  0.4919650000000  0.5085720000000 1.0
C      1  0.6233830000000  0.4485980000000  0.4704690000000 1.0
C      1  0.4065860000000  0.5860300000000  0.5390710000000 1.0
C      1  0.5606920000000  0.5570640000000  0.4330210000000 1.0
C      1  0.4563060000000  0.4739770000000  0.4052030000000 1.0
C      1  0.5866420000000  0.5198600000000  0.6399650000000 1.0
C      1  0.4450040000000  0.6002610000000  0.5132030000000 1.0
C      1  0.4971330000000  0.4234480000000  0.3852580000000 1.0
C      1  0.4834110000000  0.4614110000000  0.6269570000000 1.0
C      1  0.6022970000000  0.4186480000000  0.5326280000000 1.0
C      1  0.3988690000000  0.4925250000000  0.5792450000000 1.0
C      1  0.6048900000000  0.5416180000000  0.4484350000000 1.0
C      1  0.3999300000000  0.4506250000000  0.4718280000000 1.0
C      1  0.5365940000000  0.4310870000000  0.5350630000000 1.0
C      1  0.4109250000000  0.4194410000000  0.5162170000000 1.0
C      1  0.4332020000000  0.5676860000000  0.4423520000000 1.0
C      1  0.5325590000000  0.5872270000000  0.5953310000000 1.0
C      1  0.3801250000000  0.5113270000000  0.5124640000000 1.0
C      1  0.5370240000000  0.4274400000000  0.5069790000000 1.0
C      1  0.6277880000000  0.5031230000000  0.4777240000000 1.0
C      1  0.4355020000000  0.5069830000000  0.4837280000000 1.0
C      1  0.3963500000000  0.4895540000000  0.5520990000000 1.0
C      1  0.5932640000000  0.4042400000000  0.4675860000000 1.0
C      1  0.5241280000000  0.5873510000000  0.4178010000000 1.0
C      1  0.5276670000000  0.3438610000000  0.4857070000000 1.0
C      1  0.4779720000000  0.4901790000000  0.4814950000000 1.0
C      1  0.5516490000000  0.5829760000000  0.4266810000000 1.0
C      1  0.4832880000000  0.5360350000000  0.6130130000000 1.0
C      1  0.6102660000000  0.6118700000000  0.4594350000000 1.0
C      1  0.4188220000000  0.5389900000000  0.5643470000000 1.0
C      1  0.5361220000000  0.5799410000000  0.5032720000000 1.0
C      1  0.5273050000000  0.5866590000000  0.5673630000000 1.0
C      1  0.4221370000000  0.5474650000000  0.5112740000000 1.0
C      1  0.4915860000000  0.5638500000000  0.6124350000000 1.0
C      1  0.4008660000000  0.4963340000000  0.5241450000000 1.0
C      1  0.5919490000000  0.5495230000000  0.4720440000000 1.0
C      1  0.4833640000000  0.4101520000000  0.4304080000000 1.0
C      1  0.6298870000000  0.4747570000000  0.4733200000000 1.0
C      1  0.5208810000000  0.4625500000000  0.4775960000000 1.0
C      1  0.5584920000000  0.4141100000000  0.4969000000000 1.0
C      1  0.5022220000000  0.3830970000000  0.4968400000000 1.0
C      1  0.4490430000000  0.5506240000000  0.5189800000000 1.0
C      1  0.4915110000000  0.5569860000000  0.4798950000000 1.0
C      1  0.4967890000000  0.5154310000000  0.5989140000000 1.0
C      1  0.5077660000000  0.5197210000000  0.5048820000000 1.0
C      1  0.5873010000000  0.5473330000000  0.4262570000000 1.0
C      1  0.6046990000000  0.4837090000000  0.5399430000000 1.0
C      1  0.4131810000000  0.5022540000000  0.6006950000000 1.0
C      1  0.5077460000000  0.3963670000000  0.4331910000000 1.0
C      1  0.4745270000000  0.5955500000000  0.5764440000000 1.0
C      1  0.4132990000000  0.5688140000000  0.4931940000000 1.0
C      1  0.5168270000000  0.4628360000000  0.4496540000000 1.0
C      1  0.5994510000000  0.4796580000000  0.5674290000000 1.0
C      1  0.5100510000000  0.4396350000000  0.5414200000000 1.0
C      1  0.5601930000000  0.6060990000000  0.4418660000000 1.0
C      1  0.5990410000000  0.6103640000000  0.5033540000000 1.0
C      1  0.4451450000000  0.4356120000000  0.5490820000000 1.0
C      1  0.5337890000000  0.5257900000000  0.3825930000000 1.0
C      1  0.4525340000000  0.4873550000000  0.4706580000000 1.0
C      1  0.4660310000000  0.4103950000000  0.4525080000000 1.0
C      1  0.4295640000000  0.5625660000000  0.5769140000000 1.0
C      1  0.4807950000000  0.5663990000000  0.4214040000000 1.0
C      1  0.5691810000000  0.5428740000000  0.5129890000000 1.0
C      1  0.4704550000000  0.3958250000000  0.5655220000000 1.0
C      1  0.3615050000000  0.5336240000000  0.4751390000000 1.0
C      1  0.5334100000000  0.5198890000000  0.5467340000000 1.0
C      1  0.3941120000000  0.4018970000000  0.5289480000000 1.0
C      1  0.4846160000000  0.4970640000000  0.5812490000000 1.0
C      1  0.5265690000000  0.4612320000000  0.3851980000000 1.0
C      1  0.5572680000000  0.4541820000000  0.5707950000000 1.0
C      1  0.5046690000000  0.5070670000000  0.4366350000000 1.0
C      1  0.5851810000000  0.4399650000000  0.5328210000000 1.0
C      1  0.5781750000000  0.5216730000000  0.5305290000000 1.0
C      1  0.5220110000000  0.5216740000000  0.4550230000000 1.0
C      1  0.5508170000000  0.4861520000000  0.5115520000000 1.0
C      1  0.4623740000000  0.4481340000000  0.4059300000000 1.0
C      1  0.4541230000000  0.5001070000000  0.4155120000000 1.0
C      1  0.5170910000000  0.5753260000000  0.6141030000000 1.0
C      1  0.4006980000000  0.4362480000000  0.4959140000000 1.0
C      1  0.4780660000000  0.5109690000000  0.4269620000000 1.0
C      1  0.3909510000000  0.5441440000000  0.5593290000000 1.0
C      1  0.4805210000000  0.3908580000000  0.5140990000000 1.0
C      1  0.5771210000000  0.4719120000000  0.5826090000000 1.0
C      1  0.4939480000000  0.4824620000000  0.5580990000000 1.0
C      1  0.4430180000000  0.4647390000000  0.4575610000000 1.0
C      1  0.5771480000000  0.4838670000000  0.4517510000000 1.0
C      1  0.4419270000000  0.5346060000000  0.4740700000000 1.0
C      1  0.5815530000000  0.6083670000000  0.4598220000000 1.0
C      1  0.4700670000000  0.3811250000000  0.5894560000000 1.0
C      1  0.5349100000000  0.6200430000000  0.4485550000000 1.0
C      1  0.4220170000000  0.5371120000000  0.4062660000000 1.0
C      1  0.5577130000000  0.4072040000000  0.3985120000000 1.0
C      1  0.6045890000000  0.5098140000000  0.5280900000000 1.0
C      1  0.4802820000000  0.3851030000000  0.5415670000000 1.0
C      1  0.3691010000000  0.5577900000000  0.5187810000000 1.0
C      1  0.5348120000000  0.3951470000000  0.4402100000000 1.0
C      1  0.5169110000000  0.5449980000000  0.3947290000000 1.0
C      1  0.4941560000000  0.4434490000000  0.5163820000000 1.0
C      1  0.4467100000000  0.5605020000000  0.5989350000000 1.0
C      1  0.3834040000000  0.4720300000000  0.4640190000000 1.0
C      1  0.4424070000000  0.4909700000000  0.5611410000000 1.0
C      1  0.4218000000000  0.4468160000000  0.4539020000000 1.0
C      1  0.5066260000000  0.5665340000000  0.4098590000000 1.0
C      1  0.5427440000000  0.5410480000000  0.5632180000000 1.0
C      1  0.4388950000000  0.4649910000000  0.5478450000000 1.0
C      1  0.4275950000000  0.5113110000000  0.4162130000000 1.0
C      1  0.5221190000000  0.4343600000000  0.3785490000000 1.0
C      1  0.5534350000000  0.4113690000000  0.4259280000000 1.0
C      1  0.4620320000000  0.5633640000000  0.4419870000000 1.0
C      1  0.4507430000000  0.6036770000000  0.5608680000000 1.0
C      1  0.4697970000000  0.5784780000000  0.5993710000000 1.0
C      1  0.6243100000000  0.5213590000000  0.4551920000000 1.0
C      1  0.5146280000000  0.4412520000000  0.4951850000000 1.0
C      1  0.5103350000000  0.5269040000000  0.5320590000000 1.0
C      1  0.5417030000000  0.5395630000000  0.4452510000000 1.0
C      1  0.5965690000000  0.5380290000000  0.6558070000000 1.0
C      1  0.5769350000000  0.4789720000000  0.5012840000000 1.0
C      1  0.5732200000000  0.5063970000000  0.4064150000000 1.0
C      1  0.5049420000000  0.4549510000000  0.5667020000000 1.0
C      1  0.5307180000000  0.4591040000000  0.5824020000000 1.0
C      1  0.4917900000000  0.5675130000000  0.5443270000000 1.0
C      1  0.4534910000000  0.5344710000000  0.6106720000000 1.0
C      1  0.4722600000000  0.4616120000000  0.5182100000000 1.0
C      1  0.4934120000000  0.6271610000000  0.4216050000000 1.0
C      1  0.4168240000000  0.5920990000000  0.5115620000000 1.0
C      1  0.5763190000000  0.5320780000000  0.4868510000000 1.0
C      1  0.4599500000000  0.5335150000000  0.5384100000000 1.0
C      1  0.4581950000000  0.4073270000000  0.5055070000000 1.0
C      1  0.3860900000000  0.5652490000000  0.5402880000000 1.0
C      1  0.4115030000000  0.4113670000000  0.4143020000000 1.0
C      1  0.4833150000000  0.4400840000000  0.5825090000000 1.0
C      1  0.5126590000000  0.5694210000000  0.4910590000000 1.0
C      1  0.5463650000000  0.6048030000000  0.4938660000000 1.0
C      1  0.5626780000000  0.4348360000000  0.4382240000000 1.0
C      1  0.5301090000000  0.4816510000000  0.4039350000000 1.0
C      1  0.4410300000000  0.5092660000000  0.6043320000000 1.0
C      1  0.5234740000000  0.5126060000000  0.4821910000000 1.0
C      1  0.4871360000000  0.5008700000000  0.5059140000000 1.0
C      1  0.4389120000000  0.5198690000000  0.5531750000000 1.0
C      1  0.6092770000000  0.4767360000000  0.4163790000000 1.0
C      1  0.5462090000000  0.5043450000000  0.3973350000000 1.0
C      1  0.4814990000000  0.4136570000000  0.6231970000000 1.0
C      1  0.5790550000000  0.4976960000000  0.4777320000000 1.0
C      1  0.5384430000000  0.5274520000000  0.3555840000000 1.0
C      1  0.4266830000000  0.5867930000000  0.5616320000000 1.0
END
