TITL C-627113-6568-201 358.496059836299 125000 -1046.08812820903 0 0 172 (C1) n - 1
REM
REM in /home/nfs/bkarasulu/CARBON/AIRSS/Generating-Clusters/LCBOP/Only-C1/SD-CG/FIRE-CG
REM
REM
REM
REM
REM
REM ./C.cell (11c1c37f851c82e70ff6c80c92926a4b)
REM AIRSS Version 0.9.1 bugfix July 2018 build 013d7b7c2542+ Fri, 06 Jul 2018 19:26:36 +0100
REM compiler GCC version 9.2.1 20190827 (Red Hat 9.2.1-1)
REM options -cpp -mtune=generic -march=x86-64 -g -O0 -fpre-include=/usr/include/finclude/math-vector-fortran.h
REM seed 450606529 -1240530564 -1740218257 979274360 647838195 1246828091 -1056864393 629671522 301514107 232372176 881663961 -1082409842 -802612864 1077579352 -1997123042 -213899245 1215858576 -355763511 -1900377355 1648756444 1569454774 -803954026 -775115550 241507244 -19955574 -1814962813 -1333369397 510346421 -383024518 1744428055 -1608778454 -1720029100 820868602
REM
CELL 1.54180   50.00000   50.00000   50.00000   90.00000   90.00000   90.00000
LATT -1
SFAC C  
C      1  0.4911220000000  0.5270100000000  0.4011590000000 1.0
C      1  0.5843870000000  0.4329700000000  0.4728760000000 1.0
C      1  0.4696330000000  0.4159300000000  0.4341350000000 1.0
C      1  0.5288550000000  0.5884370000000  0.4298680000000 1.0
C      1  0.4613580000000  0.3973310000000  0.5100910000000 1.0
C      1  0.5010250000000  0.5843640000000  0.4972570000000 1.0
C      1  0.5171290000000  0.4194410000000  0.5262340000000 1.0
C      1  0.5041690000000  0.5608030000000  0.6063760000000 1.0
C      1  0.4631810000000  0.6154440000000  0.3937190000000 1.0
C      1  0.4095850000000  0.5953310000000  0.5356560000000 1.0
C      1  0.5356480000000  0.5339650000000  0.4247200000000 1.0
C      1  0.3796820000000  0.4876020000000  0.4732610000000 1.0
C      1  0.5825900000000  0.4342340000000  0.5386020000000 1.0
C      1  0.3901400000000  0.4916850000000  0.5003150000000 1.0
C      1  0.5246180000000  0.4277820000000  0.4569140000000 1.0
C      1  0.4295990000000  0.5506290000000  0.5288330000000 1.0
C      1  0.6071650000000  0.4722830000000  0.5166730000000 1.0
C      1  0.4670180000000  0.5983380000000  0.5544680000000 1.0
C      1  0.4521810000000  0.4598860000000  0.5754900000000 1.0
C      1  0.4670330000000  0.4899610000000  0.5343250000000 1.0
C      1  0.5250040000000  0.5186960000000  0.5741060000000 1.0
C      1  0.5056460000000  0.4407730000000  0.4728130000000 1.0
C      1  0.4315040000000  0.5787510000000  0.5307730000000 1.0
C      1  0.4535150000000  0.4731310000000  0.4933860000000 1.0
C      1  0.5389760000000  0.5612080000000  0.4865330000000 1.0
C      1  0.5148780000000  0.4376860000000  0.5834290000000 1.0
C      1  0.5445120000000  0.6033950000000  0.5222890000000 1.0
C      1  0.4759820000000  0.4561970000000  0.4005970000000 1.0
C      1  0.4989960000000  0.5255430000000  0.5074320000000 1.0
C      1  0.5477520000000  0.5201990000000  0.5364480000000 1.0
C      1  0.3993720000000  0.5383480000000  0.4823810000000 1.0
C      1  0.4523050000000  0.4550640000000  0.4728080000000 1.0
C      1  0.4264010000000  0.4491650000000  0.5641110000000 1.0
C      1  0.4948470000000  0.5001150000000  0.3908330000000 1.0
C      1  0.5673840000000  0.4101740000000  0.4694810000000 1.0
C      1  0.5090470000000  0.4572440000000  0.4950250000000 1.0
C      1  0.5940880000000  0.6105740000000  0.5262630000000 1.0
C      1  0.5977600000000  0.5636610000000  0.4749680000000 1.0
C      1  0.3944090000000  0.5207640000000  0.5056890000000 1.0
C      1  0.4979030000000  0.5702930000000  0.4707310000000 1.0
C      1  0.4645820000000  0.5966560000000  0.4117240000000 1.0
C      1  0.4330610000000  0.4494790000000  0.4241380000000 1.0
C      1  0.4254010000000  0.4811750000000  0.4086330000000 1.0
C      1  0.5638090000000  0.4418830000000  0.4322560000000 1.0
C      1  0.5358020000000  0.4441510000000  0.4365760000000 1.0
C      1  0.4167480000000  0.4942220000000  0.5533280000000 1.0
C      1  0.5042560000000  0.4835970000000  0.4435840000000 1.0
C      1  0.4747010000000  0.5182580000000  0.5679410000000 1.0
C      1  0.5202990000000  0.5970470000000  0.5721490000000 1.0
C      1  0.4173880000000  0.5328580000000  0.5913240000000 1.0
C      1  0.5728550000000  0.5991340000000  0.5118170000000 1.0
C      1  0.4514440000000  0.5387000000000  0.5149030000000 1.0
C      1  0.5396550000000  0.4068060000000  0.4698360000000 1.0
C      1  0.5132780000000  0.4444730000000  0.5190320000000 1.0
C      1  0.3881760000000  0.4905440000000  0.4462580000000 1.0
C      1  0.6137940000000  0.6204590000000  0.5401540000000 1.0
C      1  0.4086130000000  0.5114550000000  0.5746400000000 1.0
C      1  0.4631770000000  0.4098760000000  0.4622120000000 1.0
C      1  0.6106430000000  0.4805640000000  0.6020880000000 1.0
C      1  0.4702830000000  0.4841290000000  0.3947400000000 1.0
C      1  0.5839120000000  0.5520870000000  0.4296760000000 1.0
C      1  0.5618320000000  0.4935290000000  0.5057890000000 1.0
C      1  0.4539720000000  0.5513930000000  0.4268550000000 1.0
C      1  0.4260960000000  0.4205220000000  0.5677500000000 1.0
C      1  0.5830510000000  0.5080690000000  0.5733220000000 1.0
C      1  0.4073210000000  0.4475380000000  0.4388530000000 1.0
C      1  0.6033800000000  0.5143580000000  0.4513710000000 1.0
C      1  0.5157730000000  0.4977290000000  0.5550300000000 1.0
C      1  0.4724100000000  0.5843310000000  0.5786580000000 1.0
C      1  0.4427830000000  0.5264370000000  0.4915810000000 1.0
C      1  0.4897810000000  0.4275570000000  0.5724500000000 1.0
C      1  0.6169600000000  0.4981810000000  0.4717170000000 1.0
C      1  0.4051570000000  0.5353860000000  0.5280780000000 1.0
C      1  0.4266740000000  0.5588340000000  0.5812570000000 1.0
C      1  0.5007720000000  0.3826040000000  0.4843720000000 1.0
C      1  0.5665150000000  0.3710010000000  0.5419560000000 1.0
C      1  0.5765320000000  0.4549630000000  0.4552090000000 1.0
C      1  0.5841490000000  0.4622360000000  0.5324790000000 1.0
C      1  0.5696020000000  0.4836440000000  0.4541980000000 1.0
C      1  0.6232830000000  0.5169610000000  0.5143470000000 1.0
C      1  0.4329120000000  0.3999330000000  0.5083540000000 1.0
C      1  0.5131270000000  0.4272990000000  0.3866880000000 1.0
C      1  0.5860820000000  0.4884260000000  0.5932270000000 1.0
C      1  0.4577490000000  0.5061930000000  0.5852870000000 1.0
C      1  0.4873030000000  0.5380370000000  0.6141100000000 1.0
C      1  0.4882030000000  0.4002560000000  0.4195900000000 1.0
C      1  0.5567750000000  0.6223110000000  0.4488000000000 1.0
C      1  0.5600570000000  0.4767610000000  0.5289390000000 1.0
C      1  0.4594250000000  0.5910200000000  0.5261280000000 1.0
C      1  0.4266770000000  0.5432290000000  0.4741490000000 1.0
C      1  0.5149510000000  0.4840740000000  0.4924300000000 1.0
C      1  0.4354610000000  0.5135860000000  0.4435010000000 1.0
C      1  0.5793320000000  0.5834480000000  0.4870720000000 1.0
C      1  0.4414860000000  0.5005630000000  0.5409510000000 1.0
C      1  0.5287530000000  0.5460460000000  0.5652310000000 1.0
C      1  0.5260660000000  0.4704380000000  0.4311840000000 1.0
C      1  0.4531940000000  0.5667110000000  0.5909850000000 1.0
C      1  0.5995250000000  0.4209250000000  0.5196270000000 1.0
C      1  0.5358920000000  0.4794340000000  0.5448530000000 1.0
C      1  0.5124360000000  0.5439470000000  0.4105620000000 1.0
C      1  0.4652700000000  0.4668690000000  0.5180920000000 1.0
C      1  0.4751680000000  0.5823670000000  0.4575060000000 1.0
C      1  0.4553750000000  0.6071060000000  0.5002710000000 1.0
C      1  0.4740890000000  0.4047930000000  0.5606650000000 1.0
C      1  0.5167980000000  0.4806740000000  0.3885710000000 1.0
C      1  0.5360100000000  0.5642370000000  0.5433220000000 1.0
C      1  0.4349030000000  0.5300990000000  0.6148780000000 1.0
C      1  0.5000930000000  0.5824760000000  0.5874440000000 1.0
C      1  0.4104210000000  0.4666020000000  0.5443430000000 1.0
C      1  0.5841630000000  0.4986040000000  0.4338460000000 1.0
C      1  0.5465180000000  0.5968300000000  0.4506340000000 1.0
C      1  0.5363380000000  0.5922450000000  0.5486330000000 1.0
C      1  0.4878680000000  0.4804260000000  0.6076690000000 1.0
C      1  0.5778820000000  0.5171400000000  0.5056090000000 1.0
C      1  0.4596160000000  0.4400330000000  0.4195020000000 1.0
C      1  0.5144820000000  0.5724630000000  0.4132730000000 1.0
C      1  0.3975740000000  0.4429540000000  0.4654040000000 1.0
C      1  0.5980640000000  0.5436030000000  0.4530610000000 1.0
C      1  0.4006180000000  0.4656170000000  0.5140770000000 1.0
C      1  0.5610100000000  0.5445680000000  0.4177970000000 1.0
C      1  0.6205790000000  0.4922550000000  0.5000870000000 1.0
C      1  0.5683890000000  0.5191340000000  0.5539760000000 1.0
C      1  0.5059710000000  0.4049240000000  0.3999190000000 1.0
C      1  0.3950440000000  0.4708970000000  0.4273510000000 1.0
C      1  0.4788480000000  0.5448850000000  0.5158100000000 1.0
C      1  0.5245920000000  0.5082940000000  0.6006990000000 1.0
C      1  0.4860250000000  0.4988060000000  0.4597590000000 1.0
C      1  0.5543170000000  0.5809060000000  0.4733520000000 1.0
C      1  0.3890380000000  0.6105900000000  0.5405520000000 1.0
C      1  0.5347940000000  0.4811600000000  0.6033580000000 1.0
C      1  0.5121510000000  0.4623770000000  0.6004090000000 1.0
C      1  0.4740510000000  0.4487750000000  0.5609030000000 1.0
C      1  0.5659490000000  0.4942780000000  0.4103570000000 1.0
C      1  0.5623310000000  0.4771760000000  0.6033070000000 1.0
C      1  0.4078500000000  0.5097410000000  0.4421360000000 1.0
C      1  0.4656310000000  0.5767880000000  0.4312680000000 1.0
C      1  0.4716470000000  0.4130540000000  0.5314160000000 1.0
C      1  0.5197560000000  0.5494210000000  0.4682280000000 1.0
C      1  0.5215280000000  0.6032840000000  0.5044120000000 1.0
C      1  0.5033560000000  0.4534880000000  0.3893000000000 1.0
C      1  0.5996150000000  0.5302920000000  0.5152130000000 1.0
C      1  0.5352580000000  0.5558710000000  0.5147130000000 1.0
C      1  0.4695550000000  0.4429750000000  0.5324490000000 1.0
C      1  0.4468200000000  0.4025410000000  0.5706420000000 1.0
C      1  0.5765300000000  0.4302780000000  0.4112810000000 1.0
C      1  0.5540930000000  0.3947270000000  0.5368540000000 1.0
C      1  0.5405870000000  0.4292910000000  0.5710400000000 1.0
C      1  0.5271730000000  0.3911380000000  0.4903940000000 1.0
C      1  0.6027350000000  0.4285370000000  0.4936990000000 1.0
C      1  0.5385440000000  0.4833230000000  0.4076250000000 1.0
C      1  0.4472340000000  0.4985060000000  0.4019780000000 1.0
C      1  0.5605240000000  0.4197020000000  0.5512240000000 1.0
C      1  0.4249790000000  0.4224070000000  0.4937810000000 1.0
C      1  0.4957800000000  0.5046160000000  0.4871170000000 1.0
C      1  0.4426900000000  0.4986250000000  0.4903790000000 1.0
C      1  0.4598580000000  0.5009270000000  0.4494090000000 1.0
C      1  0.5325180000000  0.5269180000000  0.4525530000000 1.0
C      1  0.5473100000000  0.5022270000000  0.4622900000000 1.0
C      1  0.4615430000000  0.4795150000000  0.5942280000000 1.0
C      1  0.4624970000000  0.5307550000000  0.4081560000000 1.0
C      1  0.4749050000000  0.3938190000000  0.4840880000000 1.0
C      1  0.5330730000000  0.3980800000000  0.5178350000000 1.0
C      1  0.5263360000000  0.5289670000000  0.5184930000000 1.0
C      1  0.4977570000000  0.5100020000000  0.6129550000000 1.0
C      1  0.4043750000000  0.4424940000000  0.4940940000000 1.0
C      1  0.4830490000000  0.5731680000000  0.5168530000000 1.0
C      1  0.4446880000000  0.4284640000000  0.4733930000000 1.0
C      1  0.4882920000000  0.5012430000000  0.5491480000000 1.0
C      1  0.5408870000000  0.4924210000000  0.4879290000000 1.0
C      1  0.4595410000000  0.5456050000000  0.6119450000000 1.0
C      1  0.4370970000000  0.5422470000000  0.4477240000000 1.0
C      1  0.4603220000000  0.6005080000000  0.4743090000000 1.0
END
