TITL C-627106-156-1955 -1.30351047856289e-06 125000 -1142.60377291436 0 0 185 (C1) n - 1
REM
REM in /home/nfs/bkarasulu/CARBON/AIRSS/Generating-Clusters/LCBOP/Only-C1/SD-CG/FIRE-CG
REM
REM
REM
REM
REM
REM ./C.cell (11c1c37f851c82e70ff6c80c92926a4b)
REM AIRSS Version 0.9.1 bugfix July 2018 build 013d7b7c2542+ Fri, 06 Jul 2018 19:26:36 +0100
REM compiler GCC version 9.2.1 20190827 (Red Hat 9.2.1-1)
REM options -cpp -mtune=generic -march=x86-64 -g -O0 -fpre-include=/usr/include/finclude/math-vector-fortran.h
REM seed -786427689 1244060087 117974583 -1166335815 -681080961 -1199191079 -1652068165 1596826495 735755136 1258380629 1110132187 -1611421435 683495170 1413155727 2000924737 -613564694 -2131228473 1407900861 776195914 -49271803 1073441681 805272075 987305340 1023084566 -1284602192 -1044670739 -1429733667 -1452888827 918637510 -570963523 466558369 1273883057 628404255
REM
CELL 1.54180   50.00000   50.00000   50.00000   90.00000   90.00000   90.00000
LATT -1
SFAC C  
C      1  0.5071600000000  0.4263010000000  0.5829580000000 1.0
C      1  0.4995790000000  0.5527330000000  0.4083870000000 1.0
C      1  0.5101520000000  0.4578780000000  0.4481060000000 1.0
C      1  0.4506820000000  0.5287300000000  0.4002950000000 1.0
C      1  0.4646920000000  0.5787890000000  0.5852760000000 1.0
C      1  0.4681020000000  0.3535940000000  0.5407230000000 1.0
C      1  0.5619870000000  0.5051630000000  0.6032670000000 1.0
C      1  0.5015510000000  0.4487020000000  0.5663630000000 1.0
C      1  0.4467680000000  0.4015610000000  0.5029410000000 1.0
C      1  0.5400320000000  0.4962940000000  0.5193620000000 1.0
C      1  0.5768410000000  0.4352810000000  0.4692530000000 1.0
C      1  0.5038500000000  0.4771490000000  0.6198250000000 1.0
C      1  0.5792230000000  0.4153040000000  0.4895350000000 1.0
C      1  0.4826920000000  0.3789070000000  0.4587580000000 1.0
C      1  0.4969730000000  0.4802390000000  0.4053100000000 1.0
C      1  0.4708010000000  0.6155300000000  0.5005820000000 1.0
C      1  0.4764630000000  0.4782970000000  0.6116150000000 1.0
C      1  0.5981450000000  0.5842830000000  0.4731110000000 1.0
C      1  0.4326030000000  0.4972320000000  0.6037650000000 1.0
C      1  0.4167850000000  0.5186320000000  0.5629330000000 1.0
C      1  0.5367720000000  0.5237860000000  0.5253260000000 1.0
C      1  0.4946760000000  0.5378440000000  0.6039740000000 1.0
C      1  0.5177540000000  0.4803430000000  0.5122650000000 1.0
C      1  0.4752540000000  0.5289280000000  0.5499910000000 1.0
C      1  0.4879630000000  0.3919880000000  0.4830430000000 1.0
C      1  0.5773720000000  0.5885000000000  0.5184370000000 1.0
C      1  0.4447760000000  0.5473960000000  0.4946000000000 1.0
C      1  0.5424770000000  0.5866420000000  0.5590360000000 1.0
C      1  0.5528870000000  0.5960610000000  0.5325650000000 1.0
C      1  0.5363220000000  0.5162880000000  0.3982150000000 1.0
C      1  0.4030650000000  0.4731620000000  0.5172720000000 1.0
C      1  0.4755720000000  0.4537840000000  0.5511600000000 1.0
C      1  0.6014450000000  0.4991690000000  0.5516130000000 1.0
C      1  0.5058550000000  0.4984950000000  0.4710760000000 1.0
C      1  0.5325960000000  0.4172130000000  0.5708150000000 1.0
C      1  0.5218360000000  0.4526590000000  0.5184870000000 1.0
C      1  0.4119930000000  0.3759190000000  0.4788970000000 1.0
C      1  0.4243940000000  0.4493430000000  0.4802720000000 1.0
C      1  0.3913330000000  0.4844780000000  0.4656820000000 1.0
C      1  0.5539550000000  0.4774710000000  0.6009130000000 1.0
C      1  0.5687360000000  0.5025490000000  0.4443000000000 1.0
C      1  0.5884640000000  0.4994760000000  0.5061960000000 1.0
C      1  0.5163150000000  0.5971110000000  0.5704370000000 1.0
C      1  0.4096160000000  0.5833710000000  0.5003240000000 1.0
C      1  0.5973300000000  0.5518370000000  0.4325570000000 1.0
C      1  0.5412080000000  0.5471850000000  0.4342220000000 1.0
C      1  0.4285400000000  0.5150400000000  0.4087340000000 1.0
C      1  0.4176260000000  0.4598620000000  0.5389280000000 1.0
C      1  0.4699170000000  0.5411300000000  0.5063070000000 1.0
C      1  0.5828690000000  0.5397750000000  0.4091450000000 1.0
C      1  0.5493380000000  0.3969880000000  0.5276210000000 1.0
C      1  0.5205480000000  0.5611130000000  0.4987500000000 1.0
C      1  0.4022090000000  0.5128130000000  0.5392880000000 1.0
C      1  0.4988700000000  0.6024010000000  0.4323990000000 1.0
C      1  0.5663830000000  0.5179680000000  0.3966240000000 1.0
C      1  0.3953640000000  0.4491500000000  0.4333440000000 1.0
C      1  0.6038650000000  0.5476120000000  0.5382820000000 1.0
C      1  0.4507570000000  0.4290620000000  0.5145830000000 1.0
C      1  0.5876700000000  0.5170120000000  0.6032190000000 1.0
C      1  0.4452390000000  0.5311280000000  0.4502480000000 1.0
C      1  0.4815620000000  0.3753760000000  0.5293960000000 1.0
C      1  0.4264590000000  0.5683150000000  0.5447110000000 1.0
C      1  0.4667000000000  0.5306460000000  0.6037220000000 1.0
C      1  0.3668050000000  0.5062840000000  0.5062650000000 1.0
C      1  0.3632810000000  0.5347740000000  0.5114880000000 1.0
C      1  0.4230470000000  0.4945550000000  0.5775240000000 1.0
C      1  0.4296380000000  0.5462440000000  0.5663580000000 1.0
C      1  0.6163310000000  0.4580270000000  0.4508040000000 1.0
C      1  0.4967490000000  0.5743090000000  0.4279240000000 1.0
C      1  0.5974080000000  0.5665630000000  0.5184000000000 1.0
C      1  0.4972730000000  0.4384710000000  0.4650580000000 1.0
C      1  0.4289810000000  0.4694980000000  0.5641210000000 1.0
C      1  0.3961910000000  0.5792820000000  0.4757690000000 1.0
C      1  0.4203950000000  0.5445410000000  0.4471760000000 1.0
C      1  0.5437610000000  0.5389820000000  0.5725730000000 1.0
C      1  0.4863080000000  0.6148530000000  0.4549730000000 1.0
C      1  0.4476460000000  0.4277120000000  0.4047490000000 1.0
C      1  0.4682060000000  0.5464010000000  0.4529720000000 1.0
C      1  0.5925530000000  0.5781760000000  0.4452530000000 1.0
C      1  0.4818040000000  0.5159470000000  0.5054880000000 1.0
C      1  0.5049170000000  0.3851080000000  0.5425980000000 1.0
C      1  0.5823820000000  0.5625280000000  0.5841440000000 1.0
C      1  0.4851680000000  0.4290050000000  0.6020430000000 1.0
C      1  0.4710090000000  0.4459360000000  0.4716300000000 1.0
C      1  0.4480600000000  0.5037600000000  0.4591680000000 1.0
C      1  0.5040610000000  0.5707980000000  0.5196650000000 1.0
C      1  0.5359230000000  0.3822530000000  0.4322460000000 1.0
C      1  0.5469420000000  0.5745930000000  0.4351120000000 1.0
C      1  0.5845780000000  0.5226090000000  0.4907130000000 1.0
C      1  0.4575420000000  0.6082300000000  0.4562450000000 1.0
C      1  0.3848750000000  0.4934470000000  0.5259530000000 1.0
C      1  0.3865560000000  0.5495440000000  0.5192400000000 1.0
C      1  0.5356360000000  0.6129570000000  0.5167960000000 1.0
C      1  0.4518050000000  0.5805370000000  0.5287110000000 1.0
C      1  0.4898250000000  0.3702720000000  0.4344870000000 1.0
C      1  0.4764650000000  0.4665380000000  0.3905590000000 1.0
C      1  0.5583230000000  0.5321010000000  0.4825910000000 1.0
C      1  0.6067860000000  0.5321630000000  0.4511530000000 1.0
C      1  0.4535680000000  0.4552820000000  0.5730290000000 1.0
C      1  0.4163160000000  0.4242650000000  0.4687020000000 1.0
C      1  0.5273390000000  0.5326110000000  0.5501900000000 1.0
C      1  0.3988600000000  0.4776090000000  0.4377030000000 1.0
C      1  0.6077010000000  0.5630720000000  0.4907120000000 1.0
C      1  0.5168030000000  0.4721490000000  0.5684510000000 1.0
C      1  0.5867680000000  0.4778760000000  0.5648050000000 1.0
C      1  0.4625570000000  0.5059500000000  0.5442760000000 1.0
C      1  0.5414780000000  0.5239270000000  0.5972890000000 1.0
C      1  0.4547370000000  0.3336260000000  0.5508130000000 1.0
C      1  0.5552670000000  0.4039340000000  0.5008420000000 1.0
C      1  0.5407040000000  0.3938740000000  0.4558180000000 1.0
C      1  0.5438690000000  0.4467570000000  0.5357460000000 1.0
C      1  0.5648610000000  0.4861820000000  0.5122110000000 1.0
C      1  0.4249290000000  0.4002840000000  0.4834260000000 1.0
C      1  0.5799110000000  0.4935990000000  0.3896170000000 1.0
C      1  0.4389370000000  0.5780960000000  0.4980970000000 1.0
C      1  0.4936110000000  0.5807520000000  0.5794100000000 1.0
C      1  0.4912420000000  0.5613260000000  0.4528850000000 1.0
C      1  0.4505140000000  0.4463140000000  0.4900180000000 1.0
C      1  0.4398360000000  0.6106300000000  0.4358280000000 1.0
C      1  0.5141090000000  0.6244930000000  0.5734580000000 1.0
C      1  0.5135620000000  0.3714850000000  0.4218770000000 1.0
C      1  0.5767820000000  0.4589000000000  0.4250060000000 1.0
C      1  0.5064520000000  0.4165280000000  0.4852740000000 1.0
C      1  0.5095860000000  0.5641360000000  0.4733910000000 1.0
C      1  0.4683050000000  0.4877760000000  0.4459800000000 1.0
C      1  0.4669430000000  0.4528120000000  0.5993560000000 1.0
C      1  0.5232650000000  0.5109290000000  0.4562310000000 1.0
C      1  0.5956870000000  0.5368750000000  0.5844810000000 1.0
C      1  0.5045590000000  0.4918280000000  0.5553570000000 1.0
C      1  0.6093920000000  0.4942910000000  0.5244360000000 1.0
C      1  0.4769470000000  0.4356820000000  0.5270810000000 1.0
C      1  0.5191440000000  0.6206950000000  0.4969220000000 1.0
C      1  0.4926230000000  0.4765480000000  0.4336190000000 1.0
C      1  0.5509040000000  0.4407480000000  0.5634850000000 1.0
C      1  0.4297810000000  0.4170090000000  0.4219270000000 1.0
C      1  0.5979850000000  0.5056440000000  0.4455790000000 1.0
C      1  0.5517270000000  0.4485540000000  0.4715740000000 1.0
C      1  0.5184680000000  0.5268000000000  0.6136760000000 1.0
C      1  0.4108700000000  0.4263920000000  0.4407530000000 1.0
C      1  0.4752610000000  0.5403920000000  0.3990560000000 1.0
C      1  0.4009950000000  0.3527680000000  0.4741910000000 1.0
C      1  0.4632150000000  0.6087280000000  0.5273340000000 1.0
C      1  0.5299520000000  0.4714550000000  0.6152190000000 1.0
C      1  0.5574450000000  0.4768820000000  0.4370350000000 1.0
C      1  0.4788970000000  0.4837140000000  0.5453180000000 1.0
C      1  0.5918450000000  0.4445890000000  0.4460860000000 1.0
C      1  0.3691170000000  0.4968070000000  0.4791270000000 1.0
C      1  0.4018090000000  0.5728270000000  0.5264420000000 1.0
C      1  0.5246310000000  0.5384970000000  0.4117600000000 1.0
C      1  0.4278250000000  0.4346910000000  0.5319120000000 1.0
C      1  0.5493500000000  0.5249300000000  0.4541310000000 1.0
C      1  0.4942670000000  0.6202900000000  0.4835520000000 1.0
C      1  0.4513920000000  0.4541430000000  0.3954300000000 1.0
C      1  0.4022380000000  0.5624800000000  0.4555020000000 1.0
C      1  0.5339720000000  0.4040730000000  0.4813830000000 1.0
C      1  0.4265720000000  0.5255690000000  0.4973060000000 1.0
C      1  0.4984910000000  0.4950680000000  0.4973240000000 1.0
C      1  0.4320340000000  0.5002540000000  0.4833880000000 1.0
C      1  0.5687950000000  0.5899970000000  0.4357660000000 1.0
C      1  0.5377770000000  0.4628520000000  0.4518440000000 1.0
C      1  0.4522400000000  0.6005580000000  0.4830270000000 1.0
C      1  0.5020950000000  0.4328480000000  0.5122760000000 1.0
C      1  0.5563870000000  0.5648580000000  0.5726840000000 1.0
C      1  0.6026540000000  0.5273800000000  0.5584700000000 1.0
C      1  0.4286330000000  0.4704030000000  0.3990420000000 1.0
C      1  0.5261550000000  0.4811310000000  0.3670660000000 1.0
C      1  0.4504010000000  0.5517470000000  0.5876480000000 1.0
C      1  0.6581950000000  0.4775840000000  0.5092520000000 1.0
C      1  0.4709840000000  0.3865940000000  0.5051320000000 1.0
C      1  0.6168820000000  0.4849160000000  0.4484500000000 1.0
C      1  0.6056070000000  0.5375630000000  0.4791270000000 1.0
C      1  0.6346400000000  0.4854240000000  0.5171720000000 1.0
C      1  0.4125880000000  0.4761360000000  0.4867420000000 1.0
C      1  0.5197200000000  0.4929480000000  0.3914080000000 1.0
C      1  0.4598230000000  0.5027180000000  0.6094700000000 1.0
C      1  0.5001860000000  0.5534550000000  0.5809930000000 1.0
C      1  0.5821350000000  0.6005630000000  0.4914390000000 1.0
C      1  0.4772060000000  0.5634250000000  0.5230240000000 1.0
C      1  0.5400970000000  0.5411410000000  0.5028360000000 1.0
C      1  0.4162190000000  0.4898760000000  0.4162890000000 1.0
C      1  0.5651010000000  0.4629900000000  0.5777770000000 1.0
C      1  0.5846000000000  0.4686880000000  0.3995480000000 1.0
C      1  0.5299920000000  0.3973930000000  0.5488260000000 1.0
C      1  0.5005400000000  0.5386780000000  0.5571040000000 1.0
C      1  0.4079450000000  0.5297490000000  0.5174650000000 1.0
END
