TITL C-627111-6168-532 1.31054069101531e-05 125000 -555.810659485614 0 0 92 (C1) n - 1
REM
REM in /home/nfs/bkarasulu/CARBON/AIRSS/Generating-Clusters/LCBOP/Only-C1/SD-CG/FIRE-CG
REM
REM
REM
REM
REM
REM ./C.cell (11c1c37f851c82e70ff6c80c92926a4b)
REM AIRSS Version 0.9.1 bugfix July 2018 build 013d7b7c2542+ Fri, 06 Jul 2018 19:26:36 +0100
REM compiler GCC version 9.2.1 20190827 (Red Hat 9.2.1-1)
REM options -cpp -mtune=generic -march=x86-64 -g -O0 -fpre-include=/usr/include/finclude/math-vector-fortran.h
REM seed 1850987371 1683598394 878015015 -1593563833 -1097340950 1232803177 1145316630 -1086297430 -1825465724 -1411716131 -1690397205 1940618735 -151206672 -179943983 789949490 -538427182 -1156759399 1290185844 -1987675643 922492305 1739691803 -729816369 -1454690917 1254690308 -189479536 1121210983 -1844844304 -145445855 -1351313865 -954978200 -936445584 -977977958 118698278
REM
CELL 1.54180   50.00000   50.00000   50.00000   90.00000   90.00000   90.00000
LATT -1
SFAC C  
C      1  0.5201500000000  0.4708720000000  0.5768990000000 1.0
C      1  0.5585920000000  0.5176410000000  0.5210360000000 1.0
C      1  0.5243720000000  0.5968700000000  0.5278580000000 1.0
C      1  0.5652410000000  0.4452070000000  0.4942530000000 1.0
C      1  0.4248820000000  0.4874210000000  0.4653400000000 1.0
C      1  0.5618010000000  0.4924620000000  0.5613420000000 1.0
C      1  0.4892450000000  0.5929120000000  0.4682750000000 1.0
C      1  0.5809560000000  0.5301670000000  0.4802990000000 1.0
C      1  0.5185880000000  0.4793910000000  0.4107670000000 1.0
C      1  0.4905120000000  0.5795680000000  0.4927390000000 1.0
C      1  0.5078540000000  0.5099900000000  0.6459260000000 1.0
C      1  0.4125320000000  0.5707060000000  0.5113400000000 1.0
C      1  0.4902970000000  0.5840340000000  0.4431250000000 1.0
C      1  0.4904790000000  0.4682160000000  0.4445360000000 1.0
C      1  0.4897180000000  0.4192970000000  0.4241240000000 1.0
C      1  0.5291300000000  0.4804230000000  0.5268660000000 1.0
C      1  0.5499770000000  0.4372260000000  0.5421850000000 1.0
C      1  0.5066060000000  0.5200510000000  0.5165060000000 1.0
C      1  0.4697640000000  0.4885950000000  0.5408640000000 1.0
C      1  0.5291560000000  0.5589640000000  0.4282980000000 1.0
C      1  0.4869500000000  0.5100650000000  0.5347960000000 1.0
C      1  0.5701320000000  0.5412960000000  0.4563470000000 1.0
C      1  0.4908070000000  0.3952480000000  0.4130440000000 1.0
C      1  0.5745420000000  0.4992040000000  0.5367840000000 1.0
C      1  0.5000900000000  0.5603640000000  0.4317880000000 1.0
C      1  0.5165300000000  0.4837430000000  0.6012260000000 1.0
C      1  0.4753570000000  0.4595100000000  0.5391020000000 1.0
C      1  0.4586920000000  0.5276750000000  0.4416620000000 1.0
C      1  0.5532340000000  0.5896550000000  0.3910100000000 1.0
C      1  0.5683560000000  0.4501920000000  0.5235380000000 1.0
C      1  0.4466030000000  0.4877360000000  0.4201820000000 1.0
C      1  0.5443150000000  0.5408850000000  0.4445550000000 1.0
C      1  0.4941280000000  0.4926270000000  0.4033990000000 1.0
C      1  0.5961520000000  0.5062100000000  0.4826210000000 1.0
C      1  0.4928000000000  0.5205580000000  0.4068020000000 1.0
C      1  0.4906360000000  0.6105720000000  0.5593220000000 1.0
C      1  0.5386930000000  0.4599030000000  0.4558090000000 1.0
C      1  0.4391130000000  0.4366430000000  0.4587340000000 1.0
C      1  0.4217520000000  0.4960140000000  0.5421540000000 1.0
C      1  0.5478860000000  0.5853360000000  0.5189410000000 1.0
C      1  0.5189230000000  0.6097100000000  0.5531820000000 1.0
C      1  0.4981250000000  0.5917130000000  0.5167470000000 1.0
C      1  0.4677810000000  0.4814060000000  0.4042190000000 1.0
C      1  0.5401490000000  0.4540320000000  0.4838740000000 1.0
C      1  0.4254050000000  0.4595910000000  0.4570140000000 1.0
C      1  0.5119630000000  0.4968430000000  0.6237940000000 1.0
C      1  0.4452900000000  0.4883070000000  0.5574920000000 1.0
C      1  0.4547960000000  0.5476070000000  0.5042200000000 1.0
C      1  0.5960240000000  0.4809840000000  0.4954240000000 1.0
C      1  0.4918160000000  0.3715630000000  0.4021980000000 1.0
C      1  0.4128300000000  0.4896620000000  0.4933470000000 1.0
C      1  0.4630460000000  0.4997660000000  0.4961230000000 1.0
C      1  0.4988510000000  0.5305870000000  0.4910610000000 1.0
C      1  0.5179120000000  0.4014480000000  0.5536240000000 1.0
C      1  0.4778440000000  0.5978410000000  0.5367640000000 1.0
C      1  0.5362420000000  0.4805460000000  0.5559020000000 1.0
C      1  0.3999420000000  0.4776290000000  0.5377970000000 1.0
C      1  0.4883280000000  0.4432050000000  0.4355000000000 1.0
C      1  0.4392980000000  0.5682990000000  0.5163210000000 1.0
C      1  0.4775950000000  0.4509810000000  0.5667520000000 1.0
C      1  0.5884080000000  0.4568400000000  0.4815660000000 1.0
C      1  0.5843190000000  0.5005210000000  0.6094710000000 1.0
C      1  0.4929100000000  0.4889980000000  0.4630810000000 1.0
C      1  0.5249270000000  0.4285530000000  0.5554320000000 1.0
C      1  0.5099280000000  0.3767940000000  0.5508820000000 1.0
C      1  0.5066560000000  0.4466920000000  0.5701730000000 1.0
C      1  0.4551550000000  0.4240750000000  0.4763820000000 1.0
C      1  0.4526200000000  0.5867230000000  0.5329520000000 1.0
C      1  0.5416490000000  0.5748000000000  0.4090160000000 1.0
C      1  0.4559330000000  0.4282580000000  0.5044070000000 1.0
C      1  0.4299770000000  0.4272420000000  0.5155650000000 1.0
C      1  0.4075330000000  0.4407200000000  0.5090030000000 1.0
C      1  0.4235530000000  0.5082140000000  0.5145840000000 1.0
C      1  0.5056820000000  0.5141920000000  0.4677560000000 1.0
C      1  0.5318130000000  0.5082840000000  0.5189310000000 1.0
C      1  0.4789450000000  0.6210940000000  0.5813670000000 1.0
C      1  0.4808200000000  0.4811260000000  0.4868110000000 1.0
C      1  0.5343050000000  0.4689530000000  0.4305150000000 1.0
C      1  0.5686940000000  0.5384810000000  0.5048900000000 1.0
C      1  0.4469450000000  0.5207180000000  0.5055430000000 1.0
C      1  0.4763720000000  0.4444680000000  0.5155930000000 1.0
C      1  0.5730870000000  0.4966270000000  0.5862790000000 1.0
C      1  0.5215010000000  0.4627140000000  0.5044480000000 1.0
C      1  0.4540960000000  0.4668160000000  0.5776290000000 1.0
C      1  0.4004700000000  0.4679040000000  0.5103050000000 1.0
C      1  0.5288090000000  0.5197500000000  0.4538430000000 1.0
C      1  0.4937020000000  0.4595350000000  0.4992610000000 1.0
C      1  0.5632650000000  0.5651300000000  0.5111020000000 1.0
C      1  0.4824820000000  0.5378740000000  0.4269100000000 1.0
C      1  0.4809890000000  0.5527770000000  0.4934420000000 1.0
C      1  0.4410230000000  0.5035520000000  0.4444530000000 1.0
C      1  0.5846500000000  0.4764090000000  0.5226570000000 1.0
END
