TITL C-627113-6568-2168 97316.3334578054 125000 -1057.99778917981 0 0 172 (C1) n - 1
REM
REM in /home/nfs/bkarasulu/CARBON/AIRSS/Generating-Clusters/LCBOP/Only-C1/SD-CG/FIRE-CG
REM
REM
REM
REM
REM
REM ./C.cell (11c1c37f851c82e70ff6c80c92926a4b)
REM AIRSS Version 0.9.1 bugfix July 2018 build 013d7b7c2542+ Fri, 06 Jul 2018 19:26:36 +0100
REM compiler GCC version 9.2.1 20190827 (Red Hat 9.2.1-1)
REM options -cpp -mtune=generic -march=x86-64 -g -O0 -fpre-include=/usr/include/finclude/math-vector-fortran.h
REM seed 913532035 -481581060 1793599275 1443980219 498969167 1221610908 1266206773 -1461195311 -637255410 -636659982 -60455547 936668205 1836539334 561100798 934764792 -1287940834 798302002 797417379 1540486935 218625019 -1453337117 310545710 1195716704 1893049789 -1725547361 859643086 332560296 -1887482277 1628622259 -1426827387 1783004786 -198306608 -884316824
REM
CELL 1.54180   50.00000   50.00000   50.00000   90.00000   90.00000   90.00000
LATT -1
SFAC C  
C      1  0.6305680000000  0.5067370000000  0.4862450000000 1.0
C      1  0.5635550000000  0.6051200000000  0.4734480000000 1.0
C      1  0.4977300000000  0.5268540000000  0.4549810000000 1.0
C      1  0.4267380000000  0.4913970000000  0.5636560000000 1.0
C      1  0.4307770000000  0.5388820000000  0.5882760000000 1.0
C      1  0.4750410000000  0.5551680000000  0.5591870000000 1.0
C      1  0.6193080000000  0.5218400000000  0.4649880000000 1.0
C      1  0.5986970000000  0.5685460000000  0.4598560000000 1.0
C      1  0.4662460000000  0.5433020000000  0.4132510000000 1.0
C      1  0.4614280000000  0.4737100000000  0.4491460000000 1.0
C      1  0.5163100000000  0.4643500000000  0.4055080000000 1.0
C      1  0.5491500000000  0.3623840000000  0.5432150000000 1.0
C      1  0.4785760000000  0.5672450000000  0.4060630000000 1.0
C      1  0.5398340000000  0.4571530000000  0.6092790000000 1.0
C      1  0.6056980000000  0.4523460000000  0.5271230000000 1.0
C      1  0.5295330000000  0.5654960000000  0.5589180000000 1.0
C      1  0.4450880000000  0.4925640000000  0.5865060000000 1.0
C      1  0.4831450000000  0.3944960000000  0.5380610000000 1.0
C      1  0.4309070000000  0.4508170000000  0.5347940000000 1.0
C      1  0.3615510000000  0.5445760000000  0.4778210000000 1.0
C      1  0.4916900000000  0.4609050000000  0.4957600000000 1.0
C      1  0.4374870000000  0.5756420000000  0.4622020000000 1.0
C      1  0.5158490000000  0.5021880000000  0.5931800000000 1.0
C      1  0.5127470000000  0.4518780000000  0.6012120000000 1.0
C      1  0.4563710000000  0.4638300000000  0.4204000000000 1.0
C      1  0.4873400000000  0.5776410000000  0.4792280000000 1.0
C      1  0.4094130000000  0.4707210000000  0.4224220000000 1.0
C      1  0.4447990000000  0.4444130000000  0.4907530000000 1.0
C      1  0.5362030000000  0.6156330000000  0.5139190000000 1.0
C      1  0.5174920000000  0.6185310000000  0.4406950000000 1.0
C      1  0.4974300000000  0.4780080000000  0.5961290000000 1.0
C      1  0.5336080000000  0.5406180000000  0.5704730000000 1.0
C      1  0.4700980000000  0.4634820000000  0.5589220000000 1.0
C      1  0.5170120000000  0.5748270000000  0.5358580000000 1.0
C      1  0.4738690000000  0.5871100000000  0.6250890000000 1.0
C      1  0.5319290000000  0.4603450000000  0.4566010000000 1.0
C      1  0.5085120000000  0.6078250000000  0.4180290000000 1.0
C      1  0.5154690000000  0.4788120000000  0.5456380000000 1.0
C      1  0.5319290000000  0.3798550000000  0.5302600000000 1.0
C      1  0.4740670000000  0.4457570000000  0.4080020000000 1.0
C      1  0.5547350000000  0.4256610000000  0.4065320000000 1.0
C      1  0.5105050000000  0.3914590000000  0.5472340000000 1.0
C      1  0.4800080000000  0.6200780000000  0.5008880000000 1.0
C      1  0.5353350000000  0.5481770000000  0.4873200000000 1.0
C      1  0.5579790000000  0.4512110000000  0.5289800000000 1.0
C      1  0.5948380000000  0.5452360000000  0.5795810000000 1.0
C      1  0.6180150000000  0.4744580000000  0.5185000000000 1.0
C      1  0.5269820000000  0.5226710000000  0.4701580000000 1.0
C      1  0.4030080000000  0.4996430000000  0.4253010000000 1.0
C      1  0.4143070000000  0.5727820000000  0.5555720000000 1.0
C      1  0.5690050000000  0.6113780000000  0.5501500000000 1.0
C      1  0.4467840000000  0.3937520000000  0.4772750000000 1.0
C      1  0.4938660000000  0.5081110000000  0.4344440000000 1.0
C      1  0.5712480000000  0.5716490000000  0.5235960000000 1.0
C      1  0.6001280000000  0.5190730000000  0.5807410000000 1.0
C      1  0.4660550000000  0.5040520000000  0.3908910000000 1.0
C      1  0.4616930000000  0.5973570000000  0.6457320000000 1.0
C      1  0.5560360000000  0.6256660000000  0.5312750000000 1.0
C      1  0.5956680000000  0.5217370000000  0.5161980000000 1.0
C      1  0.4022960000000  0.5017480000000  0.5191330000000 1.0
C      1  0.3915000000000  0.5860790000000  0.4816700000000 1.0
C      1  0.5619590000000  0.4199580000000  0.3808430000000 1.0
C      1  0.3761430000000  0.5651380000000  0.4917690000000 1.0
C      1  0.4916170000000  0.6058770000000  0.4793230000000 1.0
C      1  0.4405390000000  0.5167300000000  0.6006340000000 1.0
C      1  0.4203420000000  0.4564890000000  0.5070810000000 1.0
C      1  0.4233910000000  0.4936170000000  0.4765590000000 1.0
C      1  0.5824670000000  0.4540710000000  0.5430970000000 1.0
C      1  0.5395160000000  0.4059870000000  0.4474210000000 1.0
C      1  0.5598670000000  0.4007520000000  0.4890890000000 1.0
C      1  0.5676660000000  0.4462910000000  0.4218920000000 1.0
C      1  0.5393950000000  0.6137170000000  0.4853410000000 1.0
C      1  0.5728790000000  0.5835130000000  0.5498190000000 1.0
C      1  0.3832440000000  0.5221570000000  0.5128470000000 1.0
C      1  0.5977040000000  0.4929220000000  0.5757780000000 1.0
C      1  0.4803380000000  0.5180010000000  0.4111860000000 1.0
C      1  0.6148970000000  0.5005760000000  0.5095090000000 1.0
C      1  0.4771780000000  0.4272650000000  0.4522170000000 1.0
C      1  0.5434200000000  0.4959250000000  0.5809820000000 1.0
C      1  0.5086020000000  0.5618090000000  0.4913820000000 1.0
C      1  0.4938530000000  0.5889130000000  0.4063850000000 1.0
C      1  0.6097790000000  0.5468110000000  0.4738440000000 1.0
C      1  0.4407770000000  0.4234110000000  0.5411840000000 1.0
C      1  0.6082970000000  0.5009150000000  0.4208000000000 1.0
C      1  0.4752860000000  0.5544610000000  0.5308650000000 1.0
C      1  0.4483520000000  0.4978960000000  0.4642790000000 1.0
C      1  0.5162590000000  0.6152180000000  0.4684320000000 1.0
C      1  0.4575380000000  0.5990840000000  0.5661440000000 1.0
C      1  0.5529980000000  0.5061350000000  0.4523680000000 1.0
C      1  0.4660400000000  0.5207270000000  0.4719810000000 1.0
C      1  0.5234320000000  0.4612390000000  0.4312650000000 1.0
C      1  0.5219380000000  0.4261520000000  0.5110440000000 1.0
C      1  0.5622880000000  0.4158770000000  0.4629230000000 1.0
C      1  0.5872650000000  0.4704130000000  0.5655370000000 1.0
C      1  0.4983930000000  0.4202390000000  0.4692320000000 1.0
C      1  0.5551080000000  0.5490350000000  0.5121940000000 1.0
C      1  0.4772900000000  0.5288630000000  0.5678850000000 1.0
C      1  0.4781670000000  0.5078810000000  0.5523840000000 1.0
C      1  0.5818600000000  0.5893580000000  0.4619050000000 1.0
C      1  0.5832850000000  0.4653130000000  0.4632070000000 1.0
C      1  0.5333800000000  0.4376040000000  0.5339020000000 1.0
C      1  0.4382160000000  0.5412510000000  0.4206990000000 1.0
C      1  0.4106990000000  0.3871970000000  0.5260500000000 1.0
C      1  0.4890110000000  0.6153040000000  0.5272650000000 1.0
C      1  0.4703150000000  0.3789630000000  0.5183940000000 1.0
C      1  0.4270220000000  0.5482700000000  0.5617670000000 1.0
C      1  0.4113220000000  0.4826660000000  0.4996370000000 1.0
C      1  0.4163790000000  0.4201450000000  0.4418710000000 1.0
C      1  0.4207820000000  0.5066910000000  0.5401320000000 1.0
C      1  0.5797310000000  0.4943810000000  0.4599560000000 1.0
C      1  0.5341210000000  0.4113200000000  0.4201970000000 1.0
C      1  0.5098640000000  0.4247710000000  0.5909750000000 1.0
C      1  0.6047540000000  0.5464960000000  0.5019830000000 1.0
C      1  0.4293220000000  0.4064010000000  0.5213960000000 1.0
C      1  0.5061620000000  0.4104770000000  0.4143660000000 1.0
C      1  0.5038270000000  0.4354990000000  0.4921640000000 1.0
C      1  0.4868020000000  0.4411220000000  0.5541650000000 1.0
C      1  0.5168290000000  0.3999100000000  0.4629610000000 1.0
C      1  0.4828040000000  0.5725470000000  0.6031170000000 1.0
C      1  0.5746430000000  0.4406360000000  0.4504650000000 1.0
C      1  0.5551670000000  0.4756950000000  0.5968550000000 1.0
C      1  0.4336250000000  0.5321340000000  0.5383480000000 1.0
C      1  0.5843840000000  0.5680090000000  0.5702650000000 1.0
C      1  0.4304590000000  0.5606460000000  0.4392750000000 1.0
C      1  0.5148670000000  0.4043510000000  0.5732230000000 1.0
C      1  0.5168300000000  0.3784070000000  0.4814470000000 1.0
C      1  0.5126880000000  0.5183620000000  0.5172260000000 1.0
C      1  0.5133630000000  0.4509400000000  0.5483690000000 1.0
C      1  0.4166280000000  0.5906380000000  0.4735490000000 1.0
C      1  0.5431060000000  0.4641760000000  0.4806590000000 1.0
C      1  0.5565370000000  0.4641630000000  0.5037640000000 1.0
C      1  0.3652570000000  0.5199920000000  0.4899620000000 1.0
C      1  0.4064720000000  0.4447150000000  0.4344850000000 1.0
C      1  0.5507770000000  0.4956060000000  0.4251260000000 1.0
C      1  0.4898740000000  0.4839210000000  0.4511610000000 1.0
C      1  0.4917950000000  0.3650390000000  0.4804960000000 1.0
C      1  0.4295760000000  0.5955480000000  0.5622220000000 1.0
C      1  0.4701480000000  0.4775060000000  0.5838260000000 1.0
C      1  0.4338350000000  0.4728600000000  0.4068420000000 1.0
C      1  0.4698760000000  0.4184700000000  0.5468970000000 1.0
C      1  0.4232200000000  0.5178580000000  0.4125900000000 1.0
C      1  0.5010180000000  0.5508850000000  0.6061560000000 1.0
C      1  0.4826630000000  0.4238960000000  0.4239740000000 1.0
C      1  0.5673800000000  0.5250910000000  0.5278380000000 1.0
C      1  0.4604000000000  0.5671600000000  0.4771360000000 1.0
C      1  0.4531220000000  0.5414660000000  0.5182240000000 1.0
C      1  0.5972270000000  0.5710780000000  0.5125400000000 1.0
C      1  0.5025110000000  0.5529320000000  0.5195600000000 1.0
C      1  0.4569580000000  0.5411230000000  0.4894700000000 1.0
C      1  0.4558520000000  0.4664510000000  0.5346790000000 1.0
C      1  0.4385390000000  0.4987980000000  0.3955900000000 1.0
C      1  0.6028950000000  0.5072010000000  0.4477300000000 1.0
C      1  0.5932180000000  0.4850630000000  0.4048580000000 1.0
C      1  0.5148860000000  0.5049850000000  0.4922020000000 1.0
C      1  0.4582380000000  0.4469190000000  0.4632580000000 1.0
C      1  0.5681980000000  0.4746330000000  0.4134690000000 1.0
C      1  0.4939500000000  0.4562580000000  0.3906220000000 1.0
C      1  0.4667760000000  0.4600760000000  0.5081510000000 1.0
C      1  0.4315780000000  0.3999860000000  0.4530910000000 1.0
C      1  0.4722660000000  0.6163850000000  0.5495990000000 1.0
C      1  0.4393580000000  0.4144400000000  0.4958670000000 1.0
C      1  0.4670660000000  0.3760770000000  0.4897610000000 1.0
C      1  0.4921080000000  0.4569290000000  0.3635380000000 1.0
C      1  0.4720560000000  0.5768450000000  0.5769640000000 1.0
C      1  0.5164340000000  0.5315410000000  0.5927010000000 1.0
C      1  0.4995080000000  0.4833870000000  0.4800810000000 1.0
C      1  0.3928630000000  0.5689060000000  0.5379050000000 1.0
C      1  0.3847400000000  0.5520750000000  0.5168540000000 1.0
C      1  0.5457790000000  0.5161060000000  0.5553840000000 1.0
C      1  0.5233160000000  0.5046810000000  0.5387450000000 1.0
C      1  0.5145640000000  0.6022210000000  0.5276050000000 1.0
C      1  0.5375120000000  0.3839920000000  0.5015040000000 1.0
END
