TITL C-627107-135-1142 93175.355096714 125000 -1073.18890930404 0 0 175 (C1) n - 1
REM
REM in /home/nfs/bkarasulu/CARBON/AIRSS/Generating-Clusters/LCBOP/Only-C1/SD-CG/FIRE-CG
REM
REM
REM
REM
REM
REM ./C.cell (11c1c37f851c82e70ff6c80c92926a4b)
REM AIRSS Version 0.9.1 bugfix July 2018 build 013d7b7c2542+ Fri, 06 Jul 2018 19:26:36 +0100
REM compiler GCC version 9.2.1 20190827 (Red Hat 9.2.1-1)
REM options -cpp -mtune=generic -march=x86-64 -g -O0 -fpre-include=/usr/include/finclude/math-vector-fortran.h
REM seed -400753064 1337494285 1263511692 -375201239 1308314067 -1086506105 -1434367307 -614870141 -761450770 -321532511 684223477 -1720160574 305504669 -1947884527 410299926 -1748683157 831022691 721140667 1827115367 -994044571 1438608271 -1512108425 1629992480 1362940135 -1751652731 552589616 -1345881240 1352097387 -410801444 -396241787 1563966211 302461849 -1535988551
REM
CELL 1.54180   50.00000   50.00000   50.00000   90.00000   90.00000   90.00000
LATT -1
SFAC C  
C      1  0.4908350000000  0.4736920000000  0.5677230000000 1.0
C      1  0.5871930000000  0.5147000000000  0.4826320000000 1.0
C      1  0.3943810000000  0.4543030000000  0.5517450000000 1.0
C      1  0.4448470000000  0.5923010000000  0.4715200000000 1.0
C      1  0.5096870000000  0.6183790000000  0.5461790000000 1.0
C      1  0.4677710000000  0.4333580000000  0.4454580000000 1.0
C      1  0.4578830000000  0.5204770000000  0.3978380000000 1.0
C      1  0.5267880000000  0.4523690000000  0.5208850000000 1.0
C      1  0.5630870000000  0.4821560000000  0.4189490000000 1.0
C      1  0.5479880000000  0.5581110000000  0.5781260000000 1.0
C      1  0.3898990000000  0.4654190000000  0.5001340000000 1.0
C      1  0.5295660000000  0.6166170000000  0.5662190000000 1.0
C      1  0.5654200000000  0.5807910000000  0.4577020000000 1.0
C      1  0.4484690000000  0.5213590000000  0.4842310000000 1.0
C      1  0.5027140000000  0.5475770000000  0.3919610000000 1.0
C      1  0.4714190000000  0.5881170000000  0.5843660000000 1.0
C      1  0.4222220000000  0.4918220000000  0.5596180000000 1.0
C      1  0.4575190000000  0.5861340000000  0.5366490000000 1.0
C      1  0.4681440000000  0.5107320000000  0.5490630000000 1.0
C      1  0.5051140000000  0.4944310000000  0.4851110000000 1.0
C      1  0.5880640000000  0.4880090000000  0.5377500000000 1.0
C      1  0.4946790000000  0.6161830000000  0.4542380000000 1.0
C      1  0.4441560000000  0.4526070000000  0.5834220000000 1.0
C      1  0.3936760000000  0.4880770000000  0.5168090000000 1.0
C      1  0.4158530000000  0.5600810000000  0.4492850000000 1.0
C      1  0.5791750000000  0.5254310000000  0.4555990000000 1.0
C      1  0.5607500000000  0.4872600000000  0.5918040000000 1.0
C      1  0.4151430000000  0.4245450000000  0.4873000000000 1.0
C      1  0.5226810000000  0.4303760000000  0.4145050000000 1.0
C      1  0.4749500000000  0.5443070000000  0.3987410000000 1.0
C      1  0.6012470000000  0.4163610000000  0.4657810000000 1.0
C      1  0.4990060000000  0.5268810000000  0.5225240000000 1.0
C      1  0.5366700000000  0.5583780000000  0.4207680000000 1.0
C      1  0.4947100000000  0.3683900000000  0.4418090000000 1.0
C      1  0.5767840000000  0.4715570000000  0.5166170000000 1.0
C      1  0.5072870000000  0.4743330000000  0.5232230000000 1.0
C      1  0.5222900000000  0.6111070000000  0.5931450000000 1.0
C      1  0.4684960000000  0.4442370000000  0.4005070000000 1.0
C      1  0.3931330000000  0.5152480000000  0.5066330000000 1.0
C      1  0.5062520000000  0.5979380000000  0.5265960000000 1.0
C      1  0.4326040000000  0.3955980000000  0.5254420000000 1.0
C      1  0.4732190000000  0.5343810000000  0.4780630000000 1.0
C      1  0.4127390000000  0.5540110000000  0.4784640000000 1.0
C      1  0.4723320000000  0.4738790000000  0.5220180000000 1.0
C      1  0.5028710000000  0.3759320000000  0.4959610000000 1.0
C      1  0.6345390000000  0.4602800000000  0.4192810000000 1.0
C      1  0.4397020000000  0.4749040000000  0.4220960000000 1.0
C      1  0.5151200000000  0.4890250000000  0.5666180000000 1.0
C      1  0.4719300000000  0.3821860000000  0.4338840000000 1.0
C      1  0.4899340000000  0.5733160000000  0.5998210000000 1.0
C      1  0.3894830000000  0.5337730000000  0.5282020000000 1.0
C      1  0.4016570000000  0.5251580000000  0.4800030000000 1.0
C      1  0.5861960000000  0.5324240000000  0.5489330000000 1.0
C      1  0.4503490000000  0.4252110000000  0.5620530000000 1.0
C      1  0.5088400000000  0.5233510000000  0.4313240000000 1.0
C      1  0.6517380000000  0.4470400000000  0.4349280000000 1.0
C      1  0.6278560000000  0.4172080000000  0.4661230000000 1.0
C      1  0.4900810000000  0.5435810000000  0.6021960000000 1.0
C      1  0.5145120000000  0.5231850000000  0.4023580000000 1.0
C      1  0.4155800000000  0.4831440000000  0.4397080000000 1.0
C      1  0.5177190000000  0.4259430000000  0.5141600000000 1.0
C      1  0.4430840000000  0.4725960000000  0.5630150000000 1.0
C      1  0.5854390000000  0.4721880000000  0.5831510000000 1.0
C      1  0.4865540000000  0.5073580000000  0.4384150000000 1.0
C      1  0.5173230000000  0.5325700000000  0.6045970000000 1.0
C      1  0.5152570000000  0.4690360000000  0.4440600000000 1.0
C      1  0.4533270000000  0.4490250000000  0.4252270000000 1.0
C      1  0.4596940000000  0.4976810000000  0.6057160000000 1.0
C      1  0.5289700000000  0.5702600000000  0.4907990000000 1.0
C      1  0.5381940000000  0.4480010000000  0.5755490000000 1.0
C      1  0.5907950000000  0.5196870000000  0.5748230000000 1.0
C      1  0.4731560000000  0.5526680000000  0.4550780000000 1.0
C      1  0.5755700000000  0.4247840000000  0.4582420000000 1.0
C      1  0.4923440000000  0.4363390000000  0.6250000000000 1.0
C      1  0.4621410000000  0.5393570000000  0.5508830000000 1.0
C      1  0.4857940000000  0.5785760000000  0.5315980000000 1.0
C      1  0.5078650000000  0.4116180000000  0.4309850000000 1.0
C      1  0.5475270000000  0.5540770000000  0.5288110000000 1.0
C      1  0.5547870000000  0.4225170000000  0.4775260000000 1.0
C      1  0.5815030000000  0.4601000000000  0.4217130000000 1.0
C      1  0.5190950000000  0.6078870000000  0.4390860000000 1.0
C      1  0.4783180000000  0.4101680000000  0.4328590000000 1.0
C      1  0.5117350000000  0.5902300000000  0.6069280000000 1.0
C      1  0.4878010000000  0.5497890000000  0.5367480000000 1.0
C      1  0.5569090000000  0.5966240000000  0.5282920000000 1.0
C      1  0.4962820000000  0.4118020000000  0.5295750000000 1.0
C      1  0.5831070000000  0.4454620000000  0.5730990000000 1.0
C      1  0.4585540000000  0.5126650000000  0.4413370000000 1.0
C      1  0.4927860000000  0.5199310000000  0.4946700000000 1.0
C      1  0.4067180000000  0.5116830000000  0.4511830000000 1.0
C      1  0.5618760000000  0.5829960000000  0.5763660000000 1.0
C      1  0.5306380000000  0.5929190000000  0.5108720000000 1.0
C      1  0.5183790000000  0.3912210000000  0.4777310000000 1.0
C      1  0.5310010000000  0.4138000000000  0.4902390000000 1.0
C      1  0.5325090000000  0.5008930000000  0.4829820000000 1.0
C      1  0.5762310000000  0.4861320000000  0.4897290000000 1.0
C      1  0.4288110000000  0.4022990000000  0.4979670000000 1.0
C      1  0.4413090000000  0.5248500000000  0.4220630000000 1.0
C      1  0.4866810000000  0.4656760000000  0.3955490000000 1.0
C      1  0.6488860000000  0.4290210000000  0.4545690000000 1.0
C      1  0.4027870000000  0.4609370000000  0.4537390000000 1.0
C      1  0.5505870000000  0.4247970000000  0.4157010000000 1.0
C      1  0.5157160000000  0.5649020000000  0.4661920000000 1.0
C      1  0.5966100000000  0.5349130000000  0.5018630000000 1.0
C      1  0.4401100000000  0.5707780000000  0.5188980000000 1.0
C      1  0.4332910000000  0.5664830000000  0.5764890000000 1.0
C      1  0.5394410000000  0.4654360000000  0.4556520000000 1.0
C      1  0.4645240000000  0.5264810000000  0.5979320000000 1.0
C      1  0.5712530000000  0.4352690000000  0.4316550000000 1.0
C      1  0.5181590000000  0.5707630000000  0.4022730000000 1.0
C      1  0.4066140000000  0.4346650000000  0.5356870000000 1.0
C      1  0.4373120000000  0.3700920000000  0.5339040000000 1.0
C      1  0.5378830000000  0.4787540000000  0.4028220000000 1.0
C      1  0.4627720000000  0.4914380000000  0.3991690000000 1.0
C      1  0.5152320000000  0.3881870000000  0.4493710000000 1.0
C      1  0.4000440000000  0.4813560000000  0.5445840000000 1.0
C      1  0.5178980000000  0.5000790000000  0.5382230000000 1.0
C      1  0.4712100000000  0.4525260000000  0.6242560000000 1.0
C      1  0.4507980000000  0.5863860000000  0.5651950000000 1.0
C      1  0.4844620000000  0.4410920000000  0.4685340000000 1.0
C      1  0.5982920000000  0.4910590000000  0.5655390000000 1.0
C      1  0.4438500000000  0.5382120000000  0.5763350000000 1.0
C      1  0.6084330000000  0.4634520000000  0.4150290000000 1.0
C      1  0.4362090000000  0.5975290000000  0.4234730000000 1.0
C      1  0.4143540000000  0.4357100000000  0.4610390000000 1.0
C      1  0.4021930000000  0.4402790000000  0.5076100000000 1.0
C      1  0.4483690000000  0.5010040000000  0.4651870000000 1.0
C      1  0.5140280000000  0.4265810000000  0.6131490000000 1.0
C      1  0.4204960000000  0.5197400000000  0.5671080000000 1.0
C      1  0.4612490000000  0.4774540000000  0.4711130000000 1.0
C      1  0.4587900000000  0.4650580000000  0.4966010000000 1.0
C      1  0.3832570000000  0.4684600000000  0.4729330000000 1.0
C      1  0.4929390000000  0.3852550000000  0.5193660000000 1.0
C      1  0.4601530000000  0.5007230000000  0.5240120000000 1.0
C      1  0.5552000000000  0.4541580000000  0.5285160000000 1.0
C      1  0.4582530000000  0.5862240000000  0.4132300000000 1.0
C      1  0.5750360000000  0.5541030000000  0.4476810000000 1.0
C      1  0.5294550000000  0.5030650000000  0.3907320000000 1.0
C      1  0.5706500000000  0.5057190000000  0.4349300000000 1.0
C      1  0.5406340000000  0.5196000000000  0.5013740000000 1.0
C      1  0.4992960000000  0.4597650000000  0.4831110000000 1.0
C      1  0.5597180000000  0.4442100000000  0.5554560000000 1.0
C      1  0.4284180000000  0.4175880000000  0.5438210000000 1.0
C      1  0.4683050000000  0.5611780000000  0.4212120000000 1.0
C      1  0.5360990000000  0.4281290000000  0.5963110000000 1.0
C      1  0.5140710000000  0.5974020000000  0.4121470000000 1.0
C      1  0.4900490000000  0.4809930000000  0.4465250000000 1.0
C      1  0.5454520000000  0.5997100000000  0.4510840000000 1.0
C      1  0.4557300000000  0.4678140000000  0.6063660000000 1.0
C      1  0.5443040000000  0.5081800000000  0.5275180000000 1.0
C      1  0.3989140000000  0.5335670000000  0.5536850000000 1.0
C      1  0.4772770000000  0.4197910000000  0.5505140000000 1.0
C      1  0.5158760000000  0.4577140000000  0.4022430000000 1.0
C      1  0.5355900000000  0.5521570000000  0.5535710000000 1.0
C      1  0.4175540000000  0.5347940000000  0.4345620000000 1.0
C      1  0.5607010000000  0.4147650000000  0.6018180000000 1.0
C      1  0.5701570000000  0.5109980000000  0.5367910000000 1.0
C      1  0.4746090000000  0.5982320000000  0.4665670000000 1.0
C      1  0.5451640000000  0.5360340000000  0.5960690000000 1.0
C      1  0.5384980000000  0.5468850000000  0.5034680000000 1.0
C      1  0.4687320000000  0.4675360000000  0.5507680000000 1.0
C      1  0.5842070000000  0.4233930000000  0.5909430000000 1.0
C      1  0.5661050000000  0.5160760000000  0.5925280000000 1.0
C      1  0.5361750000000  0.4764850000000  0.5813220000000 1.0
C      1  0.4422850000000  0.5434110000000  0.5271350000000 1.0
C      1  0.4313000000000  0.5744780000000  0.4921570000000 1.0
C      1  0.5514120000000  0.4816540000000  0.4750080000000 1.0
C      1  0.4438710000000  0.5195560000000  0.5111240000000 1.0
C      1  0.5710250000000  0.5708890000000  0.5262420000000 1.0
C      1  0.5916690000000  0.5503970000000  0.5265560000000 1.0
C      1  0.5223230000000  0.5466530000000  0.4438280000000 1.0
C      1  0.4889220000000  0.5734610000000  0.4648590000000 1.0
C      1  0.5536180000000  0.6035350000000  0.5572520000000 1.0
C      1  0.5643630000000  0.5550640000000  0.4207960000000 1.0
C      1  0.4277740000000  0.5866200000000  0.4477170000000 1.0
END
