TITL C-627112-676-441 24088.4902104323 125000 -858.437008706291 0 0 141 (C1) n - 1
REM
REM in /home/nfs/bkarasulu/CARBON/AIRSS/Generating-Clusters/LCBOP/Only-C1/SD-CG/FIRE-CG
REM
REM
REM
REM
REM
REM ./C.cell (11c1c37f851c82e70ff6c80c92926a4b)
REM AIRSS Version 0.9.1 bugfix July 2018 build 013d7b7c2542+ Fri, 06 Jul 2018 19:26:36 +0100
REM compiler GCC version 9.2.1 20190827 (Red Hat 9.2.1-1)
REM options -cpp -mtune=generic -march=x86-64 -g -O0 -fpre-include=/usr/include/finclude/math-vector-fortran.h
REM seed 938667735 1631140369 -1334199008 1323249285 614003369 -619943188 1425957834 1524161401 -2078426220 235887180 -229025629 1956315306 863522739 1531537353 -304553719 -588214784 -1816036444 878780777 -621108228 -997726536 1854212703 -17071698 618268141 541832260 -1895158928 1990945545 22066533 -1242342441 1974272097 -1941066066 -2138751476 -1118969848 -1595968786
REM
CELL 1.54180   50.00000   50.00000   50.00000   90.00000   90.00000   90.00000
LATT -1
SFAC C  
C      1  0.5873470000000  0.5142110000000  0.5208870000000 1.0
C      1  0.5770010000000  0.4285060000000  0.5205210000000 1.0
C      1  0.4190720000000  0.5793450000000  0.4438230000000 1.0
C      1  0.4257150000000  0.5147270000000  0.5180520000000 1.0
C      1  0.6074850000000  0.4519080000000  0.4521350000000 1.0
C      1  0.4778110000000  0.5493950000000  0.5159880000000 1.0
C      1  0.5381580000000  0.4913340000000  0.4028330000000 1.0
C      1  0.5472350000000  0.5761450000000  0.4866710000000 1.0
C      1  0.4744210000000  0.5621190000000  0.6065120000000 1.0
C      1  0.4134310000000  0.5503060000000  0.5470920000000 1.0
C      1  0.5893280000000  0.5833790000000  0.5537920000000 1.0
C      1  0.4528480000000  0.5875800000000  0.5101490000000 1.0
C      1  0.4905800000000  0.5444010000000  0.5927140000000 1.0
C      1  0.5362210000000  0.4556510000000  0.4835790000000 1.0
C      1  0.4523640000000  0.4116070000000  0.5495580000000 1.0
C      1  0.4971070000000  0.4920050000000  0.5023310000000 1.0
C      1  0.5062210000000  0.4632480000000  0.4993010000000 1.0
C      1  0.4609570000000  0.4266500000000  0.5742800000000 1.0
C      1  0.5457080000000  0.4502200000000  0.5515360000000 1.0
C      1  0.4761520000000  0.5746230000000  0.5018190000000 1.0
C      1  0.4000090000000  0.4695900000000  0.5678550000000 1.0
C      1  0.4649930000000  0.4366130000000  0.4998750000000 1.0
C      1  0.5218120000000  0.4377800000000  0.5429080000000 1.0
C      1  0.5594320000000  0.4707380000000  0.5087230000000 1.0
C      1  0.3980110000000  0.4595440000000  0.4768800000000 1.0
C      1  0.5191440000000  0.5259900000000  0.4470370000000 1.0
C      1  0.4227940000000  0.4608020000000  0.5793510000000 1.0
C      1  0.5683350000000  0.5317400000000  0.5326760000000 1.0
C      1  0.6045380000000  0.4796940000000  0.4931300000000 1.0
C      1  0.4673810000000  0.4726700000000  0.5630720000000 1.0
C      1  0.5282870000000  0.5606710000000  0.5017110000000 1.0
C      1  0.4271380000000  0.5731460000000  0.5055110000000 1.0
C      1  0.4793580000000  0.5322350000000  0.4725200000000 1.0
C      1  0.4431340000000  0.4507210000000  0.4502310000000 1.0
C      1  0.5011580000000  0.4414420000000  0.6045360000000 1.0
C      1  0.4896660000000  0.5876380000000  0.4811040000000 1.0
C      1  0.4865460000000  0.4228210000000  0.5873990000000 1.0
C      1  0.5634880000000  0.5788040000000  0.5420870000000 1.0
C      1  0.5714710000000  0.5627710000000  0.4927850000000 1.0
C      1  0.4197450000000  0.6102450000000  0.5690410000000 1.0
C      1  0.6205290000000  0.5485720000000  0.5322320000000 1.0
C      1  0.4792200000000  0.4608160000000  0.5400010000000 1.0
C      1  0.4995350000000  0.5185330000000  0.6019300000000 1.0
C      1  0.4283050000000  0.4921930000000  0.4463440000000 1.0
C      1  0.5018700000000  0.5500370000000  0.5638000000000 1.0
C      1  0.4944690000000  0.4674960000000  0.4012650000000 1.0
C      1  0.5075470000000  0.4764700000000  0.4513470000000 1.0
C      1  0.5165130000000  0.5073570000000  0.3909780000000 1.0
C      1  0.6071140000000  0.5079640000000  0.4257360000000 1.0
C      1  0.4615280000000  0.4085900000000  0.5003950000000 1.0
C      1  0.4672310000000  0.5192470000000  0.4515700000000 1.0
C      1  0.4275650000000  0.5325300000000  0.4251480000000 1.0
C      1  0.4634390000000  0.5003320000000  0.5649800000000 1.0
C      1  0.5635760000000  0.4641060000000  0.4327690000000 1.0
C      1  0.4709160000000  0.5283280000000  0.4986870000000 1.0
C      1  0.4223500000000  0.5536230000000  0.4528710000000 1.0
C      1  0.6119100000000  0.5691600000000  0.5477390000000 1.0
C      1  0.5153560000000  0.5001460000000  0.4424800000000 1.0
C      1  0.4594480000000  0.4517200000000  0.5223520000000 1.0
C      1  0.4789610000000  0.5421010000000  0.5440440000000 1.0
C      1  0.4259650000000  0.4201960000000  0.5401550000000 1.0
C      1  0.4582210000000  0.5787700000000  0.6183120000000 1.0
C      1  0.4863080000000  0.4281060000000  0.4290220000000 1.0
C      1  0.5804840000000  0.5120520000000  0.4325280000000 1.0
C      1  0.4159160000000  0.5748750000000  0.5334360000000 1.0
C      1  0.4695010000000  0.5007180000000  0.5062030000000 1.0
C      1  0.4347940000000  0.4653060000000  0.5212400000000 1.0
C      1  0.4176970000000  0.4475020000000  0.4627150000000 1.0
C      1  0.3871940000000  0.4804400000000  0.4930130000000 1.0
C      1  0.5632920000000  0.5572360000000  0.4321730000000 1.0
C      1  0.3843300000000  0.4749050000000  0.5465430000000 1.0
C      1  0.5858460000000  0.5457030000000  0.4738230000000 1.0
C      1  0.4500770000000  0.4537130000000  0.5764580000000 1.0
C      1  0.5038610000000  0.4051320000000  0.5732230000000 1.0
C      1  0.6111350000000  0.5294710000000  0.5131170000000 1.0
C      1  0.5098770000000  0.6002120000000  0.4688710000000 1.0
C      1  0.4322190000000  0.4836380000000  0.4186330000000 1.0
C      1  0.5792070000000  0.4502990000000  0.4518600000000 1.0
C      1  0.5363490000000  0.5847440000000  0.5501180000000 1.0
C      1  0.5330130000000  0.5038610000000  0.5285530000000 1.0
C      1  0.4720890000000  0.5334960000000  0.4277460000000 1.0
C      1  0.5227400000000  0.5100160000000  0.5853540000000 1.0
C      1  0.4894210000000  0.4951850000000  0.3916030000000 1.0
C      1  0.5068210000000  0.5367470000000  0.4692880000000 1.0
C      1  0.4632470000000  0.4675370000000  0.4649930000000 1.0
C      1  0.5449870000000  0.5225750000000  0.5449120000000 1.0
C      1  0.5364730000000  0.5964460000000  0.4710560000000 1.0
C      1  0.5235880000000  0.4644290000000  0.4066070000000 1.0
C      1  0.5380180000000  0.4514960000000  0.4284380000000 1.0
C      1  0.4836910000000  0.5949100000000  0.5492760000000 1.0
C      1  0.4204670000000  0.5513200000000  0.4839220000000 1.0
C      1  0.5019310000000  0.4701280000000  0.6017140000000 1.0
C      1  0.5620820000000  0.4919280000000  0.4218120000000 1.0
C      1  0.3921930000000  0.5076070000000  0.4855310000000 1.0
C      1  0.4634640000000  0.5073970000000  0.3912690000000 1.0
C      1  0.5756520000000  0.5369590000000  0.4475030000000 1.0
C      1  0.4423570000000  0.4922260000000  0.5137610000000 1.0
C      1  0.5657370000000  0.4386870000000  0.4740490000000 1.0
C      1  0.6101600000000  0.5359560000000  0.4852850000000 1.0
C      1  0.5448290000000  0.4608680000000  0.5781450000000 1.0
C      1  0.5219390000000  0.4498560000000  0.4543130000000 1.0
C      1  0.4889460000000  0.4938030000000  0.6123360000000 1.0
C      1  0.4570860000000  0.5252610000000  0.5534740000000 1.0
C      1  0.5045960000000  0.4546500000000  0.5286870000000 1.0
C      1  0.6383860000000  0.4269710000000  0.4158280000000 1.0
C      1  0.5132070000000  0.4110470000000  0.5473020000000 1.0
C      1  0.4568270000000  0.5978080000000  0.5377620000000 1.0
C      1  0.5272520000000  0.4319460000000  0.6126410000000 1.0
C      1  0.4997160000000  0.4045540000000  0.4722950000000 1.0
C      1  0.4306510000000  0.5287190000000  0.5423200000000 1.0
C      1  0.5039710000000  0.4249880000000  0.4519960000000 1.0
C      1  0.5817070000000  0.4894980000000  0.5067550000000 1.0
C      1  0.5763130000000  0.4223370000000  0.4940940000000 1.0
C      1  0.5177640000000  0.5104520000000  0.5067680000000 1.0
C      1  0.4721110000000  0.3965010000000  0.4770000000000 1.0
C      1  0.4698670000000  0.4004700000000  0.5275030000000 1.0
C      1  0.4749350000000  0.4500820000000  0.4135350000000 1.0
C      1  0.4170360000000  0.4435890000000  0.5284880000000 1.0
C      1  0.4388310000000  0.5095520000000  0.4066050000000 1.0
C      1  0.5521840000000  0.5950350000000  0.3975020000000 1.0
C      1  0.4117030000000  0.5256210000000  0.4954180000000 1.0
C      1  0.4788330000000  0.5548670000000  0.4133740000000 1.0
C      1  0.5254320000000  0.4811020000000  0.5858930000000 1.0
C      1  0.6236190000000  0.4393880000000  0.4333450000000 1.0
C      1  0.4831890000000  0.5783720000000  0.4019470000000 1.0
C      1  0.3791910000000  0.4763150000000  0.5200830000000 1.0
C      1  0.4479120000000  0.4581760000000  0.4215230000000 1.0
C      1  0.5201310000000  0.5354140000000  0.4937810000000 1.0
C      1  0.5637510000000  0.4518190000000  0.5299830000000 1.0
C      1  0.6173790000000  0.4670490000000  0.4735140000000 1.0
C      1  0.5116740000000  0.3995580000000  0.4986790000000 1.0
C      1  0.4856740000000  0.6023370000000  0.3919930000000 1.0
C      1  0.5688080000000  0.5581760000000  0.5220390000000 1.0
C      1  0.4802880000000  0.4530660000000  0.4829600000000 1.0
C      1  0.5563250000000  0.5757580000000  0.4145520000000 1.0
C      1  0.5274240000000  0.5301910000000  0.5652750000000 1.0
C      1  0.4541880000000  0.4948390000000  0.4585800000000 1.0
C      1  0.4301020000000  0.5955760000000  0.5486640000000 1.0
C      1  0.5490960000000  0.4418650000000  0.5993280000000 1.0
C      1  0.4995870000000  0.3990280000000  0.5254420000000 1.0
C      1  0.5081480000000  0.5792370000000  0.5554910000000 1.0
END
