TITL C-627111-6168-1666 0.0413848595049132 125000 -987.049729484532 0 0 162 (C1) n - 1
REM
REM in /home/nfs/bkarasulu/CARBON/AIRSS/Generating-Clusters/LCBOP/Only-C1/SD-CG/FIRE-CG
REM
REM
REM
REM
REM
REM ./C.cell (11c1c37f851c82e70ff6c80c92926a4b)
REM AIRSS Version 0.9.1 bugfix July 2018 build 013d7b7c2542+ Fri, 06 Jul 2018 19:26:36 +0100
REM compiler GCC version 9.2.1 20190827 (Red Hat 9.2.1-1)
REM options -cpp -mtune=generic -march=x86-64 -g -O0 -fpre-include=/usr/include/finclude/math-vector-fortran.h
REM seed -600253359 445254616 -1371990591 618366319 -109157403 1264793009 668961095 1071609856 1096549953 -145090778 -732229329 -1246014615 1547615847 -1683065950 2046791531 676833259 -1030212817 1404746137 -1571517498 1589019089 -1134341885 1034724057 1378311902 1980606546 879635405 1859378494 2007061463 1947238410 1384452354 -379002671 1959034078 -388076095 240965722
REM
CELL 1.54180   50.00000   50.00000   50.00000   90.00000   90.00000   90.00000
LATT -1
SFAC C  
C      1  0.4427020000000  0.5011230000000  0.5957420000000 1.0
C      1  0.5286480000000  0.5996930000000  0.6323420000000 1.0
C      1  0.3684920000000  0.5701950000000  0.4567150000000 1.0
C      1  0.5844770000000  0.5557450000000  0.5415390000000 1.0
C      1  0.4228040000000  0.5490790000000  0.5787970000000 1.0
C      1  0.5096320000000  0.5522570000000  0.5160230000000 1.0
C      1  0.5730480000000  0.4043930000000  0.5315430000000 1.0
C      1  0.6127980000000  0.5491740000000  0.4839890000000 1.0
C      1  0.5824860000000  0.4763210000000  0.5322660000000 1.0
C      1  0.5145850000000  0.4603690000000  0.5318380000000 1.0
C      1  0.4753330000000  0.5860190000000  0.5895860000000 1.0
C      1  0.4841930000000  0.4596280000000  0.4892460000000 1.0
C      1  0.5869620000000  0.4642390000000  0.3886970000000 1.0
C      1  0.4775680000000  0.3871290000000  0.4939510000000 1.0
C      1  0.4498230000000  0.5860080000000  0.5191440000000 1.0
C      1  0.5073810000000  0.3626940000000  0.5236500000000 1.0
C      1  0.5043250000000  0.4780860000000  0.6039520000000 1.0
C      1  0.4860530000000  0.4939150000000  0.6153900000000 1.0
C      1  0.4189140000000  0.4586650000000  0.5156200000000 1.0
C      1  0.4640370000000  0.3900800000000  0.4496560000000 1.0
C      1  0.3977050000000  0.5435900000000  0.4841020000000 1.0
C      1  0.4531890000000  0.5948060000000  0.5722870000000 1.0
C      1  0.4911340000000  0.6026810000000  0.5480990000000 1.0
C      1  0.4731780000000  0.5648630000000  0.6080250000000 1.0
C      1  0.5578480000000  0.5142000000000  0.4915580000000 1.0
C      1  0.5139370000000  0.4047330000000  0.4603690000000 1.0
C      1  0.5627470000000  0.5348710000000  0.4683470000000 1.0
C      1  0.5165080000000  0.4797510000000  0.3890180000000 1.0
C      1  0.4681110000000  0.5393680000000  0.6149260000000 1.0
C      1  0.4458570000000  0.4631020000000  0.5254270000000 1.0
C      1  0.5885670000000  0.3079710000000  0.5107330000000 1.0
C      1  0.5345460000000  0.4951890000000  0.4981270000000 1.0
C      1  0.4098260000000  0.5552840000000  0.4377600000000 1.0
C      1  0.5298780000000  0.4638180000000  0.4441620000000 1.0
C      1  0.5314870000000  0.3517130000000  0.5228550000000 1.0
C      1  0.3947480000000  0.5149480000000  0.4880450000000 1.0
C      1  0.4478220000000  0.3895330000000  0.4934950000000 1.0
C      1  0.5041090000000  0.5648260000000  0.6988200000000 1.0
C      1  0.5468090000000  0.5739920000000  0.5749430000000 1.0
C      1  0.5745800000000  0.4105290000000  0.5587980000000 1.0
C      1  0.4037600000000  0.5587110000000  0.5082780000000 1.0
C      1  0.6169010000000  0.2647400000000  0.5011150000000 1.0
C      1  0.4233420000000  0.4356100000000  0.4714280000000 1.0
C      1  0.5245760000000  0.5750730000000  0.4725590000000 1.0
C      1  0.5094350000000  0.5714950000000  0.4951780000000 1.0
C      1  0.4547220000000  0.5191460000000  0.4081330000000 1.0
C      1  0.5421060000000  0.4883380000000  0.4373000000000 1.0
C      1  0.5328460000000  0.4556950000000  0.4699960000000 1.0
C      1  0.5715530000000  0.3776330000000  0.5237360000000 1.0
C      1  0.4888470000000  0.3916270000000  0.4672260000000 1.0
C      1  0.4002990000000  0.5344880000000  0.5794640000000 1.0
C      1  0.5165190000000  0.5292660000000  0.3867730000000 1.0
C      1  0.3920560000000  0.5564380000000  0.4594350000000 1.0
C      1  0.4629840000000  0.5761190000000  0.4719760000000 1.0
C      1  0.5905070000000  0.4814960000000  0.4495690000000 1.0
C      1  0.3687100000000  0.5713800000000  0.5402960000000 1.0
C      1  0.5685310000000  0.5624620000000  0.4753790000000 1.0
C      1  0.4209340000000  0.4869550000000  0.4509850000000 1.0
C      1  0.4719310000000  0.5552530000000  0.4549180000000 1.0
C      1  0.5090240000000  0.5191710000000  0.4614870000000 1.0
C      1  0.5442620000000  0.6330510000000  0.6013470000000 1.0
C      1  0.4612020000000  0.5976340000000  0.5443120000000 1.0
C      1  0.4503740000000  0.5465430000000  0.4126280000000 1.0
C      1  0.5119870000000  0.4234310000000  0.5640630000000 1.0
C      1  0.4108950000000  0.4924250000000  0.5555520000000 1.0
C      1  0.5853290000000  0.5007910000000  0.4934060000000 1.0
C      1  0.4549750000000  0.4145300000000  0.4383360000000 1.0
C      1  0.5129310000000  0.5769450000000  0.6774910000000 1.0
C      1  0.4866100000000  0.4868950000000  0.4842370000000 1.0
C      1  0.4461440000000  0.5493870000000  0.5658120000000 1.0
C      1  0.4545770000000  0.4903700000000  0.5244940000000 1.0
C      1  0.5693990000000  0.5325550000000  0.4410350000000 1.0
C      1  0.4937140000000  0.4043030000000  0.5610640000000 1.0
C      1  0.4540680000000  0.4424030000000  0.5435580000000 1.0
C      1  0.5802110000000  0.4321850000000  0.4654930000000 1.0
C      1  0.4132650000000  0.5696310000000  0.3918020000000 1.0
C      1  0.5768520000000  0.4170440000000  0.5839310000000 1.0
C      1  0.4644000000000  0.5115220000000  0.6110830000000 1.0
C      1  0.5067390000000  0.5934860000000  0.4216710000000 1.0
C      1  0.4451530000000  0.5374060000000  0.5103320000000 1.0
C      1  0.5616990000000  0.5953960000000  0.5218420000000 1.0
C      1  0.5381690000000  0.4078970000000  0.4768070000000 1.0
C      1  0.5694100000000  0.5634090000000  0.5646480000000 1.0
C      1  0.5633530000000  0.4205000000000  0.4852420000000 1.0
C      1  0.5141160000000  0.5559570000000  0.3953920000000 1.0
C      1  0.5697990000000  0.4859730000000  0.4295810000000 1.0
C      1  0.5134420000000  0.4201860000000  0.4360250000000 1.0
C      1  0.5560060000000  0.4807080000000  0.5409040000000 1.0
C      1  0.4318280000000  0.5625680000000  0.5143970000000 1.0
C      1  0.5159960000000  0.4467490000000  0.4261750000000 1.0
C      1  0.4370290000000  0.4953590000000  0.5685180000000 1.0
C      1  0.3835520000000  0.5246330000000  0.5348620000000 1.0
C      1  0.5823840000000  0.5280940000000  0.5320220000000 1.0
C      1  0.4696220000000  0.4456600000000  0.4705230000000 1.0
C      1  0.4671120000000  0.5907590000000  0.4961410000000 1.0
C      1  0.4478000000000  0.4348500000000  0.4568320000000 1.0
C      1  0.4687700000000  0.5485950000000  0.5517030000000 1.0
C      1  0.4593170000000  0.5007510000000  0.4271710000000 1.0
C      1  0.4941580000000  0.5689620000000  0.4129240000000 1.0
C      1  0.4241860000000  0.5573950000000  0.4136620000000 1.0
C      1  0.4640900000000  0.5059830000000  0.4764930000000 1.0
C      1  0.4154690000000  0.4707310000000  0.4284990000000 1.0
C      1  0.4277270000000  0.4588040000000  0.4078530000000 1.0
C      1  0.5258750000000  0.5117080000000  0.4402060000000 1.0
C      1  0.4375110000000  0.4106560000000  0.5103290000000 1.0
C      1  0.6003450000000  0.5010930000000  0.4690990000000 1.0
C      1  0.5589970000000  0.5048210000000  0.3872420000000 1.0
C      1  0.4520770000000  0.5108340000000  0.5038430000000 1.0
C      1  0.5152210000000  0.4667610000000  0.5823320000000 1.0
C      1  0.5215480000000  0.5889580000000  0.6554920000000 1.0
C      1  0.4857270000000  0.5044230000000  0.5592300000000 1.0
C      1  0.3847300000000  0.5526090000000  0.5287700000000 1.0
C      1  0.4597580000000  0.4985020000000  0.5510880000000 1.0
C      1  0.5593320000000  0.3526890000000  0.5206590000000 1.0
C      1  0.5114010000000  0.5001350000000  0.4832040000000 1.0
C      1  0.6028520000000  0.2861760000000  0.5058840000000 1.0
C      1  0.5301630000000  0.5042800000000  0.3851890000000 1.0
C      1  0.5827840000000  0.5752670000000  0.5193430000000 1.0
C      1  0.5742940000000  0.3297520000000  0.5155780000000 1.0
C      1  0.5532620000000  0.5781110000000  0.3723080000000 1.0
C      1  0.5572710000000  0.5298450000000  0.5172900000000 1.0
C      1  0.5715300000000  0.5298360000000  0.3913860000000 1.0
C      1  0.4546640000000  0.4158910000000  0.5331070000000 1.0
C      1  0.4878880000000  0.3819940000000  0.5193350000000 1.0
C      1  0.5731280000000  0.4254050000000  0.5123190000000 1.0
C      1  0.4974200000000  0.4502340000000  0.5120710000000 1.0
C      1  0.5503930000000  0.5801530000000  0.4634070000000 1.0
C      1  0.5854570000000  0.4503150000000  0.5204330000000 1.0
C      1  0.5337850000000  0.5420470000000  0.5244330000000 1.0
C      1  0.4767170000000  0.3984500000000  0.5396890000000 1.0
C      1  0.5366030000000  0.6057680000000  0.5252790000000 1.0
C      1  0.4947180000000  0.5945640000000  0.5024520000000 1.0
C      1  0.3931420000000  0.5154180000000  0.5602140000000 1.0
C      1  0.4509670000000  0.4523310000000  0.3963090000000 1.0
C      1  0.5906590000000  0.5656170000000  0.4928960000000 1.0
C      1  0.5337870000000  0.4798810000000  0.5234160000000 1.0
C      1  0.6159220000000  0.5256010000000  0.4698050000000 1.0
C      1  0.5525880000000  0.5932390000000  0.4385450000000 1.0
C      1  0.5728660000000  0.4838960000000  0.4011800000000 1.0
C      1  0.4012860000000  0.4973350000000  0.4675230000000 1.0
C      1  0.5333030000000  0.6084640000000  0.6062180000000 1.0
C      1  0.3905020000000  0.5048180000000  0.5144190000000 1.0
C      1  0.4875520000000  0.5485870000000  0.5327820000000 1.0
C      1  0.4996600000000  0.5934280000000  0.5745770000000 1.0
C      1  0.5929460000000  0.5014090000000  0.5218840000000 1.0
C      1  0.4814870000000  0.5299190000000  0.4641670000000 1.0
C      1  0.4776340000000  0.4514320000000  0.3955820000000 1.0
C      1  0.5083710000000  0.5153600000000  0.5663840000000 1.0
C      1  0.5368270000000  0.5747120000000  0.3937490000000 1.0
C      1  0.4425410000000  0.3798070000000  0.4669660000000 1.0
C      1  0.4561380000000  0.4460670000000  0.5705830000000 1.0
C      1  0.5039750000000  0.4582710000000  0.4027660000000 1.0
C      1  0.4717190000000  0.5590890000000  0.4264270000000 1.0
C      1  0.5151600000000  0.4508250000000  0.5591270000000 1.0
C      1  0.4210600000000  0.4334100000000  0.4999010000000 1.0
C      1  0.5352620000000  0.5930300000000  0.4164470000000 1.0
C      1  0.5929650000000  0.4539870000000  0.4564590000000 1.0
C      1  0.5263400000000  0.5912730000000  0.5844530000000 1.0
C      1  0.5075490000000  0.6061150000000  0.5253330000000 1.0
C      1  0.4038850000000  0.4813420000000  0.5273150000000 1.0
C      1  0.5761370000000  0.5394880000000  0.4161080000000 1.0
C      1  0.4477680000000  0.4964370000000  0.4527980000000 1.0
END
