TITL C-627109-622-895 82907.8694074955 125000 -1214.92174619541 0 0 197 (C1) n - 1
REM
REM in /home/nfs/bkarasulu/CARBON/AIRSS/Generating-Clusters/LCBOP/Only-C1/SD-CG/FIRE-CG
REM
REM
REM
REM
REM
REM ./C.cell (11c1c37f851c82e70ff6c80c92926a4b)
REM AIRSS Version 0.9.1 bugfix July 2018 build 013d7b7c2542+ Fri, 06 Jul 2018 19:26:36 +0100
REM compiler GCC version 9.2.1 20190827 (Red Hat 9.2.1-1)
REM options -cpp -mtune=generic -march=x86-64 -g -O0 -fpre-include=/usr/include/finclude/math-vector-fortran.h
REM seed 1549723430 -1853248391 -1071701093 1807374022 -715640431 978037597 -36711347 -473497856 1326356239 819908065 1622886239 -1488054347 1914424088 64828513 -712421884 1362127004 1603609891 -1573210664 -1825975124 1189305411 92991638 2016620841 -850358037 26774155 -1348694594 1436152508 -325347939 -1056344845 1105068774 56614869 1003815266 -1888639774 1888573169
REM
CELL 1.54180   50.00000   50.00000   50.00000   90.00000   90.00000   90.00000
LATT -1
SFAC C  
C      1  0.4599680000000  0.5308810000000  0.4503860000000 1.0
C      1  0.4702850000000  0.4780180000000  0.5440270000000 1.0
C      1  0.5913630000000  0.4242320000000  0.4543740000000 1.0
C      1  0.4531790000000  0.4424440000000  0.5189990000000 1.0
C      1  0.5043590000000  0.3968630000000  0.4436520000000 1.0
C      1  0.4239250000000  0.6179900000000  0.5827750000000 1.0
C      1  0.4902280000000  0.5913630000000  0.4236480000000 1.0
C      1  0.3856090000000  0.5260470000000  0.5455590000000 1.0
C      1  0.4793820000000  0.5440840000000  0.6169790000000 1.0
C      1  0.5686550000000  0.5268920000000  0.5318290000000 1.0
C      1  0.4920760000000  0.4997120000000  0.6337660000000 1.0
C      1  0.5796930000000  0.4786550000000  0.5645370000000 1.0
C      1  0.5602200000000  0.5270560000000  0.4611450000000 1.0
C      1  0.5310700000000  0.4355670000000  0.5372050000000 1.0
C      1  0.4876770000000  0.6094320000000  0.4466740000000 1.0
C      1  0.6071020000000  0.5576040000000  0.5283890000000 1.0
C      1  0.5851950000000  0.5016590000000  0.4087580000000 1.0
C      1  0.4769710000000  0.4084130000000  0.5861040000000 1.0
C      1  0.5099010000000  0.3718090000000  0.5108790000000 1.0
C      1  0.5034020000000  0.5974970000000  0.5378340000000 1.0
C      1  0.4209090000000  0.5329770000000  0.5806810000000 1.0
C      1  0.5166900000000  0.5847920000000  0.4125750000000 1.0
C      1  0.5472860000000  0.5538110000000  0.5775610000000 1.0
C      1  0.5044840000000  0.4861270000000  0.6126780000000 1.0
C      1  0.4784500000000  0.6135750000000  0.4957620000000 1.0
C      1  0.4320880000000  0.4576320000000  0.5838660000000 1.0
C      1  0.5307950000000  0.4566850000000  0.4508330000000 1.0
C      1  0.5742030000000  0.4006270000000  0.6087540000000 1.0
C      1  0.5110860000000  0.5488640000000  0.5427140000000 1.0
C      1  0.6236050000000  0.4655650000000  0.5068930000000 1.0
C      1  0.5141090000000  0.4391650000000  0.6112950000000 1.0
C      1  0.5336090000000  0.4967850000000  0.4855530000000 1.0
C      1  0.4099790000000  0.4896190000000  0.4513950000000 1.0
C      1  0.4267210000000  0.4187520000000  0.4591670000000 1.0
C      1  0.4998320000000  0.6323760000000  0.4877070000000 1.0
C      1  0.4065750000000  0.4554940000000  0.5183450000000 1.0
C      1  0.4721950000000  0.5333060000000  0.5901010000000 1.0
C      1  0.5337590000000  0.5776900000000  0.6121440000000 1.0
C      1  0.4813760000000  0.4955480000000  0.3832790000000 1.0
C      1  0.4591070000000  0.5675540000000  0.4950860000000 1.0
C      1  0.5911970000000  0.5672940000000  0.5496100000000 1.0
C      1  0.3807530000000  0.5195990000000  0.4972890000000 1.0
C      1  0.5866900000000  0.5201040000000  0.5872120000000 1.0
C      1  0.4679150000000  0.4504280000000  0.3845370000000 1.0
C      1  0.4854250000000  0.5361790000000  0.4075270000000 1.0
C      1  0.5688050000000  0.5918340000000  0.5034820000000 1.0
C      1  0.5584330000000  0.5049980000000  0.6255850000000 1.0
C      1  0.5233670000000  0.4653310000000  0.6186700000000 1.0
C      1  0.4670890000000  0.3972190000000  0.5239470000000 1.0
C      1  0.5505980000000  0.5544560000000  0.6065490000000 1.0
C      1  0.5694070000000  0.4765570000000  0.4055650000000 1.0
C      1  0.4520460000000  0.5033310000000  0.3873700000000 1.0
C      1  0.5463790000000  0.5260030000000  0.5697700000000 1.0
C      1  0.6136990000000  0.4822760000000  0.5276880000000 1.0
C      1  0.5476460000000  0.4795950000000  0.6265380000000 1.0
C      1  0.4419130000000  0.5553300000000  0.5331450000000 1.0
C      1  0.5636280000000  0.4200660000000  0.4575150000000 1.0
C      1  0.5493790000000  0.5981450000000  0.5231460000000 1.0
C      1  0.5735200000000  0.5501080000000  0.3979310000000 1.0
C      1  0.5505200000000  0.4742620000000  0.5683240000000 1.0
C      1  0.4432810000000  0.5913350000000  0.4601420000000 1.0
C      1  0.4788480000000  0.5487120000000  0.4897840000000 1.0
C      1  0.5734030000000  0.4157990000000  0.5875820000000 1.0
C      1  0.5503630000000  0.3949530000000  0.4641770000000 1.0
C      1  0.3849550000000  0.5070280000000  0.5235940000000 1.0
C      1  0.4339880000000  0.3970710000000  0.4760580000000 1.0
C      1  0.5263560000000  0.4495780000000  0.5126630000000 1.0
C      1  0.5762210000000  0.5456050000000  0.4443700000000 1.0
C      1  0.5880390000000  0.4304110000000  0.5425100000000 1.0
C      1  0.5499970000000  0.5960610000000  0.5522730000000 1.0
C      1  0.4575060000000  0.3834840000000  0.4670320000000 1.0
C      1  0.5312970000000  0.4074650000000  0.5334180000000 1.0
C      1  0.4348460000000  0.4832280000000  0.4004480000000 1.0
C      1  0.4891440000000  0.5036820000000  0.4798580000000 1.0
C      1  0.4454240000000  0.3993030000000  0.5435490000000 1.0
C      1  0.4970670000000  0.4211560000000  0.5997540000000 1.0
C      1  0.5379140000000  0.4967300000000  0.5148280000000 1.0
C      1  0.4526940000000  0.4581680000000  0.4451100000000 1.0
C      1  0.5680360000000  0.5286540000000  0.6108000000000 1.0
C      1  0.5233630000000  0.5867500000000  0.5183300000000 1.0
C      1  0.4177430000000  0.4874620000000  0.4234790000000 1.0
C      1  0.4243190000000  0.5093250000000  0.4670840000000 1.0
C      1  0.5820080000000  0.6104990000000  0.4887210000000 1.0
C      1  0.4173140000000  0.5068310000000  0.5913210000000 1.0
C      1  0.5744530000000  0.4560420000000  0.5003430000000 1.0
C      1  0.5535600000000  0.3915900000000  0.4930200000000 1.0
C      1  0.4081220000000  0.5695410000000  0.4956640000000 1.0
C      1  0.5649900000000  0.4997400000000  0.5241330000000 1.0
C      1  0.4888150000000  0.4494410000000  0.4700730000000 1.0
C      1  0.5155270000000  0.4268050000000  0.4044760000000 1.0
C      1  0.6319660000000  0.4989250000000  0.5398620000000 1.0
C      1  0.4480420000000  0.4403700000000  0.5680680000000 1.0
C      1  0.4128510000000  0.4160250000000  0.4005120000000 1.0
C      1  0.5941510000000  0.4922900000000  0.5850600000000 1.0
C      1  0.4378480000000  0.5326860000000  0.5138270000000 1.0
C      1  0.5216640000000  0.5990700000000  0.5636070000000 1.0
C      1  0.5461580000000  0.4467000000000  0.5592050000000 1.0
C      1  0.6130780000000  0.4358940000000  0.4652020000000 1.0
C      1  0.3833720000000  0.5418850000000  0.4378260000000 1.0
C      1  0.5816340000000  0.4820710000000  0.4868980000000 1.0
C      1  0.4658400000000  0.5690860000000  0.6197350000000 1.0
C      1  0.4863090000000  0.5257010000000  0.6366980000000 1.0
C      1  0.5353350000000  0.4988310000000  0.5759350000000 1.0
C      1  0.5230680000000  0.5942520000000  0.3875480000000 1.0
C      1  0.4538130000000  0.4123460000000  0.5691020000000 1.0
C      1  0.4333190000000  0.4593700000000  0.5066380000000 1.0
C      1  0.5233880000000  0.5086430000000  0.4037650000000 1.0
C      1  0.4913740000000  0.4673270000000  0.3849790000000 1.0
C      1  0.4646940000000  0.5781410000000  0.4147300000000 1.0
C      1  0.4814620000000  0.3846030000000  0.4546850000000 1.0
C      1  0.4456260000000  0.5721550000000  0.5994960000000 1.0
C      1  0.4040450000000  0.4283290000000  0.5275480000000 1.0
C      1  0.4707270000000  0.5256440000000  0.4757070000000 1.0
C      1  0.4804190000000  0.4269170000000  0.4843940000000 1.0
C      1  0.5028230000000  0.5235150000000  0.5495160000000 1.0
C      1  0.5027810000000  0.4652990000000  0.5100160000000 1.0
C      1  0.5992140000000  0.5511240000000  0.5003310000000 1.0
C      1  0.4103540000000  0.5436850000000  0.4368910000000 1.0
C      1  0.4428770000000  0.5847870000000  0.4323560000000 1.0
C      1  0.5414010000000  0.3864530000000  0.4164640000000 1.0
C      1  0.5861540000000  0.4836150000000  0.5367280000000 1.0
C      1  0.4351610000000  0.4368330000000  0.4392270000000 1.0
C      1  0.5646420000000  0.5730110000000  0.5620080000000 1.0
C      1  0.6035810000000  0.5342120000000  0.4485100000000 1.0
C      1  0.5454270000000  0.5141450000000  0.3877890000000 1.0
C      1  0.5050950000000  0.6287990000000  0.4594130000000 1.0
C      1  0.5090570000000  0.4992980000000  0.5881780000000 1.0
C      1  0.4643780000000  0.5533540000000  0.3989500000000 1.0
C      1  0.5323890000000  0.4844770000000  0.4525980000000 1.0
C      1  0.5317580000000  0.3867290000000  0.4436890000000 1.0
C      1  0.5330760000000  0.5351520000000  0.4619750000000 1.0
C      1  0.4323860000000  0.5953100000000  0.5924430000000 1.0
C      1  0.5116470000000  0.6508490000000  0.5037780000000 1.0
C      1  0.5244940000000  0.5565120000000  0.5172870000000 1.0
C      1  0.4671540000000  0.6054340000000  0.4681800000000 1.0
C      1  0.5215090000000  0.5816070000000  0.4703390000000 1.0
C      1  0.4213930000000  0.4829770000000  0.5770190000000 1.0
C      1  0.4464450000000  0.5329270000000  0.3868610000000 1.0
C      1  0.4047310000000  0.5796520000000  0.5227000000000 1.0
C      1  0.4914880000000  0.5181700000000  0.5754670000000 1.0
C      1  0.4206870000000  0.4044600000000  0.5262640000000 1.0
C      1  0.4456800000000  0.5461120000000  0.5858420000000 1.0
C      1  0.5060620000000  0.5440900000000  0.4974520000000 1.0
C      1  0.4953460000000  0.4808130000000  0.5320650000000 1.0
C      1  0.3919720000000  0.5460630000000  0.4925950000000 1.0
C      1  0.5793000000000  0.5101640000000  0.4785890000000 1.0
C      1  0.4213970000000  0.4876890000000  0.5491300000000 1.0
C      1  0.5274680000000  0.5614560000000  0.4531610000000 1.0
C      1  0.4467830000000  0.4919700000000  0.5357350000000 1.0
C      1  0.4782330000000  0.5233310000000  0.4313340000000 1.0
C      1  0.4709630000000  0.4765440000000  0.4382510000000 1.0
C      1  0.4163110000000  0.5635770000000  0.5434390000000 1.0
C      1  0.4337100000000  0.5749550000000  0.4816860000000 1.0
C      1  0.4893860000000  0.4973950000000  0.4345220000000 1.0
C      1  0.3651780000000  0.5278150000000  0.4523140000000 1.0
C      1  0.5698660000000  0.4304100000000  0.5642480000000 1.0
C      1  0.4778260000000  0.5990700000000  0.5229010000000 1.0
C      1  0.5724660000000  0.5635890000000  0.5003290000000 1.0
C      1  0.5715790000000  0.5222520000000  0.3933130000000 1.0
C      1  0.4989170000000  0.5168570000000  0.3915960000000 1.0
C      1  0.5178160000000  0.4541720000000  0.3935110000000 1.0
C      1  0.4606480000000  0.4513940000000  0.5453050000000 1.0
C      1  0.5137800000000  0.5021410000000  0.5333180000000 1.0
C      1  0.3989180000000  0.4818750000000  0.5306120000000 1.0
C      1  0.4329860000000  0.5107840000000  0.4947150000000 1.0
C      1  0.4846510000000  0.3761200000000  0.5190010000000 1.0
C      1  0.5843060000000  0.4313740000000  0.5144310000000 1.0
C      1  0.5454860000000  0.4650620000000  0.3967040000000 1.0
C      1  0.4420450000000  0.4552400000000  0.3954140000000 1.0
C      1  0.5209150000000  0.5928520000000  0.5922250000000 1.0
C      1  0.4407930000000  0.4870120000000  0.5072940000000 1.0
C      1  0.3706410000000  0.5082180000000  0.4726400000000 1.0
C      1  0.6024680000000  0.5296740000000  0.4790010000000 1.0
C      1  0.5636780000000  0.5597680000000  0.4226240000000 1.0
C      1  0.6246010000000  0.4505310000000  0.4846080000000 1.0
C      1  0.5325970000000  0.3882190000000  0.5123340000000 1.0
C      1  0.4319970000000  0.5311600000000  0.4498470000000 1.0
C      1  0.5332660000000  0.4052480000000  0.3981790000000 1.0
C      1  0.5474050000000  0.4488100000000  0.4934580000000 1.0
C      1  0.4597310000000  0.5758180000000  0.5226670000000 1.0
C      1  0.5030930000000  0.4229970000000  0.4304820000000 1.0
C      1  0.4910760000000  0.4742160000000  0.4850200000000 1.0
C      1  0.5739380000000  0.5244120000000  0.5602750000000 1.0
C      1  0.5158480000000  0.5201880000000  0.4813550000000 1.0
C      1  0.4291770000000  0.4350140000000  0.4112640000000 1.0
C      1  0.3840080000000  0.4852930000000  0.4620000000000 1.0
C      1  0.4042050000000  0.5429570000000  0.5592000000000 1.0
C      1  0.6042140000000  0.5120440000000  0.4285320000000 1.0
C      1  0.4035800000000  0.3675200000000  0.4995650000000 1.0
C      1  0.5363910000000  0.5692490000000  0.4272700000000 1.0
C      1  0.5183330000000  0.4973510000000  0.4306280000000 1.0
C      1  0.5053200000000  0.4449750000000  0.4478890000000 1.0
C      1  0.5766600000000  0.4058360000000  0.5032660000000 1.0
C      1  0.5542330000000  0.5472020000000  0.5160800000000 1.0
C      1  0.5478280000000  0.4417720000000  0.4661800000000 1.0
C      1  0.4196860000000  0.3899410000000  0.5004920000000 1.0
C      1  0.4678380000000  0.4210360000000  0.5082060000000 1.0
END
