TITL C-627110-360-1407 4.90399784958683e-06 125000 -1113.05873315694 0 0 181 (C1) n - 1
REM
REM in /home/nfs/bkarasulu/CARBON/AIRSS/Generating-Clusters/LCBOP/Only-C1/SD-CG/FIRE-CG
REM
REM
REM
REM
REM
REM ./C.cell (11c1c37f851c82e70ff6c80c92926a4b)
REM AIRSS Version 0.9.1 bugfix July 2018 build 013d7b7c2542+ Fri, 06 Jul 2018 19:26:36 +0100
REM compiler GCC version 9.2.1 20190827 (Red Hat 9.2.1-1)
REM options -cpp -mtune=generic -march=x86-64 -g -O0 -fpre-include=/usr/include/finclude/math-vector-fortran.h
REM seed 1017325331 -1009923077 -1446449920 567674522 -1183190851 -521216304 999950492 -1760073461 -1814707155 920331513 806467077 -2124731692 684991288 1025377067 -896072355 -1644164656 -699106832 -1711192797 -48649681 -1436817417 254432712 -2119666345 1611693414 195755049 -1140177964 -1876830268 1174399312 -1131359759 1654425668 -1093962517 1500141553 410645797 -1787603513
REM
CELL 1.54180   50.00000   50.00000   50.00000   90.00000   90.00000   90.00000
LATT -1
SFAC C  
C      1  0.4772650000000  0.3843360000000  0.4854040000000 1.0
C      1  0.4297730000000  0.4946140000000  0.5086310000000 1.0
C      1  0.5761490000000  0.4509230000000  0.4983640000000 1.0
C      1  0.4631200000000  0.5571520000000  0.5253850000000 1.0
C      1  0.5269600000000  0.4914720000000  0.5549910000000 1.0
C      1  0.5081150000000  0.4287470000000  0.5234420000000 1.0
C      1  0.5726910000000  0.5916960000000  0.5241370000000 1.0
C      1  0.4843110000000  0.5632450000000  0.4243850000000 1.0
C      1  0.5884610000000  0.4228470000000  0.4986070000000 1.0
C      1  0.4270290000000  0.6038820000000  0.4124180000000 1.0
C      1  0.4572970000000  0.4005020000000  0.4719560000000 1.0
C      1  0.4985620000000  0.5840320000000  0.4110780000000 1.0
C      1  0.5106380000000  0.5350260000000  0.5043650000000 1.0
C      1  0.5205640000000  0.5786380000000  0.5660050000000 1.0
C      1  0.4773860000000  0.6156890000000  0.4480530000000 1.0
C      1  0.5384160000000  0.5997570000000  0.4874680000000 1.0
C      1  0.5340580000000  0.5664950000000  0.5883290000000 1.0
C      1  0.5099470000000  0.5636170000000  0.4996520000000 1.0
C      1  0.4115910000000  0.4649110000000  0.5618530000000 1.0
C      1  0.4586850000000  0.4837150000000  0.5831250000000 1.0
C      1  0.5058480000000  0.4732400000000  0.4376640000000 1.0
C      1  0.4782700000000  0.4805160000000  0.3857560000000 1.0
C      1  0.5715650000000  0.4090410000000  0.4765370000000 1.0
C      1  0.4266040000000  0.5896020000000  0.4348790000000 1.0
C      1  0.4818490000000  0.4437400000000  0.4876650000000 1.0
C      1  0.3934280000000  0.4859400000000  0.5547770000000 1.0
C      1  0.3864730000000  0.4532120000000  0.5168860000000 1.0
C      1  0.5641240000000  0.5371710000000  0.6095040000000 1.0
C      1  0.5176130000000  0.5997370000000  0.4258310000000 1.0
C      1  0.4410630000000  0.5730450000000  0.5721230000000 1.0
C      1  0.4616540000000  0.4595930000000  0.4833500000000 1.0
C      1  0.5121690000000  0.4575940000000  0.4163830000000 1.0
C      1  0.4460390000000  0.6049760000000  0.5153330000000 1.0
C      1  0.4162990000000  0.5116170000000  0.3765330000000 1.0
C      1  0.5610260000000  0.4549740000000  0.4735250000000 1.0
C      1  0.6164560000000  0.4473450000000  0.5397380000000 1.0
C      1  0.5318110000000  0.4696730000000  0.5122980000000 1.0
C      1  0.4067180000000  0.4579840000000  0.4577490000000 1.0
C      1  0.4648680000000  0.5458060000000  0.4126300000000 1.0
C      1  0.4917910000000  0.4153500000000  0.6111900000000 1.0
C      1  0.6008910000000  0.4890390000000  0.5179920000000 1.0
C      1  0.3660760000000  0.5400920000000  0.5349970000000 1.0
C      1  0.4103990000000  0.5564230000000  0.4679920000000 1.0
C      1  0.5357400000000  0.3806620000000  0.5365020000000 1.0
C      1  0.6126190000000  0.5952770000000  0.4450120000000 1.0
C      1  0.5791380000000  0.5061970000000  0.5252090000000 1.0
C      1  0.4580310000000  0.5891950000000  0.5579790000000 1.0
C      1  0.4269390000000  0.4559770000000  0.5393800000000 1.0
C      1  0.4878820000000  0.5945080000000  0.3872680000000 1.0
C      1  0.5344170000000  0.4782160000000  0.6303530000000 1.0
C      1  0.5464010000000  0.4780530000000  0.4682670000000 1.0
C      1  0.6313430000000  0.4984550000000  0.5530420000000 1.0
C      1  0.5349510000000  0.5286690000000  0.5192910000000 1.0
C      1  0.5192640000000  0.5443730000000  0.6025890000000 1.0
C      1  0.3708940000000  0.5354400000000  0.5090030000000 1.0
C      1  0.5717100000000  0.4448190000000  0.4300900000000 1.0
C      1  0.5186360000000  0.3958780000000  0.4054940000000 1.0
C      1  0.5729980000000  0.5013820000000  0.5531280000000 1.0
C      1  0.4527890000000  0.4820580000000  0.4696920000000 1.0
C      1  0.5966970000000  0.4719620000000  0.4966400000000 1.0
C      1  0.5575850000000  0.3926340000000  0.5210480000000 1.0
C      1  0.4200240000000  0.5171100000000  0.3513330000000 1.0
C      1  0.5383260000000  0.4266620000000  0.6273260000000 1.0
C      1  0.4135040000000  0.5059070000000  0.4033970000000 1.0
C      1  0.6173810000000  0.4775020000000  0.5391830000000 1.0
C      1  0.5450280000000  0.5134840000000  0.4093820000000 1.0
C      1  0.5942340000000  0.5702190000000  0.3495360000000 1.0
C      1  0.5153040000000  0.4841400000000  0.5298000000000 1.0
C      1  0.5356780000000  0.4534230000000  0.6173380000000 1.0
C      1  0.3436180000000  0.4300990000000  0.4940380000000 1.0
C      1  0.4213980000000  0.5223680000000  0.4258750000000 1.0
C      1  0.4893110000000  0.5157100000000  0.5047030000000 1.0
C      1  0.4906690000000  0.6069860000000  0.4899480000000 1.0
C      1  0.4330050000000  0.4165070000000  0.4812550000000 1.0
C      1  0.4687800000000  0.4801610000000  0.5366640000000 1.0
C      1  0.4406210000000  0.6097680000000  0.3902020000000 1.0
C      1  0.5860200000000  0.5142300000000  0.5741260000000 1.0
C      1  0.4669360000000  0.5869000000000  0.5280220000000 1.0
C      1  0.4596930000000  0.5708950000000  0.4697050000000 1.0
C      1  0.4857440000000  0.4436760000000  0.5667560000000 1.0
C      1  0.4016890000000  0.4987790000000  0.5087240000000 1.0
C      1  0.3960220000000  0.5769720000000  0.4806980000000 1.0
C      1  0.5087990000000  0.4361490000000  0.5507160000000 1.0
C      1  0.4844630000000  0.3788270000000  0.5411840000000 1.0
C      1  0.3871860000000  0.4811750000000  0.5260960000000 1.0
C      1  0.4015880000000  0.4823930000000  0.4441070000000 1.0
C      1  0.5378640000000  0.5303280000000  0.6198900000000 1.0
C      1  0.6264850000000  0.5252660000000  0.5578020000000 1.0
C      1  0.4424680000000  0.4769040000000  0.5272960000000 1.0
C      1  0.4119180000000  0.4396990000000  0.5208030000000 1.0
C      1  0.5692450000000  0.5623880000000  0.3967470000000 1.0
C      1  0.3961540000000  0.5124860000000  0.5656510000000 1.0
C      1  0.5280610000000  0.5365600000000  0.5455150000000 1.0
C      1  0.5240500000000  0.6046660000000  0.5561250000000 1.0
C      1  0.5338560000000  0.6164950000000  0.5339290000000 1.0
C      1  0.5216160000000  0.5165720000000  0.5647690000000 1.0
C      1  0.5505120000000  0.6061530000000  0.5132670000000 1.0
C      1  0.5534390000000  0.3908540000000  0.4918660000000 1.0
C      1  0.4209850000000  0.5219680000000  0.5773190000000 1.0
C      1  0.5036460000000  0.3786000000000  0.4974470000000 1.0
C      1  0.5919220000000  0.5899420000000  0.4301030000000 1.0
C      1  0.5410910000000  0.3721740000000  0.5621730000000 1.0
C      1  0.4341760000000  0.5649720000000  0.4510460000000 1.0
C      1  0.5095910000000  0.5586350000000  0.5484950000000 1.0
C      1  0.4020010000000  0.5290860000000  0.4705360000000 1.0
C      1  0.5566370000000  0.5380860000000  0.4023140000000 1.0
C      1  0.5448200000000  0.5968060000000  0.4209580000000 1.0
C      1  0.4727130000000  0.4691410000000  0.5631550000000 1.0
C      1  0.5187860000000  0.4162140000000  0.4749200000000 1.0
C      1  0.5158090000000  0.6135690000000  0.4754120000000 1.0
C      1  0.4399400000000  0.5028160000000  0.5864730000000 1.0
C      1  0.4256650000000  0.4176100000000  0.5090290000000 1.0
C      1  0.4247560000000  0.4359360000000  0.4598420000000 1.0
C      1  0.4083130000000  0.5108520000000  0.4497990000000 1.0
C      1  0.4280610000000  0.5497510000000  0.5769070000000 1.0
C      1  0.3832950000000  0.5974560000000  0.4905840000000 1.0
C      1  0.5821120000000  0.5662640000000  0.3722640000000 1.0
C      1  0.4534620000000  0.4589600000000  0.4253260000000 1.0
C      1  0.4619250000000  0.4630040000000  0.3985040000000 1.0
C      1  0.5609260000000  0.4308610000000  0.4552000000000 1.0
C      1  0.5334880000000  0.5050260000000  0.6313500000000 1.0
C      1  0.5259070000000  0.3903310000000  0.4842540000000 1.0
C      1  0.5041790000000  0.5273020000000  0.5848610000000 1.0
C      1  0.4678950000000  0.6015970000000  0.4716950000000 1.0
C      1  0.5326020000000  0.4519890000000  0.5895870000000 1.0
C      1  0.4854090000000  0.4924570000000  0.4381610000000 1.0
C      1  0.5200520000000  0.5068650000000  0.3966070000000 1.0
C      1  0.5046880000000  0.4306390000000  0.4952450000000 1.0
C      1  0.5803500000000  0.4116930000000  0.5271220000000 1.0
C      1  0.4461590000000  0.5031250000000  0.4870940000000 1.0
C      1  0.6181670000000  0.4234040000000  0.4974570000000 1.0
C      1  0.4930400000000  0.5873340000000  0.5102000000000 1.0
C      1  0.5594550000000  0.4977520000000  0.4290700000000 1.0
C      1  0.5082870000000  0.3768150000000  0.5259910000000 1.0
C      1  0.5201890000000  0.4731120000000  0.4612410000000 1.0
C      1  0.4751900000000  0.5276200000000  0.3937660000000 1.0
C      1  0.4585410000000  0.5504070000000  0.4977620000000 1.0
C      1  0.5135430000000  0.4128270000000  0.6270220000000 1.0
C      1  0.5505840000000  0.5512670000000  0.4728450000000 1.0
C      1  0.4455330000000  0.4347780000000  0.4384380000000 1.0
C      1  0.5820280000000  0.5783050000000  0.5456550000000 1.0
C      1  0.5594800000000  0.5189830000000  0.5074340000000 1.0
C      1  0.5324960000000  0.4216660000000  0.4506810000000 1.0
C      1  0.6015640000000  0.5372190000000  0.5659830000000 1.0
C      1  0.5341480000000  0.5714620000000  0.4845180000000 1.0
C      1  0.4898320000000  0.4932160000000  0.5226740000000 1.0
C      1  0.5549650000000  0.4549420000000  0.5482270000000 1.0
C      1  0.5552920000000  0.4549720000000  0.5197830000000 1.0
C      1  0.5595190000000  0.5243200000000  0.4781440000000 1.0
C      1  0.4614660000000  0.4114270000000  0.4449150000000 1.0
C      1  0.5697760000000  0.4712730000000  0.4225140000000 1.0
C      1  0.3763690000000  0.5311270000000  0.5580960000000 1.0
C      1  0.4598990000000  0.4814500000000  0.4425530000000 1.0
C      1  0.5627000000000  0.4143950000000  0.6196670000000 1.0
C      1  0.5806340000000  0.4141830000000  0.5996090000000 1.0
C      1  0.5955420000000  0.4268190000000  0.5485330000000 1.0
C      1  0.5574460000000  0.5028260000000  0.4584620000000 1.0
C      1  0.5068170000000  0.6151620000000  0.4471690000000 1.0
C      1  0.5340120000000  0.4420270000000  0.5632690000000 1.0
C      1  0.5841010000000  0.5608180000000  0.5680090000000 1.0
C      1  0.3639680000000  0.4413120000000  0.5058360000000 1.0
C      1  0.4791990000000  0.5346090000000  0.5728550000000 1.0
C      1  0.5631460000000  0.5596620000000  0.5894310000000 1.0
C      1  0.4402070000000  0.5435230000000  0.4282640000000 1.0
C      1  0.4010030000000  0.4824870000000  0.4148000000000 1.0
C      1  0.4927850000000  0.5176290000000  0.4449070000000 1.0
C      1  0.5913760000000  0.4202010000000  0.5758100000000 1.0
C      1  0.4832900000000  0.5617500000000  0.4525550000000 1.0
C      1  0.4645510000000  0.5235250000000  0.4928560000000 1.0
C      1  0.4921470000000  0.5052010000000  0.3894660000000 1.0
C      1  0.4590820000000  0.3874790000000  0.5391800000000 1.0
C      1  0.5797310000000  0.5151350000000  0.6012970000000 1.0
C      1  0.4386380000000  0.3995640000000  0.5267720000000 1.0
C      1  0.4812460000000  0.4276790000000  0.5897540000000 1.0
C      1  0.5247760000000  0.4101290000000  0.4264400000000 1.0
C      1  0.4811410000000  0.5483770000000  0.5474830000000 1.0
C      1  0.5535970000000  0.4821040000000  0.5577380000000 1.0
C      1  0.3900970000000  0.5205300000000  0.4948320000000 1.0
C      1  0.5687890000000  0.5833730000000  0.4159360000000 1.0
C      1  0.6317080000000  0.4353680000000  0.5181050000000 1.0
C      1  0.4647680000000  0.6055550000000  0.3794680000000 1.0
END
