TITL C-627112-676-151 -94.5460189175302 125000 -347.210362016625 0 0 59 (C1) n - 1
REM
REM in /home/nfs/bkarasulu/CARBON/AIRSS/Generating-Clusters/LCBOP/Only-C1/SD-CG/FIRE-CG
REM
REM
REM
REM
REM
REM ./C.cell (11c1c37f851c82e70ff6c80c92926a4b)
REM AIRSS Version 0.9.1 bugfix July 2018 build 013d7b7c2542+ Fri, 06 Jul 2018 19:26:36 +0100
REM compiler GCC version 9.2.1 20190827 (Red Hat 9.2.1-1)
REM options -cpp -mtune=generic -march=x86-64 -g -O0 -fpre-include=/usr/include/finclude/math-vector-fortran.h
REM seed -729055438 -1601694218 1256192624 -1203295198 -969134072 853751096 -868693046 -1841680153 -293779902 736171341 1084675283 -1615860750 972490978 1100773548 411277977 1007273299 -191334526 -1930852282 -960118175 -603228057 1475962588 207245928 -1130591079 2050788103 -185095735 1726037377 1517283409 -316008868 132320833 -235389293 1550722647 -87285049 458034217
REM
CELL 1.54180   50.00000   50.00000   50.00000   90.00000   90.00000   90.00000
LATT -1
SFAC C  
C      1  0.4737440000000  0.4642760000000  0.4362390000000 1.0
C      1  0.5772260000000  0.4895730000000  0.4779550000000 1.0
C      1  0.4763320000000  0.4475740000000  0.5233400000000 1.0
C      1  0.4710000000000  0.5417020000000  0.5216080000000 1.0
C      1  0.5210230000000  0.4557060000000  0.5372460000000 1.0
C      1  0.5563570000000  0.5302200000000  0.4972280000000 1.0
C      1  0.5512470000000  0.5425960000000  0.4714950000000 1.0
C      1  0.5728730000000  0.4875030000000  0.4514120000000 1.0
C      1  0.4685830000000  0.5640000000000  0.5384580000000 1.0
C      1  0.5085760000000  0.4911310000000  0.4642660000000 1.0
C      1  0.4902660000000  0.4866520000000  0.5596750000000 1.0
C      1  0.5624440000000  0.3960600000000  0.5209650000000 1.0
C      1  0.5202670000000  0.5278060000000  0.5298760000000 1.0
C      1  0.4784020000000  0.5879220000000  0.5453370000000 1.0
C      1  0.3902380000000  0.4044440000000  0.5398070000000 1.0
C      1  0.4932430000000  0.4243460000000  0.5170310000000 1.0
C      1  0.5108390000000  0.6241910000000  0.5501850000000 1.0
C      1  0.5100340000000  0.5571430000000  0.4512630000000 1.0
C      1  0.3708990000000  0.3899750000000  0.5496190000000 1.0
C      1  0.5669670000000  0.5035050000000  0.5003170000000 1.0
C      1  0.4937720000000  0.5236200000000  0.5219610000000 1.0
C      1  0.4910240000000  0.4809910000000  0.4215470000000 1.0
C      1  0.5046680000000  0.5978680000000  0.5472490000000 1.0
C      1  0.5215150000000  0.5567660000000  0.5664030000000 1.0
C      1  0.4808860000000  0.4997030000000  0.4610370000000 1.0
C      1  0.4099020000000  0.4191540000000  0.5298310000000 1.0
C      1  0.5200690000000  0.4294300000000  0.5257070000000 1.0
C      1  0.4986920000000  0.5091880000000  0.5722620000000 1.0
C      1  0.4296180000000  0.4337580000000  0.5198600000000 1.0
C      1  0.5414750000000  0.4120550000000  0.5234770000000 1.0
C      1  0.4519960000000  0.5408070000000  0.4995780000000 1.0
C      1  0.4846800000000  0.4015370000000  0.5049150000000 1.0
C      1  0.4577980000000  0.4579880000000  0.4584190000000 1.0
C      1  0.5287640000000  0.5789570000000  0.4936340000000 1.0
C      1  0.5241600000000  0.5771320000000  0.5458420000000 1.0
C      1  0.5354570000000  0.5699090000000  0.5200670000000 1.0
C      1  0.4756860000000  0.5566030000000  0.4535410000000 1.0
C      1  0.4446310000000  0.4925260000000  0.4913850000000 1.0
C      1  0.5006500000000  0.5325420000000  0.4261730000000 1.0
C      1  0.5089880000000  0.5051250000000  0.4192660000000 1.0
C      1  0.4717240000000  0.4994490000000  0.4877240000000 1.0
C      1  0.5606550000000  0.5324080000000  0.4470890000000 1.0
C      1  0.4597380000000  0.5559020000000  0.4766000000000 1.0
C      1  0.5418270000000  0.5418900000000  0.5189980000000 1.0
C      1  0.5437580000000  0.4719450000000  0.5361940000000 1.0
C      1  0.5604150000000  0.4883310000000  0.5232160000000 1.0
C      1  0.5831350000000  0.3804010000000  0.5184530000000 1.0
C      1  0.5591520000000  0.5065360000000  0.4357320000000 1.0
C      1  0.4932850000000  0.4652340000000  0.5412400000000 1.0
C      1  0.5297120000000  0.5618410000000  0.4704370000000 1.0
C      1  0.4631520000000  0.5116360000000  0.4424510000000 1.0
C      1  0.4720940000000  0.5360430000000  0.4322070000000 1.0
C      1  0.5151870000000  0.4905620000000  0.4909970000000 1.0
C      1  0.4462930000000  0.4640480000000  0.4853690000000 1.0
C      1  0.4927290000000  0.5008210000000  0.5060300000000 1.0
C      1  0.4335520000000  0.5181750000000  0.4980340000000 1.0
C      1  0.5371390000000  0.5008340000000  0.4191540000000 1.0
C      1  0.5104170000000  0.5335210000000  0.5752240000000 1.0
C      1  0.4510450000000  0.4484350000000  0.5093740000000 1.0
END
