TITL C-627108-131-1943 1.78268346220309 125000 -1133.90157622074 0 0 186 (C1) n - 1
REM
REM in /home/nfs/bkarasulu/CARBON/AIRSS/Generating-Clusters/LCBOP/Only-C1/SD-CG/FIRE-CG
REM
REM
REM
REM
REM
REM ./C.cell (11c1c37f851c82e70ff6c80c92926a4b)
REM AIRSS Version 0.9.1 bugfix July 2018 build 013d7b7c2542+ Fri, 06 Jul 2018 19:26:36 +0100
REM compiler GCC version 9.2.1 20190827 (Red Hat 9.2.1-1)
REM options -cpp -mtune=generic -march=x86-64 -g -O0 -fpre-include=/usr/include/finclude/math-vector-fortran.h
REM seed -2073885105 1839765612 -2039421798 1501655272 -1134682568 -1859801610 -1651646354 -205252285 1864281876 -1197518744 207466554 1036185600 -1507985522 1672146156 1318441317 411013610 173378520 1032858249 -1472480895 2120383896 1516819484 895231000 426084764 1738704443 -703017580 495954115 -1138031927 -823286135 1648826293 -97225664 -821324703 708513902 -763808093
REM
CELL 1.54180   50.00000   50.00000   50.00000   90.00000   90.00000   90.00000
LATT -1
SFAC C  
C      1  0.4793050000000  0.4133160000000  0.5623250000000 1.0
C      1  0.5525540000000  0.4574730000000  0.4144280000000 1.0
C      1  0.4887650000000  0.5764690000000  0.5806610000000 1.0
C      1  0.5076680000000  0.4617300000000  0.4001690000000 1.0
C      1  0.6029140000000  0.5137100000000  0.6017530000000 1.0
C      1  0.5533580000000  0.5957570000000  0.5468010000000 1.0
C      1  0.4344090000000  0.4429130000000  0.4510130000000 1.0
C      1  0.5567880000000  0.5045820000000  0.3632180000000 1.0
C      1  0.4796150000000  0.4860650000000  0.4310850000000 1.0
C      1  0.5818720000000  0.4758710000000  0.6258430000000 1.0
C      1  0.5816170000000  0.4366650000000  0.5266720000000 1.0
C      1  0.3889670000000  0.4935560000000  0.5566080000000 1.0
C      1  0.5108030000000  0.4985590000000  0.3743840000000 1.0
C      1  0.5470890000000  0.4921370000000  0.5225790000000 1.0
C      1  0.4691720000000  0.4803740000000  0.4561070000000 1.0
C      1  0.3716390000000  0.4397040000000  0.5254600000000 1.0
C      1  0.4278170000000  0.4940870000000  0.5875530000000 1.0
C      1  0.4981610000000  0.4828160000000  0.5121660000000 1.0
C      1  0.5346090000000  0.5501850000000  0.5228300000000 1.0
C      1  0.4485730000000  0.4235990000000  0.3946000000000 1.0
C      1  0.5663800000000  0.5121850000000  0.5233410000000 1.0
C      1  0.5072440000000  0.4349240000000  0.5272750000000 1.0
C      1  0.3994010000000  0.4927130000000  0.5058120000000 1.0
C      1  0.5618890000000  0.3961260000000  0.5302090000000 1.0
C      1  0.5023990000000  0.5950750000000  0.4318440000000 1.0
C      1  0.4772930000000  0.6002320000000  0.4239230000000 1.0
C      1  0.5634650000000  0.4561370000000  0.6224030000000 1.0
C      1  0.5219470000000  0.5257340000000  0.4435300000000 1.0
C      1  0.4731430000000  0.5866870000000  0.4918010000000 1.0
C      1  0.5136250000000  0.4814380000000  0.6359180000000 1.0
C      1  0.5152090000000  0.5152200000000  0.5741860000000 1.0
C      1  0.5613820000000  0.6004960000000  0.4915330000000 1.0
C      1  0.4452690000000  0.5115380000000  0.5725500000000 1.0
C      1  0.3778160000000  0.5128210000000  0.4467620000000 1.0
C      1  0.5076220000000  0.4521120000000  0.5975400000000 1.0
C      1  0.4317900000000  0.5517460000000  0.4221130000000 1.0
C      1  0.3830940000000  0.4875680000000  0.5293700000000 1.0
C      1  0.6313020000000  0.3989700000000  0.4359820000000 1.0
C      1  0.4249990000000  0.4027120000000  0.4713510000000 1.0
C      1  0.5994630000000  0.4786610000000  0.5092290000000 1.0
C      1  0.4973870000000  0.5370680000000  0.4518260000000 1.0
C      1  0.4029730000000  0.5909410000000  0.5347760000000 1.0
C      1  0.4941020000000  0.3794410000000  0.4645300000000 1.0
C      1  0.5329820000000  0.4634510000000  0.4866340000000 1.0
C      1  0.4671930000000  0.5311820000000  0.5799550000000 1.0
C      1  0.4436010000000  0.4355880000000  0.6310930000000 1.0
C      1  0.5299270000000  0.5413200000000  0.3796040000000 1.0
C      1  0.4467950000000  0.5084610000000  0.3994670000000 1.0
C      1  0.4321920000000  0.3953370000000  0.4987020000000 1.0
C      1  0.4187590000000  0.4524760000000  0.5639770000000 1.0
C      1  0.5057080000000  0.4723330000000  0.4874060000000 1.0
C      1  0.5943320000000  0.5049840000000  0.5196810000000 1.0
C      1  0.4337730000000  0.4798950000000  0.6115410000000 1.0
C      1  0.5823730000000  0.5574260000000  0.5793940000000 1.0
C      1  0.5193900000000  0.5099880000000  0.4199000000000 1.0
C      1  0.4513440000000  0.5948980000000  0.4281660000000 1.0
C      1  0.4313240000000  0.4445450000000  0.4004100000000 1.0
C      1  0.5516700000000  0.4694310000000  0.5065600000000 1.0
C      1  0.4205180000000  0.5129070000000  0.5029020000000 1.0
C      1  0.4404210000000  0.5570420000000  0.5099780000000 1.0
C      1  0.4750550000000  0.4201330000000  0.3952870000000 1.0
C      1  0.5808210000000  0.4107460000000  0.5134260000000 1.0
C      1  0.6214030000000  0.4680490000000  0.4953570000000 1.0
C      1  0.5438640000000  0.6426150000000  0.4717660000000 1.0
C      1  0.4268540000000  0.4552380000000  0.4273220000000 1.0
C      1  0.4745920000000  0.4192260000000  0.4983510000000 1.0
C      1  0.4707710000000  0.4933700000000  0.4038570000000 1.0
C      1  0.5767580000000  0.4440360000000  0.4168250000000 1.0
C      1  0.4968980000000  0.4346430000000  0.4002080000000 1.0
C      1  0.4528500000000  0.5728560000000  0.5310160000000 1.0
C      1  0.3956770000000  0.4720840000000  0.4861230000000 1.0
C      1  0.3729940000000  0.5109930000000  0.5704720000000 1.0
C      1  0.6317090000000  0.4443010000000  0.4839400000000 1.0
C      1  0.5541760000000  0.5332230000000  0.3662070000000 1.0
C      1  0.4503290000000  0.3948990000000  0.4563240000000 1.0
C      1  0.6392560000000  0.5524590000000  0.4532190000000 1.0
C      1  0.4136010000000  0.5698900000000  0.5519230000000 1.0
C      1  0.5465980000000  0.5201450000000  0.4566160000000 1.0
C      1  0.6142970000000  0.4236650000000  0.4739410000000 1.0
C      1  0.4645620000000  0.4387420000000  0.4757570000000 1.0
C      1  0.5049420000000  0.4577430000000  0.6253650000000 1.0
C      1  0.4996350000000  0.4624700000000  0.5320560000000 1.0
C      1  0.5582810000000  0.5653080000000  0.5918170000000 1.0
C      1  0.4257930000000  0.4669560000000  0.3829250000000 1.0
C      1  0.5978470000000  0.5384120000000  0.5933180000000 1.0
C      1  0.6100490000000  0.5289330000000  0.5182480000000 1.0
C      1  0.5104690000000  0.4797120000000  0.4268460000000 1.0
C      1  0.4857790000000  0.4609120000000  0.4700670000000 1.0
C      1  0.4152890000000  0.4288660000000  0.4655780000000 1.0
C      1  0.5758100000000  0.5519060000000  0.4935430000000 1.0
C      1  0.5179780000000  0.5194930000000  0.3932240000000 1.0
C      1  0.3960810000000  0.4959130000000  0.4389730000000 1.0
C      1  0.4240630000000  0.4916070000000  0.3982850000000 1.0
C      1  0.5622010000000  0.5405980000000  0.4686670000000 1.0
C      1  0.6588620000000  0.4406530000000  0.4827370000000 1.0
C      1  0.4453140000000  0.5080940000000  0.4885170000000 1.0
C      1  0.5164460000000  0.4229200000000  0.4727710000000 1.0
C      1  0.4635320000000  0.5617810000000  0.5756780000000 1.0
C      1  0.4673320000000  0.3776740000000  0.4753190000000 1.0
C      1  0.4710940000000  0.4173160000000  0.4516690000000 1.0
C      1  0.4934110000000  0.5293340000000  0.5332380000000 1.0
C      1  0.4770980000000  0.6119020000000  0.4757850000000 1.0
C      1  0.5370980000000  0.4636300000000  0.3904780000000 1.0
C      1  0.5586070000000  0.5380760000000  0.5154250000000 1.0
C      1  0.4458630000000  0.4586320000000  0.4934780000000 1.0
C      1  0.5533410000000  0.4115330000000  0.5536530000000 1.0
C      1  0.5067180000000  0.5514860000000  0.5200770000000 1.0
C      1  0.4205080000000  0.5375390000000  0.5167140000000 1.0
C      1  0.5186440000000  0.5795750000000  0.4794840000000 1.0
C      1  0.5647680000000  0.6249960000000  0.4768420000000 1.0
C      1  0.6552930000000  0.5568520000000  0.4331400000000 1.0
C      1  0.5209370000000  0.6208500000000  0.5050510000000 1.0
C      1  0.4427740000000  0.5705260000000  0.5575100000000 1.0
C      1  0.6228190000000  0.5479470000000  0.4734970000000 1.0
C      1  0.5174490000000  0.5852480000000  0.4517570000000 1.0
C      1  0.4408030000000  0.4577690000000  0.5219030000000 1.0
C      1  0.5331660000000  0.4458750000000  0.4632430000000 1.0
C      1  0.4866910000000  0.5088810000000  0.5145110000000 1.0
C      1  0.4561080000000  0.4746810000000  0.5400120000000 1.0
C      1  0.5373150000000  0.4850980000000  0.3705620000000 1.0
C      1  0.4560890000000  0.4210990000000  0.5738120000000 1.0
C      1  0.5755890000000  0.5819330000000  0.5352340000000 1.0
C      1  0.4741090000000  0.5265790000000  0.6092780000000 1.0
C      1  0.4095610000000  0.4793070000000  0.5702200000000 1.0
C      1  0.4673980000000  0.5948060000000  0.5206060000000 1.0
C      1  0.4057770000000  0.5899970000000  0.4816560000000 1.0
C      1  0.4475630000000  0.4832430000000  0.4757640000000 1.0
C      1  0.3970140000000  0.4304810000000  0.5273660000000 1.0
C      1  0.4612990000000  0.3932200000000  0.5003900000000 1.0
C      1  0.5276130000000  0.5990810000000  0.5538740000000 1.0
C      1  0.3964210000000  0.4465190000000  0.4770930000000 1.0
C      1  0.4366850000000  0.4512570000000  0.6089360000000 1.0
C      1  0.5762580000000  0.5807410000000  0.5055000000000 1.0
C      1  0.5337000000000  0.5657930000000  0.6024720000000 1.0
C      1  0.5724540000000  0.4340340000000  0.5534530000000 1.0
C      1  0.5560930000000  0.4454100000000  0.5972450000000 1.0
C      1  0.4272720000000  0.5778570000000  0.4668970000000 1.0
C      1  0.5778570000000  0.4598770000000  0.5117020000000 1.0
C      1  0.5961140000000  0.4868210000000  0.6037950000000 1.0
C      1  0.5026480000000  0.5929390000000  0.5620400000000 1.0
C      1  0.6143250000000  0.4179680000000  0.4460080000000 1.0
C      1  0.5050640000000  0.4184290000000  0.5510640000000 1.0
C      1  0.4922790000000  0.5252960000000  0.5615730000000 1.0
C      1  0.5288470000000  0.4179240000000  0.5667810000000 1.0
C      1  0.5730200000000  0.5508170000000  0.3573540000000 1.0
C      1  0.4912400000000  0.4393060000000  0.6414710000000 1.0
C      1  0.5968890000000  0.4317300000000  0.4289650000000 1.0
C      1  0.5381390000000  0.5064410000000  0.5828400000000 1.0
C      1  0.4150340000000  0.4818450000000  0.4245510000000 1.0
C      1  0.5111680000000  0.5612260000000  0.3728250000000 1.0
C      1  0.4064960000000  0.5443640000000  0.5405400000000 1.0
C      1  0.4198420000000  0.4442430000000  0.5363700000000 1.0
C      1  0.4869220000000  0.5394700000000  0.4779300000000 1.0
C      1  0.4894480000000  0.4630400000000  0.5787670000000 1.0
C      1  0.4477760000000  0.5700330000000  0.4850240000000 1.0
C      1  0.4900020000000  0.4819140000000  0.3848610000000 1.0
C      1  0.4960890000000  0.5644720000000  0.4930260000000 1.0
C      1  0.5037010000000  0.4235950000000  0.5009560000000 1.0
C      1  0.6047050000000  0.5429880000000  0.4938890000000 1.0
C      1  0.3998080000000  0.5951210000000  0.5078780000000 1.0
C      1  0.4805280000000  0.4663200000000  0.5523050000000 1.0
C      1  0.4449220000000  0.5371750000000  0.4008910000000 1.0
C      1  0.6100000000000  0.5463280000000  0.5407570000000 1.0
C      1  0.5378420000000  0.4669230000000  0.4401490000000 1.0
C      1  0.5174590000000  0.6394930000000  0.4833090000000 1.0
C      1  0.5530110000000  0.4922090000000  0.4524900000000 1.0
C      1  0.5946850000000  0.4698940000000  0.5809530000000 1.0
C      1  0.4481530000000  0.5007650000000  0.5464580000000 1.0
C      1  0.5333490000000  0.5969260000000  0.4963620000000 1.0
C      1  0.4662340000000  0.4303190000000  0.6443280000000 1.0
C      1  0.4715410000000  0.5198620000000  0.4925090000000 1.0
C      1  0.4691480000000  0.6198550000000  0.5308240000000 1.0
C      1  0.5972740000000  0.4088750000000  0.4910400000000 1.0
C      1  0.4610290000000  0.5521450000000  0.3828370000000 1.0
C      1  0.4842450000000  0.5622500000000  0.3739760000000 1.0
C      1  0.5756630000000  0.4494990000000  0.5763360000000 1.0
C      1  0.4994970000000  0.4067400000000  0.4554430000000 1.0
C      1  0.4349750000000  0.4923640000000  0.6358190000000 1.0
C      1  0.4816300000000  0.5467230000000  0.4318100000000 1.0
C      1  0.3645980000000  0.4658760000000  0.5262740000000 1.0
C      1  0.5068800000000  0.5683830000000  0.6012190000000 1.0
C      1  0.5302380000000  0.4366400000000  0.5889740000000 1.0
C      1  0.4920400000000  0.6343930000000  0.4717890000000 1.0
C      1  0.4361800000000  0.4395070000000  0.5827480000000 1.0
C      1  0.4336540000000  0.5752160000000  0.4387030000000 1.0
C      1  0.5904570000000  0.5637140000000  0.5523650000000 1.0
END
