TITL C-627110-360-1650 9.11903980441358e-07 125000 -1179.52598965195 0 0 193 (C1) n - 1
REM
REM in /home/nfs/bkarasulu/CARBON/AIRSS/Generating-Clusters/LCBOP/Only-C1/SD-CG/FIRE-CG
REM
REM
REM
REM
REM
REM ./C.cell (11c1c37f851c82e70ff6c80c92926a4b)
REM AIRSS Version 0.9.1 bugfix July 2018 build 013d7b7c2542+ Fri, 06 Jul 2018 19:26:36 +0100
REM compiler GCC version 9.2.1 20190827 (Red Hat 9.2.1-1)
REM options -cpp -mtune=generic -march=x86-64 -g -O0 -fpre-include=/usr/include/finclude/math-vector-fortran.h
REM seed -488581957 -1853998686 640816994 535815105 -1574895933 731031590 1409472094 1686871231 -1764215261 403983757 1021449012 642230747 2124210595 1056634338 1696545401 1256123995 382188274 1291979852 -699870505 1791868516 -113803662 593220863 191391105 1080343827 -547368264 796438742 -1094337823 56458792 907782643 -1175230135 -1841100180 30409535 1951267455
REM
CELL 1.54180   50.00000   50.00000   50.00000   90.00000   90.00000   90.00000
LATT -1
SFAC C  
C      1  0.4141900000000  0.4374190000000  0.5132310000000 1.0
C      1  0.4637150000000  0.4091150000000  0.4694780000000 1.0
C      1  0.5785370000000  0.5027750000000  0.3862380000000 1.0
C      1  0.5605390000000  0.4870640000000  0.4545790000000 1.0
C      1  0.4077520000000  0.5263100000000  0.4352620000000 1.0
C      1  0.4564370000000  0.5233450000000  0.4464870000000 1.0
C      1  0.4817180000000  0.5711120000000  0.5828560000000 1.0
C      1  0.4778760000000  0.4018700000000  0.5356020000000 1.0
C      1  0.5605240000000  0.4140790000000  0.5942390000000 1.0
C      1  0.5136920000000  0.5214430000000  0.6230080000000 1.0
C      1  0.4141370000000  0.4107950000000  0.4293870000000 1.0
C      1  0.4661670000000  0.4458660000000  0.5880930000000 1.0
C      1  0.5493420000000  0.4726200000000  0.4761030000000 1.0
C      1  0.4993280000000  0.5048940000000  0.5230430000000 1.0
C      1  0.4972140000000  0.6383250000000  0.6047020000000 1.0
C      1  0.5632400000000  0.3724610000000  0.4080790000000 1.0
C      1  0.6058570000000  0.5357260000000  0.4495490000000 1.0
C      1  0.4952280000000  0.3817930000000  0.3814310000000 1.0
C      1  0.5484150000000  0.4860980000000  0.5022050000000 1.0
C      1  0.4317790000000  0.5413260000000  0.4437090000000 1.0
C      1  0.4282770000000  0.5440540000000  0.4968400000000 1.0
C      1  0.5805900000000  0.5013490000000  0.3602990000000 1.0
C      1  0.4316810000000  0.4147160000000  0.5087880000000 1.0
C      1  0.4730250000000  0.5069310000000  0.3809340000000 1.0
C      1  0.4573720000000  0.5035490000000  0.5798320000000 1.0
C      1  0.4395710000000  0.3909130000000  0.5974320000000 1.0
C      1  0.5428570000000  0.5677500000000  0.5110970000000 1.0
C      1  0.5012060000000  0.5465430000000  0.4944160000000 1.0
C      1  0.5765020000000  0.5083020000000  0.4134680000000 1.0
C      1  0.5145220000000  0.4524370000000  0.3895280000000 1.0
C      1  0.4454580000000  0.3949540000000  0.3889470000000 1.0
C      1  0.5204500000000  0.5769450000000  0.5520630000000 1.0
C      1  0.4208100000000  0.4341100000000  0.4441620000000 1.0
C      1  0.5496130000000  0.3907820000000  0.5809430000000 1.0
C      1  0.5944770000000  0.6077350000000  0.4973110000000 1.0
C      1  0.5958050000000  0.5915560000000  0.5453460000000 1.0
C      1  0.5353960000000  0.4551140000000  0.5635500000000 1.0
C      1  0.5179440000000  0.5735700000000  0.4210110000000 1.0
C      1  0.5382340000000  0.5595900000000  0.5377270000000 1.0
C      1  0.3899930000000  0.4823110000000  0.4276140000000 1.0
C      1  0.4243410000000  0.4472600000000  0.5617960000000 1.0
C      1  0.5096910000000  0.5364900000000  0.4487600000000 1.0
C      1  0.5170690000000  0.3684880000000  0.5198910000000 1.0
C      1  0.5147480000000  0.5449150000000  0.4213110000000 1.0
C      1  0.5822000000000  0.4260080000000  0.4478320000000 1.0
C      1  0.4586270000000  0.3814380000000  0.5810970000000 1.0
C      1  0.5289160000000  0.5784970000000  0.4673900000000 1.0
C      1  0.5497240000000  0.4190520000000  0.4049430000000 1.0
C      1  0.3844950000000  0.4640760000000  0.4466800000000 1.0
C      1  0.4264590000000  0.5707490000000  0.4862840000000 1.0
C      1  0.5953130000000  0.6388600000000  0.5708290000000 1.0
C      1  0.4555120000000  0.4857930000000  0.3910280000000 1.0
C      1  0.5379120000000  0.4790320000000  0.6200080000000 1.0
C      1  0.5385650000000  0.4375090000000  0.3861120000000 1.0
C      1  0.4711340000000  0.5904410000000  0.4435670000000 1.0
C      1  0.5766500000000  0.4277030000000  0.5735330000000 1.0
C      1  0.5697810000000  0.5025550000000  0.5738540000000 1.0
C      1  0.4929840000000  0.4958920000000  0.4684640000000 1.0
C      1  0.4089310000000  0.4504970000000  0.4878910000000 1.0
C      1  0.5792320000000  0.5449920000000  0.4902040000000 1.0
C      1  0.5228360000000  0.4948130000000  0.5088700000000 1.0
C      1  0.3805630000000  0.5430940000000  0.5324840000000 1.0
C      1  0.3974210000000  0.5348120000000  0.5548710000000 1.0
C      1  0.5251530000000  0.5482490000000  0.4729280000000 1.0
C      1  0.5204860000000  0.3832450000000  0.3892650000000 1.0
C      1  0.5445860000000  0.3912030000000  0.4009760000000 1.0
C      1  0.3998840000000  0.4985360000000  0.5132260000000 1.0
C      1  0.5703220000000  0.4265000000000  0.5219360000000 1.0
C      1  0.4622530000000  0.5283660000000  0.3676050000000 1.0
C      1  0.6152880000000  0.4895640000000  0.5329110000000 1.0
C      1  0.5553480000000  0.4979220000000  0.4292150000000 1.0
C      1  0.4697020000000  0.5675270000000  0.4605220000000 1.0
C      1  0.3854400000000  0.5302150000000  0.4817860000000 1.0
C      1  0.5284460000000  0.6026440000000  0.5569550000000 1.0
C      1  0.5381270000000  0.5073320000000  0.6153960000000 1.0
C      1  0.4506040000000  0.5171840000000  0.5576530000000 1.0
C      1  0.5418350000000  0.5330780000000  0.5488030000000 1.0
C      1  0.5849420000000  0.4541260000000  0.5783660000000 1.0
C      1  0.4110870000000  0.5174730000000  0.4922410000000 1.0
C      1  0.5172310000000  0.5905390000000  0.4448340000000 1.0
C      1  0.5479920000000  0.4300000000000  0.6140060000000 1.0
C      1  0.5878630000000  0.4259060000000  0.5000940000000 1.0
C      1  0.5900540000000  0.4254630000000  0.4733930000000 1.0
C      1  0.4666830000000  0.4588050000000  0.3945410000000 1.0
C      1  0.4419140000000  0.5877250000000  0.5323370000000 1.0
C      1  0.5586880000000  0.5183080000000  0.5972200000000 1.0
C      1  0.5506280000000  0.5463190000000  0.4915840000000 1.0
C      1  0.4929420000000  0.4327610000000  0.4327250000000 1.0
C      1  0.5431470000000  0.4324110000000  0.5157000000000 1.0
C      1  0.5962670000000  0.5654500000000  0.5584480000000 1.0
C      1  0.4391620000000  0.4384610000000  0.5840550000000 1.0
C      1  0.4716730000000  0.3867520000000  0.5120450000000 1.0
C      1  0.4564280000000  0.5412410000000  0.5440430000000 1.0
C      1  0.4669270000000  0.5214450000000  0.6317890000000 1.0
C      1  0.4740560000000  0.4929750000000  0.5121180000000 1.0
C      1  0.4007720000000  0.4458920000000  0.4609990000000 1.0
C      1  0.5683090000000  0.4962060000000  0.5211880000000 1.0
C      1  0.4447160000000  0.4972040000000  0.4538500000000 1.0
C      1  0.5675960000000  0.4264630000000  0.4254400000000 1.0
C      1  0.6132360000000  0.4871400000000  0.5595750000000 1.0
C      1  0.4889510000000  0.6158270000000  0.5916500000000 1.0
C      1  0.4691130000000  0.3862630000000  0.3807290000000 1.0
C      1  0.4729100000000  0.3902240000000  0.5603780000000 1.0
C      1  0.3738020000000  0.5417760000000  0.5058300000000 1.0
C      1  0.5912280000000  0.6242680000000  0.4768690000000 1.0
C      1  0.4905320000000  0.4704860000000  0.4786990000000 1.0
C      1  0.5118180000000  0.6096100000000  0.4986640000000 1.0
C      1  0.4924630000000  0.3676780000000  0.5077280000000 1.0
C      1  0.4298300000000  0.4941740000000  0.4013940000000 1.0
C      1  0.4985370000000  0.5345530000000  0.5202980000000 1.0
C      1  0.5034950000000  0.5063280000000  0.5723510000000 1.0
C      1  0.5523780000000  0.3917280000000  0.5520300000000 1.0
C      1  0.4623650000000  0.6076910000000  0.4920490000000 1.0
C      1  0.5015200000000  0.5053690000000  0.3845760000000 1.0
C      1  0.4725010000000  0.5488410000000  0.6236880000000 1.0
C      1  0.4992780000000  0.4912430000000  0.5493980000000 1.0
C      1  0.5030430000000  0.5495280000000  0.6249280000000 1.0
C      1  0.4882090000000  0.5065590000000  0.6188650000000 1.0
C      1  0.4125190000000  0.4560930000000  0.5374090000000 1.0
C      1  0.4332120000000  0.5562110000000  0.5900590000000 1.0
C      1  0.4832530000000  0.5482500000000  0.5397700000000 1.0
C      1  0.5959930000000  0.4946140000000  0.5132230000000 1.0
C      1  0.5169940000000  0.5211630000000  0.4045700000000 1.0
C      1  0.4953110000000  0.4232930000000  0.5291240000000 1.0
C      1  0.4554400000000  0.4734330000000  0.4420980000000 1.0
C      1  0.4033050000000  0.4845750000000  0.5376990000000 1.0
C      1  0.4800460000000  0.4657350000000  0.5045780000000 1.0
C      1  0.4469280000000  0.4458820000000  0.4437930000000 1.0
C      1  0.5865110000000  0.6393070000000  0.4561050000000 1.0
C      1  0.4268010000000  0.4717450000000  0.4886640000000 1.0
C      1  0.5285450000000  0.4995570000000  0.4208320000000 1.0
C      1  0.4178680000000  0.5535770000000  0.5650460000000 1.0
C      1  0.5897170000000  0.4816100000000  0.5743370000000 1.0
C      1  0.4000770000000  0.5056230000000  0.5579380000000 1.0
C      1  0.5952690000000  0.5277760000000  0.4745120000000 1.0
C      1  0.4543020000000  0.6071980000000  0.5496950000000 1.0
C      1  0.4365280000000  0.5620630000000  0.5441060000000 1.0
C      1  0.4236060000000  0.5670930000000  0.4572240000000 1.0
C      1  0.5962830000000  0.6159580000000  0.5584360000000 1.0
C      1  0.4126670000000  0.5872240000000  0.4406520000000 1.0
C      1  0.4935220000000  0.6051680000000  0.4531360000000 1.0
C      1  0.5080520000000  0.4821590000000  0.4292080000000 1.0
C      1  0.5997060000000  0.5471280000000  0.5363460000000 1.0
C      1  0.4982220000000  0.5894960000000  0.5987320000000 1.0
C      1  0.5221710000000  0.5265190000000  0.5685950000000 1.0
C      1  0.4752510000000  0.5524730000000  0.4839240000000 1.0
C      1  0.4863990000000  0.4497740000000  0.5270750000000 1.0
C      1  0.3947380000000  0.3932490000000  0.4393000000000 1.0
C      1  0.4830550000000  0.5023530000000  0.5914910000000 1.0
C      1  0.5331820000000  0.4502510000000  0.4668180000000 1.0
C      1  0.4537160000000  0.4013490000000  0.4951160000000 1.0
C      1  0.5311480000000  0.3896390000000  0.5327570000000 1.0
C      1  0.4273620000000  0.6018580000000  0.4234290000000 1.0
C      1  0.6028000000000  0.5040940000000  0.4876860000000 1.0
C      1  0.5639230000000  0.4400530000000  0.3384210000000 1.0
C      1  0.6262550000000  0.5547150000000  0.4482610000000 1.0
C      1  0.4337600000000  0.4983530000000  0.4814670000000 1.0
C      1  0.5933490000000  0.5591630000000  0.5107210000000 1.0
C      1  0.4413330000000  0.5909270000000  0.5028850000000 1.0
C      1  0.5722390000000  0.4142350000000  0.5477690000000 1.0
C      1  0.3770500000000  0.3772820000000  0.4498510000000 1.0
C      1  0.3853660000000  0.5305100000000  0.4533360000000 1.0
C      1  0.5313080000000  0.5894510000000  0.4947460000000 1.0
C      1  0.5633660000000  0.5474010000000  0.5975320000000 1.0
C      1  0.5167410000000  0.5720480000000  0.6132840000000 1.0
C      1  0.5221150000000  0.4159650000000  0.5242360000000 1.0
C      1  0.5180800000000  0.4523400000000  0.5850630000000 1.0
C      1  0.4542360000000  0.6008080000000  0.4239990000000 1.0
C      1  0.5521370000000  0.4402330000000  0.3616640000000 1.0
C      1  0.5438330000000  0.5661050000000  0.6070150000000 1.0
C      1  0.5610160000000  0.5111830000000  0.5463910000000 1.0
C      1  0.4906880000000  0.4440620000000  0.4043580000000 1.0
C      1  0.4684630000000  0.4269940000000  0.4478330000000 1.0
C      1  0.4554510000000  0.5365370000000  0.4965440000000 1.0
C      1  0.5318620000000  0.4531500000000  0.6100440000000 1.0
C      1  0.6440720000000  0.5737270000000  0.4487520000000 1.0
C      1  0.4699480000000  0.6167740000000  0.5697630000000 1.0
C      1  0.4300810000000  0.4160740000000  0.5986600000000 1.0
C      1  0.4086150000000  0.5021130000000  0.4191940000000 1.0
C      1  0.5165740000000  0.4372540000000  0.4493440000000 1.0
C      1  0.4607540000000  0.5591690000000  0.5990610000000 1.0
C      1  0.4889790000000  0.6123730000000  0.4815500000000 1.0
C      1  0.5952590000000  0.5244760000000  0.4263410000000 1.0
C      1  0.4862040000000  0.5200030000000  0.4534930000000 1.0
C      1  0.4908180000000  0.4528070000000  0.5769910000000 1.0
C      1  0.4815830000000  0.4775220000000  0.4311230000000 1.0
C      1  0.5851540000000  0.5578400000000  0.5828160000000 1.0
C      1  0.5945290000000  0.5877630000000  0.5164870000000 1.0
C      1  0.5128110000000  0.4792520000000  0.3786640000000 1.0
C      1  0.4892980000000  0.4648260000000  0.5510430000000 1.0
C      1  0.4271880000000  0.4046490000000  0.4055030000000 1.0
C      1  0.4563390000000  0.5085890000000  0.4983110000000 1.0
C      1  0.4943880000000  0.5663990000000  0.5578210000000 1.0
END
