TITL C-627107-135-1116 -2.07380505049601e-08 125000 -306.333424467471 0 0 51 (C1) n - 1
REM
REM in /home/nfs/bkarasulu/CARBON/AIRSS/Generating-Clusters/LCBOP/Only-C1/SD-CG/FIRE-CG
REM
REM
REM
REM
REM
REM ./C.cell (11c1c37f851c82e70ff6c80c92926a4b)
REM AIRSS Version 0.9.1 bugfix July 2018 build 013d7b7c2542+ Fri, 06 Jul 2018 19:26:36 +0100
REM compiler GCC version 9.2.1 20190827 (Red Hat 9.2.1-1)
REM options -cpp -mtune=generic -march=x86-64 -g -O0 -fpre-include=/usr/include/finclude/math-vector-fortran.h
REM seed 1554960358 1416713873 1287270073 -817296119 293240147 -2127474523 2138212365 -1048288389 985589583 1846144099 1075748798 192084405 -2043084327 2026485670 -1182105088 317565444 -1704827448 644949247 1335686105 -1000998942 56407162 -639136943 1918139061 -1754638361 -1075702397 2140498727 1161566066 -24653069 1471738524 327461303 -993187383 -1452078106 -1015277838
REM
CELL 1.54180   50.00000   50.00000   50.00000   90.00000   90.00000   90.00000
LATT -1
SFAC C  
C      1  0.5175690000000  0.5423950000000  0.5577880000000 1.0
C      1  0.5469930000000  0.6011280000000  0.5006960000000 1.0
C      1  0.5252030000000  0.6077620000000  0.4862560000000 1.0
C      1  0.5553320000000  0.5760420000000  0.5057790000000 1.0
C      1  0.4683570000000  0.4241130000000  0.5110460000000 1.0
C      1  0.5225870000000  0.4350330000000  0.4920130000000 1.0
C      1  0.4517240000000  0.4387770000000  0.4654170000000 1.0
C      1  0.4497160000000  0.5141290000000  0.4699350000000 1.0
C      1  0.5114840000000  0.4947050000000  0.4248850000000 1.0
C      1  0.5321430000000  0.5224840000000  0.4595980000000 1.0
C      1  0.5338640000000  0.4344370000000  0.5181150000000 1.0
C      1  0.4829100000000  0.5616930000000  0.4261170000000 1.0
C      1  0.4327780000000  0.5066500000000  0.5203870000000 1.0
C      1  0.4488820000000  0.4897690000000  0.4559110000000 1.0
C      1  0.4498070000000  0.4857830000000  0.5320740000000 1.0
C      1  0.5555380000000  0.4867540000000  0.5037540000000 1.0
C      1  0.5235030000000  0.4501830000000  0.4694590000000 1.0
C      1  0.5394650000000  0.5265930000000  0.5488440000000 1.0
C      1  0.4583960000000  0.4232310000000  0.4861250000000 1.0
C      1  0.4356890000000  0.5154290000000  0.4942680000000 1.0
C      1  0.5344920000000  0.5055610000000  0.5082230000000 1.0
C      1  0.5622880000000  0.4414990000000  0.5189340000000 1.0
C      1  0.5599620000000  0.4792130000000  0.4771550000000 1.0
C      1  0.5408590000000  0.4991540000000  0.5582400000000 1.0
C      1  0.4771700000000  0.4451190000000  0.5273080000000 1.0
C      1  0.4848050000000  0.4543870000000  0.5734050000000 1.0
C      1  0.4489930000000  0.4631240000000  0.4548440000000 1.0
C      1  0.4636690000000  0.4705710000000  0.5776600000000 1.0
C      1  0.5230880000000  0.4498120000000  0.5415590000000 1.0
C      1  0.4697330000000  0.4712350000000  0.5185760000000 1.0
C      1  0.5267240000000  0.4969210000000  0.4480910000000 1.0
C      1  0.4924990000000  0.5281380000000  0.5197350000000 1.0
C      1  0.4257950000000  0.5049320000000  0.5664140000000 1.0
C      1  0.5372430000000  0.4736790000000  0.4610650000000 1.0
C      1  0.5087100000000  0.5908460000000  0.4734430000000 1.0
C      1  0.5442550000000  0.5298810000000  0.5200180000000 1.0
C      1  0.4768380000000  0.4933340000000  0.3854250000000 1.0
C      1  0.4946570000000  0.4936890000000  0.4044480000000 1.0
C      1  0.5416980000000  0.4727640000000  0.5474490000000 1.0
C      1  0.5072250000000  0.5633030000000  0.4677350000000 1.0
C      1  0.4669010000000  0.5349440000000  0.4624130000000 1.0
C      1  0.5055950000000  0.5057090000000  0.5075240000000 1.0
C      1  0.4886990000000  0.4842340000000  0.5025270000000 1.0
C      1  0.4960050000000  0.4460100000000  0.5489140000000 1.0
C      1  0.4464230000000  0.4854030000000  0.5615160000000 1.0
C      1  0.5617540000000  0.4696390000000  0.5256050000000 1.0
C      1  0.5289880000000  0.5459040000000  0.4756150000000 1.0
C      1  0.5443980000000  0.5506990000000  0.5004660000000 1.0
C      1  0.4854790000000  0.5532870000000  0.4521110000000 1.0
C      1  0.4179090000000  0.5170860000000  0.5428180000000 1.0
C      1  0.4952040000000  0.5428290000000  0.5422940000000 1.0
END
