TITL C-627112-676-1468 0.000540656225437236 125000 -271.36999912479 0 0 46 (C1) n - 1
REM
REM in /home/nfs/bkarasulu/CARBON/AIRSS/Generating-Clusters/LCBOP/Only-C1/SD-CG/FIRE-CG
REM
REM
REM
REM
REM
REM ./C.cell (11c1c37f851c82e70ff6c80c92926a4b)
REM AIRSS Version 0.9.1 bugfix July 2018 build 013d7b7c2542+ Fri, 06 Jul 2018 19:26:36 +0100
REM compiler GCC version 9.2.1 20190827 (Red Hat 9.2.1-1)
REM options -cpp -mtune=generic -march=x86-64 -g -O0 -fpre-include=/usr/include/finclude/math-vector-fortran.h
REM seed 1824664943 -615157154 1301084739 1955556290 1096353729 -471250274 1988834065 -332820806 -1108463142 996521867 1511834152 813792965 -2135228874 -1766285331 157619498 -1335220643 207769629 -843337761 1854274204 -2007388781 1633534539 517506668 28316263 -1072636799 2113623788 -858213454 1885107372 -1053239973 727545792 -1622103263 127504572 324287891 -1376813104
REM
CELL 1.54180   50.00000   50.00000   50.00000   90.00000   90.00000   90.00000
LATT -1
SFAC C  
C      1  0.5320710000000  0.4767150000000  0.4947640000000 1.0
C      1  0.4216000000000  0.4949790000000  0.5050040000000 1.0
C      1  0.4765330000000  0.5657810000000  0.5586830000000 1.0
C      1  0.4834370000000  0.5653170000000  0.4859040000000 1.0
C      1  0.4442590000000  0.4146820000000  0.4827010000000 1.0
C      1  0.6176190000000  0.5143610000000  0.5410120000000 1.0
C      1  0.4659830000000  0.5862710000000  0.5453350000000 1.0
C      1  0.4913150000000  0.4170630000000  0.4677630000000 1.0
C      1  0.5040750000000  0.5298960000000  0.5753500000000 1.0
C      1  0.5420050000000  0.4521500000000  0.5058290000000 1.0
C      1  0.4706500000000  0.4386220000000  0.5313000000000 1.0
C      1  0.5179220000000  0.5211690000000  0.4514660000000 1.0
C      1  0.5166110000000  0.4296000000000  0.4705010000000 1.0
C      1  0.5847040000000  0.4501940000000  0.5385290000000 1.0
C      1  0.5024500000000  0.5508680000000  0.5063240000000 1.0
C      1  0.4676360000000  0.5251740000000  0.4583060000000 1.0
C      1  0.4213020000000  0.4280130000000  0.4807850000000 1.0
C      1  0.5271710000000  0.4291600000000  0.4976990000000 1.0
C      1  0.4076530000000  0.4506470000000  0.4840460000000 1.0
C      1  0.5964230000000  0.5241730000000  0.5294330000000 1.0
C      1  0.5641360000000  0.4509970000000  0.5225490000000 1.0
C      1  0.5368220000000  0.5001100000000  0.4504140000000 1.0
C      1  0.4688160000000  0.6113100000000  0.4750080000000 1.0
C      1  0.4903620000000  0.5157430000000  0.4472550000000 1.0
C      1  0.5234630000000  0.5460040000000  0.4644380000000 1.0
C      1  0.5282280000000  0.5457770000000  0.4931680000000 1.0
C      1  0.4695290000000  0.4648950000000  0.5357420000000 1.0
C      1  0.4919650000000  0.5427890000000  0.5545250000000 1.0
C      1  0.5317150000000  0.4770900000000  0.4660300000000 1.0
C      1  0.4949990000000  0.5336700000000  0.5277400000000 1.0
C      1  0.5033710000000  0.5670930000000  0.4619980000000 1.0
C      1  0.4076900000000  0.4758360000000  0.4927390000000 1.0
C      1  0.4630900000000  0.5456060000000  0.4754760000000 1.0
C      1  0.4444100000000  0.5011820000000  0.5173200000000 1.0
C      1  0.5748750000000  0.5340960000000  0.5176130000000 1.0
C      1  0.4715740000000  0.4145550000000  0.4881510000000 1.0
C      1  0.4820480000000  0.4192290000000  0.5145930000000 1.0
C      1  0.5154430000000  0.4930320000000  0.5102350000000 1.0
C      1  0.4647030000000  0.5955400000000  0.5204330000000 1.0
C      1  0.4721380000000  0.5915870000000  0.4937450000000 1.0
C      1  0.4932520000000  0.5057300000000  0.5219400000000 1.0
C      1  0.5592660000000  0.5020270000000  0.4349460000000 1.0
C      1  0.5102990000000  0.4159380000000  0.5162350000000 1.0
C      1  0.5526430000000  0.5420900000000  0.5056440000000 1.0
C      1  0.4691070000000  0.4913670000000  0.5263150000000 1.0
C      1  0.5246370000000  0.4518730000000  0.4550150000000 1.0
END
