TITL C-627112-676-11 -0.149156281180769 125000 -89.3545009191989 0 0 17 (C1) n - 1
REM
REM in /home/nfs/bkarasulu/CARBON/AIRSS/Generating-Clusters/LCBOP/Only-C1/SD-CG/FIRE-CG
REM
REM
REM
REM
REM
REM ./C.cell (11c1c37f851c82e70ff6c80c92926a4b)
REM AIRSS Version 0.9.1 bugfix July 2018 build 013d7b7c2542+ Fri, 06 Jul 2018 19:26:36 +0100
REM compiler GCC version 9.2.1 20190827 (Red Hat 9.2.1-1)
REM options -cpp -mtune=generic -march=x86-64 -g -O0 -fpre-include=/usr/include/finclude/math-vector-fortran.h
REM seed 2117494089 -1165347426 1965102394 -1452883468 -2078294131 1713438233 48937653 -814639296 -1006353564 1970607168 878430836 -718098785 -1759612632 -1590899598 1112984589 1495746163 57712183 -279206248 143611809 1365541514 -1923790651 634528398 29209322 -1765850415 939681041 -1783393687 -974454060 -2097737855 1540531695 -1734953751 -1937254470 468651549 1003887396
REM
CELL 1.54180   50.00000   50.00000   50.00000   90.00000   90.00000   90.00000
LATT -1
SFAC C  
C      1  0.5906940000000  0.5395900000000  0.4837210000000 1.0
C      1  0.5644980000000  0.5282170000000  0.5218990000000 1.0
C      1  0.4782250000000  0.4716480000000  0.5065300000000 1.0
C      1  0.4601680000000  0.4558660000000  0.5208480000000 1.0
C      1  0.4082020000000  0.4713720000000  0.5254640000000 1.0
C      1  0.5125100000000  0.5016530000000  0.4795030000000 1.0
C      1  0.5663300000000  0.5357990000000  0.4956450000000 1.0
C      1  0.5425740000000  0.5398030000000  0.4805410000000 1.0
C      1  0.4953410000000  0.4866240000000  0.4929530000000 1.0
C      1  0.3833110000000  0.4788020000000  0.5276740000000 1.0
C      1  0.4687800000000  0.4321270000000  0.5327950000000 1.0
C      1  0.4768120000000  0.4099810000000  0.5439420000000 1.0
C      1  0.5193860000000  0.5885200000000  0.4787830000000 1.0
C      1  0.4334980000000  0.4638200000000  0.5232190000000 1.0
C      1  0.5310360000000  0.5180000000000  0.4664310000000 1.0
C      1  0.5380290000000  0.5131640000000  0.4404270000000 1.0
C      1  0.5306070000000  0.5650140000000  0.4796240000000 1.0
END
