TITL C-627108-131-600 -4.93509859156155e-07 125000 -934.688243854705 0 0 155 (C1) n - 1
REM
REM in /home/nfs/bkarasulu/CARBON/AIRSS/Generating-Clusters/LCBOP/Only-C1/SD-CG/FIRE-CG
REM
REM
REM
REM
REM
REM ./C.cell (11c1c37f851c82e70ff6c80c92926a4b)
REM AIRSS Version 0.9.1 bugfix July 2018 build 013d7b7c2542+ Fri, 06 Jul 2018 19:26:36 +0100
REM compiler GCC version 9.2.1 20190827 (Red Hat 9.2.1-1)
REM options -cpp -mtune=generic -march=x86-64 -g -O0 -fpre-include=/usr/include/finclude/math-vector-fortran.h
REM seed -124970675 -1269201230 -1942401251 287048876 -1093242433 296896847 -158456509 -235022162 212054973 -547443308 1943837406 -1626213021 -1810566266 494054929 1764217163 -339950299 698563957 -1316929420 -315827521 -187121421 1755500548 -876443005 -1209845297 1028899326 -773231623 -1013278868 697725494 -380483453 -2030952383 625504498 -509600232 195226709 1107371648
REM
CELL 1.54180   50.00000   50.00000   50.00000   90.00000   90.00000   90.00000
LATT -1
SFAC C  
C      1  0.4828460000000  0.5260110000000  0.3905200000000 1.0
C      1  0.4933270000000  0.4248800000000  0.5952780000000 1.0
C      1  0.5968760000000  0.4602800000000  0.5162950000000 1.0
C      1  0.4963100000000  0.4731520000000  0.6217790000000 1.0
C      1  0.5071490000000  0.3724830000000  0.5360570000000 1.0
C      1  0.4600110000000  0.4094450000000  0.4930880000000 1.0
C      1  0.5513380000000  0.5496790000000  0.4920620000000 1.0
C      1  0.4665260000000  0.4491270000000  0.4309440000000 1.0
C      1  0.4282300000000  0.5110940000000  0.5254970000000 1.0
C      1  0.4701780000000  0.4351030000000  0.5010610000000 1.0
C      1  0.4903180000000  0.4391560000000  0.4172550000000 1.0
C      1  0.4061340000000  0.4400110000000  0.4963910000000 1.0
C      1  0.5352910000000  0.4700030000000  0.4338780000000 1.0
C      1  0.5761620000000  0.4439780000000  0.4449560000000 1.0
C      1  0.4039790000000  0.4451440000000  0.6191710000000 1.0
C      1  0.5270680000000  0.5047290000000  0.5885200000000 1.0
C      1  0.4403140000000  0.4367580000000  0.4309760000000 1.0
C      1  0.5638670000000  0.5671990000000  0.5102690000000 1.0
C      1  0.5739310000000  0.5802010000000  0.4535270000000 1.0
C      1  0.5220920000000  0.5299290000000  0.6000280000000 1.0
C      1  0.5493680000000  0.4559390000000  0.4556690000000 1.0
C      1  0.4463240000000  0.5600790000000  0.4453360000000 1.0
C      1  0.5493760000000  0.4649900000000  0.3825930000000 1.0
C      1  0.4983110000000  0.4690860000000  0.5612580000000 1.0
C      1  0.5046120000000  0.5422330000000  0.3929740000000 1.0
C      1  0.5163960000000  0.4362670000000  0.4047330000000 1.0
C      1  0.5618640000000  0.4502390000000  0.5589920000000 1.0
C      1  0.5510180000000  0.4472750000000  0.5145340000000 1.0
C      1  0.5057600000000  0.4316480000000  0.5315310000000 1.0
C      1  0.4341720000000  0.5336270000000  0.4487040000000 1.0
C      1  0.5458900000000  0.4893220000000  0.5362240000000 1.0
C      1  0.4062240000000  0.5582240000000  0.4944920000000 1.0
C      1  0.4303500000000  0.5683060000000  0.4885610000000 1.0
C      1  0.4480620000000  0.4969680000000  0.6166190000000 1.0
C      1  0.5092800000000  0.5696480000000  0.4804700000000 1.0
C      1  0.5068860000000  0.4893490000000  0.5762850000000 1.0
C      1  0.5536930000000  0.5228310000000  0.4984800000000 1.0
C      1  0.4781640000000  0.4838290000000  0.5178890000000 1.0
C      1  0.4076390000000  0.4284860000000  0.4702230000000 1.0
C      1  0.4988590000000  0.4332870000000  0.5038700000000 1.0
C      1  0.4228520000000  0.6229680000000  0.5131360000000 1.0
C      1  0.5161270000000  0.5934260000000  0.4975650000000 1.0
C      1  0.5038910000000  0.5255080000000  0.5412720000000 1.0
C      1  0.4489890000000  0.4067300000000  0.4676180000000 1.0
C      1  0.5428720000000  0.4606540000000  0.6303410000000 1.0
C      1  0.4950290000000  0.6062020000000  0.4574950000000 1.0
C      1  0.4732520000000  0.4877250000000  0.6223830000000 1.0
C      1  0.4097410000000  0.4424070000000  0.3868710000000 1.0
C      1  0.4591270000000  0.4432400000000  0.5486670000000 1.0
C      1  0.4670600000000  0.4303690000000  0.6003300000000 1.0
C      1  0.5892570000000  0.4344260000000  0.4718270000000 1.0
C      1  0.5664550000000  0.6069070000000  0.4597910000000 1.0
C      1  0.5176330000000  0.5186900000000  0.4304270000000 1.0
C      1  0.6055090000000  0.5069180000000  0.5422750000000 1.0
C      1  0.4243260000000  0.4388130000000  0.4081650000000 1.0
C      1  0.4233220000000  0.4884030000000  0.6033960000000 1.0
C      1  0.5479050000000  0.4116340000000  0.4781730000000 1.0
C      1  0.4143680000000  0.6118990000000  0.5358220000000 1.0
C      1  0.5358620000000  0.4694230000000  0.5187370000000 1.0
C      1  0.3930430000000  0.4893090000000  0.4996290000000 1.0
C      1  0.5491110000000  0.5502760000000  0.4213820000000 1.0
C      1  0.4377630000000  0.4289070000000  0.5366190000000 1.0
C      1  0.6055250000000  0.5527510000000  0.4840350000000 1.0
C      1  0.3854760000000  0.5147720000000  0.5052200000000 1.0
C      1  0.4110750000000  0.4994550000000  0.5783730000000 1.0
C      1  0.5436680000000  0.6198570000000  0.4668460000000 1.0
C      1  0.4968110000000  0.5153060000000  0.4736590000000 1.0
C      1  0.4351270000000  0.5561280000000  0.5662640000000 1.0
C      1  0.4459770000000  0.4866730000000  0.4666180000000 1.0
C      1  0.6052720000000  0.4790230000000  0.4643230000000 1.0
C      1  0.4305110000000  0.4228930000000  0.4540920000000 1.0
C      1  0.4843800000000  0.5798450000000  0.4685290000000 1.0
C      1  0.4512880000000  0.4895400000000  0.5620490000000 1.0
C      1  0.4115750000000  0.5667990000000  0.5549880000000 1.0
C      1  0.5174220000000  0.6138970000000  0.4759720000000 1.0
C      1  0.6114280000000  0.5074580000000  0.4637370000000 1.0
C      1  0.4379170000000  0.5117650000000  0.4047810000000 1.0
C      1  0.4522910000000  0.5779870000000  0.4694780000000 1.0
C      1  0.5234260000000  0.4533890000000  0.3824710000000 1.0
C      1  0.4641610000000  0.5134660000000  0.5708760000000 1.0
C      1  0.5252740000000  0.4179630000000  0.5477560000000 1.0
C      1  0.4510370000000  0.4618250000000  0.5684960000000 1.0
C      1  0.4548560000000  0.5725800000000  0.4211220000000 1.0
C      1  0.4386250000000  0.5219510000000  0.4998130000000 1.0
C      1  0.5080590000000  0.4421980000000  0.4782140000000 1.0
C      1  0.5648650000000  0.4249900000000  0.4244900000000 1.0
C      1  0.5235610000000  0.5406230000000  0.4138630000000 1.0
C      1  0.5861050000000  0.4852170000000  0.4160190000000 1.0
C      1  0.5115440000000  0.5504770000000  0.5834220000000 1.0
C      1  0.5529250000000  0.4946860000000  0.5834960000000 1.0
C      1  0.5705200000000  0.5336640000000  0.4123610000000 1.0
C      1  0.5344120000000  0.5583090000000  0.4706790000000 1.0
C      1  0.5185110000000  0.5883990000000  0.5251630000000 1.0
C      1  0.4392360000000  0.4718010000000  0.4896200000000 1.0
C      1  0.5560150000000  0.4782720000000  0.4737110000000 1.0
C      1  0.6120490000000  0.5260550000000  0.4855240000000 1.0
C      1  0.4866240000000  0.5260270000000  0.4975000000000 1.0
C      1  0.4917190000000  0.5097770000000  0.5208170000000 1.0
C      1  0.5572250000000  0.4791450000000  0.5606370000000 1.0
C      1  0.4992080000000  0.5723880000000  0.5942710000000 1.0
C      1  0.4695100000000  0.4745020000000  0.4483460000000 1.0
C      1  0.5320400000000  0.5370220000000  0.6525460000000 1.0
C      1  0.4374450000000  0.5144600000000  0.4706410000000 1.0
C      1  0.5506720000000  0.5637550000000  0.4468370000000 1.0
C      1  0.6085610000000  0.5220000000000  0.4382780000000 1.0
C      1  0.6007410000000  0.4578760000000  0.4865030000000 1.0
C      1  0.5193670000000  0.4379670000000  0.5936110000000 1.0
C      1  0.4462180000000  0.4485990000000  0.5934160000000 1.0
C      1  0.5392560000000  0.4219590000000  0.4149390000000 1.0
C      1  0.4659930000000  0.5091950000000  0.4062420000000 1.0
C      1  0.5145890000000  0.5482080000000  0.5551000000000 1.0
C      1  0.5583050000000  0.5648810000000  0.5380210000000 1.0
C      1  0.4868720000000  0.6101030000000  0.4307010000000 1.0
C      1  0.4757730000000  0.4997700000000  0.4317260000000 1.0
C      1  0.3941050000000  0.6050620000000  0.5789110000000 1.0
C      1  0.5332630000000  0.4342580000000  0.4689100000000 1.0
C      1  0.5585510000000  0.5037830000000  0.4793420000000 1.0
C      1  0.4255260000000  0.4995870000000  0.5523560000000 1.0
C      1  0.5890900000000  0.5133630000000  0.4194330000000 1.0
C      1  0.6073340000000  0.4833270000000  0.5295490000000 1.0
C      1  0.4065760000000  0.5948650000000  0.5567700000000 1.0
C      1  0.3941950000000  0.5507000000000  0.5393500000000 1.0
C      1  0.4165300000000  0.4273170000000  0.5197940000000 1.0
C      1  0.5749150000000  0.4121140000000  0.4820560000000 1.0
C      1  0.5948640000000  0.5297480000000  0.5516340000000 1.0
C      1  0.5715350000000  0.4748120000000  0.3941380000000 1.0
C      1  0.5929680000000  0.4688150000000  0.4388050000000 1.0
C      1  0.4952160000000  0.4660130000000  0.4675210000000 1.0
C      1  0.4547780000000  0.5388190000000  0.5718140000000 1.0
C      1  0.5379600000000  0.4338840000000  0.5691720000000 1.0
C      1  0.4940390000000  0.5175290000000  0.4454130000000 1.0
C      1  0.6116880000000  0.5505720000000  0.4389910000000 1.0
C      1  0.4844080000000  0.3722460000000  0.5219980000000 1.0
C      1  0.5984570000000  0.5661140000000  0.4593210000000 1.0
C      1  0.5058070000000  0.4581680000000  0.3621260000000 1.0
C      1  0.3920160000000  0.5416590000000  0.5125420000000 1.0
C      1  0.5747320000000  0.4462170000000  0.5310330000000 1.0
C      1  0.5070490000000  0.4892820000000  0.4777080000000 1.0
C      1  0.5506490000000  0.5138840000000  0.5246460000000 1.0
C      1  0.4233180000000  0.5227160000000  0.4247350000000 1.0
C      1  0.4705950000000  0.5940570000000  0.4160380000000 1.0
C      1  0.5773450000000  0.5501730000000  0.5527530000000 1.0
C      1  0.4447890000000  0.6077820000000  0.4696160000000 1.0
C      1  0.5275000000000  0.5344920000000  0.6270100000000 1.0
C      1  0.4335870000000  0.6230040000000  0.4886830000000 1.0
C      1  0.5248030000000  0.3899540000000  0.5462010000000 1.0
C      1  0.5202560000000  0.4580360000000  0.6149990000000 1.0
C      1  0.4115420000000  0.4680560000000  0.4959310000000 1.0
C      1  0.5299540000000  0.4944060000000  0.4254000000000 1.0
C      1  0.4614450000000  0.4629410000000  0.5049050000000 1.0
C      1  0.4668890000000  0.3865170000000  0.5078270000000 1.0
C      1  0.4877030000000  0.4467680000000  0.5473330000000 1.0
C      1  0.4619790000000  0.5384510000000  0.5014870000000 1.0
C      1  0.5301030000000  0.5686900000000  0.5423800000000 1.0
C      1  0.4232160000000  0.4593440000000  0.6062720000000 1.0
END
