TITL C-627113-6568-700 0.000279214897773326 125000 -729.553612152175 0 0 119 (C1) n - 1
REM
REM in /home/nfs/bkarasulu/CARBON/AIRSS/Generating-Clusters/LCBOP/Only-C1/SD-CG/FIRE-CG
REM
REM
REM
REM
REM
REM ./C.cell (11c1c37f851c82e70ff6c80c92926a4b)
REM AIRSS Version 0.9.1 bugfix July 2018 build 013d7b7c2542+ Fri, 06 Jul 2018 19:26:36 +0100
REM compiler GCC version 9.2.1 20190827 (Red Hat 9.2.1-1)
REM options -cpp -mtune=generic -march=x86-64 -g -O0 -fpre-include=/usr/include/finclude/math-vector-fortran.h
REM seed -285774812 -1709896703 1796974356 925674997 2032494834 1968430602 1492702973 -1086889501 341845248 -1130569915 -1324811992 2112633633 378910963 -1254614272 1860500759 -1064197566 1346139096 -1954943517 2077102482 1978631154 1787189776 1221632742 1970168967 -277085840 1702360006 311495377 611431818 897250213 418477281 1955399463 2052641601 2016435038 -1113369589
REM
CELL 1.54180   50.00000   50.00000   50.00000   90.00000   90.00000   90.00000
LATT -1
SFAC C  
C      1  0.4055480000000  0.4505220000000  0.4785150000000 1.0
C      1  0.5489510000000  0.4482000000000  0.4434720000000 1.0
C      1  0.4938740000000  0.4938350000000  0.4109670000000 1.0
C      1  0.4129110000000  0.4409050000000  0.5043000000000 1.0
C      1  0.4519720000000  0.5724030000000  0.4768380000000 1.0
C      1  0.4719280000000  0.5503300000000  0.4368790000000 1.0
C      1  0.5188580000000  0.3914320000000  0.4937190000000 1.0
C      1  0.5884340000000  0.4785970000000  0.5035620000000 1.0
C      1  0.4309380000000  0.5860300000000  0.4644850000000 1.0
C      1  0.4787210000000  0.6066780000000  0.4959850000000 1.0
C      1  0.6130330000000  0.5194140000000  0.4694670000000 1.0
C      1  0.5087550000000  0.4107110000000  0.5116380000000 1.0
C      1  0.4990550000000  0.6100820000000  0.4784620000000 1.0
C      1  0.4627580000000  0.5822980000000  0.5043160000000 1.0
C      1  0.5070260000000  0.5043040000000  0.5775590000000 1.0
C      1  0.5381950000000  0.4011880000000  0.4756160000000 1.0
C      1  0.4405130000000  0.4361080000000  0.4485970000000 1.0
C      1  0.4280530000000  0.4169180000000  0.5030070000000 1.0
C      1  0.3881480000000  0.6072210000000  0.4415420000000 1.0
C      1  0.5306010000000  0.4627760000000  0.5703930000000 1.0
C      1  0.4749300000000  0.4456150000000  0.5187000000000 1.0
C      1  0.4822500000000  0.5983040000000  0.5878760000000 1.0
C      1  0.5428940000000  0.4550210000000  0.5458360000000 1.0
C      1  0.4509350000000  0.4767050000000  0.5557750000000 1.0
C      1  0.4166320000000  0.5669860000000  0.5164950000000 1.0
C      1  0.5420860000000  0.4662930000000  0.5191220000000 1.0
C      1  0.4588200000000  0.4237960000000  0.4660210000000 1.0
C      1  0.5062700000000  0.4493220000000  0.4306570000000 1.0
C      1  0.5853470000000  0.5070140000000  0.5106880000000 1.0
C      1  0.4637600000000  0.5900000000000  0.5682950000000 1.0
C      1  0.5409400000000  0.4749040000000  0.4048790000000 1.0
C      1  0.5166600000000  0.6013350000000  0.4601500000000 1.0
C      1  0.4469590000000  0.5446600000000  0.5630080000000 1.0
C      1  0.5529070000000  0.5005060000000  0.5953420000000 1.0
C      1  0.5212870000000  0.4158770000000  0.5373960000000 1.0
C      1  0.5544590000000  0.5366300000000  0.5372220000000 1.0
C      1  0.4419250000000  0.4862180000000  0.4237880000000 1.0
C      1  0.4766930000000  0.4377810000000  0.5459010000000 1.0
C      1  0.5405940000000  0.4578770000000  0.4694440000000 1.0
C      1  0.4709670000000  0.5033450000000  0.4780310000000 1.0
C      1  0.4923110000000  0.5790190000000  0.6058060000000 1.0
C      1  0.5620190000000  0.5254050000000  0.5861060000000 1.0
C      1  0.4968340000000  0.4573210000000  0.4576120000000 1.0
C      1  0.4662140000000  0.4880840000000  0.4128530000000 1.0
C      1  0.4881350000000  0.5394710000000  0.5041290000000 1.0
C      1  0.5944020000000  0.4073560000000  0.5353090000000 1.0
C      1  0.5646630000000  0.5166610000000  0.4444450000000 1.0
C      1  0.5641320000000  0.4880660000000  0.6168680000000 1.0
C      1  0.4844670000000  0.5637680000000  0.5145210000000 1.0
C      1  0.5470470000000  0.4482120000000  0.4953020000000 1.0
C      1  0.4070900000000  0.5431610000000  0.5084640000000 1.0
C      1  0.4456070000000  0.5214920000000  0.5470560000000 1.0
C      1  0.5967460000000  0.5273180000000  0.4918680000000 1.0
C      1  0.5612700000000  0.5402610000000  0.5639310000000 1.0
C      1  0.4902530000000  0.6243810000000  0.5894020000000 1.0
C      1  0.4833350000000  0.4574290000000  0.5884980000000 1.0
C      1  0.4764200000000  0.5303340000000  0.4804750000000 1.0
C      1  0.4131270000000  0.4577350000000  0.5272340000000 1.0
C      1  0.4650780000000  0.5504540000000  0.4639560000000 1.0
C      1  0.5120940000000  0.5022590000000  0.5297770000000 1.0
C      1  0.3667200000000  0.6171250000000  0.4304790000000 1.0
C      1  0.5807410000000  0.4782670000000  0.4757860000000 1.0
C      1  0.5939730000000  0.4628470000000  0.4561730000000 1.0
C      1  0.5313180000000  0.5010120000000  0.4725390000000 1.0
C      1  0.5882020000000  0.4541810000000  0.5199170000000 1.0
C      1  0.4251070000000  0.4785770000000  0.5421470000000 1.0
C      1  0.5374080000000  0.5500630000000  0.4930810000000 1.0
C      1  0.4412190000000  0.5778930000000  0.5256290000000 1.0
C      1  0.5134720000000  0.5690090000000  0.4234250000000 1.0
C      1  0.5286180000000  0.5289960000000  0.4758140000000 1.0
C      1  0.4837480000000  0.4363680000000  0.4731230000000 1.0
C      1  0.4914310000000  0.5534180000000  0.6137990000000 1.0
C      1  0.4535370000000  0.5387090000000  0.5899860000000 1.0
C      1  0.4511110000000  0.4885260000000  0.4911490000000 1.0
C      1  0.5493730000000  0.5392660000000  0.4452960000000 1.0
C      1  0.5085420000000  0.4457290000000  0.5778990000000 1.0
C      1  0.4806540000000  0.4793000000000  0.6065030000000 1.0
C      1  0.5304830000000  0.4053200000000  0.4483390000000 1.0
C      1  0.4767690000000  0.5311960000000  0.6045120000000 1.0
C      1  0.4141740000000  0.5018390000000  0.4617100000000 1.0
C      1  0.5289950000000  0.5819600000000  0.4436430000000 1.0
C      1  0.5606720000000  0.5119190000000  0.5245600000000 1.0
C      1  0.4233480000000  0.4812060000000  0.4442940000000 1.0
C      1  0.5477300000000  0.4862870000000  0.3809360000000 1.0
C      1  0.5282930000000  0.4298840000000  0.4344520000000 1.0
C      1  0.5020360000000  0.4268030000000  0.5561380000000 1.0
C      1  0.4494660000000  0.5714760000000  0.5526420000000 1.0
C      1  0.4147130000000  0.5160950000000  0.5099520000000 1.0
C      1  0.6050310000000  0.4941060000000  0.4245880000000 1.0
C      1  0.4469370000000  0.4055300000000  0.4850620000000 1.0
C      1  0.4600210000000  0.4670260000000  0.5072640000000 1.0
C      1  0.4945690000000  0.5044900000000  0.5516870000000 1.0
C      1  0.5491390000000  0.4270580000000  0.5406240000000 1.0
C      1  0.3965250000000  0.5208860000000  0.4533430000000 1.0
C      1  0.5376900000000  0.5523950000000  0.5211420000000 1.0
C      1  0.5605360000000  0.4971620000000  0.4653350000000 1.0
C      1  0.4098530000000  0.5970360000000  0.4528410000000 1.0
C      1  0.4648250000000  0.4546650000000  0.5658960000000 1.0
C      1  0.4952830000000  0.5473850000000  0.4213380000000 1.0
C      1  0.4887930000000  0.5057890000000  0.5997720000000 1.0
C      1  0.5848810000000  0.5534550000000  0.4890000000000 1.0
C      1  0.5175210000000  0.4758010000000  0.4690160000000 1.0
C      1  0.5513740000000  0.5663970000000  0.4524530000000 1.0
C      1  0.5609980000000  0.4644920000000  0.4229000000000 1.0
C      1  0.4910950000000  0.4309020000000  0.5005050000000 1.0
C      1  0.5008680000000  0.5214050000000  0.4114740000000 1.0
C      1  0.6152380000000  0.5106670000000  0.4438630000000 1.0
C      1  0.4201920000000  0.4548160000000  0.4544280000000 1.0
C      1  0.4529700000000  0.3789080000000  0.4852220000000 1.0
C      1  0.5599060000000  0.5642440000000  0.4804220000000 1.0
C      1  0.4231620000000  0.5071350000000  0.5353960000000 1.0
C      1  0.5884510000000  0.4711490000000  0.4289630000000 1.0
C      1  0.4249660000000  0.5009200000000  0.4881510000000 1.0
C      1  0.4663240000000  0.5014660000000  0.5513410000000 1.0
C      1  0.5311590000000  0.4891560000000  0.5811270000000 1.0
C      1  0.5776070000000  0.4288590000000  0.5318320000000 1.0
C      1  0.5379440000000  0.4943050000000  0.5211330000000 1.0
C      1  0.5128780000000  0.4721570000000  0.4130530000000 1.0
C      1  0.5545830000000  0.4206330000000  0.4893550000000 1.0
END
