TITL C-627113-6568-1644 -5.40332864096187e-07 125000 -950.239600610963 0 0 155 (C1) n - 1
REM
REM in /home/nfs/bkarasulu/CARBON/AIRSS/Generating-Clusters/LCBOP/Only-C1/SD-CG/FIRE-CG
REM
REM
REM
REM
REM
REM ./C.cell (11c1c37f851c82e70ff6c80c92926a4b)
REM AIRSS Version 0.9.1 bugfix July 2018 build 013d7b7c2542+ Fri, 06 Jul 2018 19:26:36 +0100
REM compiler GCC version 9.2.1 20190827 (Red Hat 9.2.1-1)
REM options -cpp -mtune=generic -march=x86-64 -g -O0 -fpre-include=/usr/include/finclude/math-vector-fortran.h
REM seed -1384554163 1333159328 -1991362081 1298846852 2119534024 551368377 501086034 1152806087 594415107 1696212886 -1738273755 -760402002 837892594 -150179269 -639020653 -699072068 -767096913 1406279 -231085281 22187978 1558528913 12974971 -1780582256 2081752703 810778136 766258883 -231808071 1051053341 1546679791 -1013734471 1230297560 -1517397422 1035916962
REM
CELL 1.54180   50.00000   50.00000   50.00000   90.00000   90.00000   90.00000
LATT -1
SFAC C  
C      1  0.3832370000000  0.5977530000000  0.5113850000000 1.0
C      1  0.5934300000000  0.4490520000000  0.4476150000000 1.0
C      1  0.4874870000000  0.5395310000000  0.5602110000000 1.0
C      1  0.4240550000000  0.5410710000000  0.4262130000000 1.0
C      1  0.5627530000000  0.5965650000000  0.4892650000000 1.0
C      1  0.6067310000000  0.4730930000000  0.4892910000000 1.0
C      1  0.5460680000000  0.5026520000000  0.5650470000000 1.0
C      1  0.4742350000000  0.5632850000000  0.4475300000000 1.0
C      1  0.5624680000000  0.4157980000000  0.4668900000000 1.0
C      1  0.4210240000000  0.5026180000000  0.4651540000000 1.0
C      1  0.4538000000000  0.5054420000000  0.4007620000000 1.0
C      1  0.4249050000000  0.5555730000000  0.4776590000000 1.0
C      1  0.4867760000000  0.4578040000000  0.5949280000000 1.0
C      1  0.5542070000000  0.4772140000000  0.5740950000000 1.0
C      1  0.5884060000000  0.4267670000000  0.4660870000000 1.0
C      1  0.4814340000000  0.5554570000000  0.3959250000000 1.0
C      1  0.5732750000000  0.5181630000000  0.4557140000000 1.0
C      1  0.4797280000000  0.5164810000000  0.5768160000000 1.0
C      1  0.6032580000000  0.5068130000000  0.5262430000000 1.0
C      1  0.5074660000000  0.4784140000000  0.5941240000000 1.0
C      1  0.6107660000000  0.4564760000000  0.5330280000000 1.0
C      1  0.5766310000000  0.5682320000000  0.4482910000000 1.0
C      1  0.5321570000000  0.4631340000000  0.5856810000000 1.0
C      1  0.4637240000000  0.4676250000000  0.5428610000000 1.0
C      1  0.5965540000000  0.5566410000000  0.5079940000000 1.0
C      1  0.4804390000000  0.5356860000000  0.5316770000000 1.0
C      1  0.6199760000000  0.4369550000000  0.5508180000000 1.0
C      1  0.6131770000000  0.4171440000000  0.5672440000000 1.0
C      1  0.5531550000000  0.4704420000000  0.4611200000000 1.0
C      1  0.5573760000000  0.5486160000000  0.5721650000000 1.0
C      1  0.5190140000000  0.5582340000000  0.4982700000000 1.0
C      1  0.4076500000000  0.4295590000000  0.5093280000000 1.0
C      1  0.5489020000000  0.3784610000000  0.5250690000000 1.0
C      1  0.5598870000000  0.4763960000000  0.3871430000000 1.0
C      1  0.4199840000000  0.5533400000000  0.4498500000000 1.0
C      1  0.4223440000000  0.4109610000000  0.4651810000000 1.0
C      1  0.5085860000000  0.4889820000000  0.4496400000000 1.0
C      1  0.6073310000000  0.4504590000000  0.5056800000000 1.0
C      1  0.4417970000000  0.3970390000000  0.4801410000000 1.0
C      1  0.4549220000000  0.4225700000000  0.5551730000000 1.0
C      1  0.5018250000000  0.4598830000000  0.4035760000000 1.0
C      1  0.5161790000000  0.5344010000000  0.4555220000000 1.0
C      1  0.6021820000000  0.5464650000000  0.4823420000000 1.0
C      1  0.4188210000000  0.6146500000000  0.5633000000000 1.0
C      1  0.5931760000000  0.4043580000000  0.5792720000000 1.0
C      1  0.5121890000000  0.6053620000000  0.5081890000000 1.0
C      1  0.5825770000000  0.5824150000000  0.5054480000000 1.0
C      1  0.4046850000000  0.5516180000000  0.5797320000000 1.0
C      1  0.4510250000000  0.5512290000000  0.4892780000000 1.0
C      1  0.4056800000000  0.6017160000000  0.5826990000000 1.0
C      1  0.3927920000000  0.5267070000000  0.5850160000000 1.0
C      1  0.5071610000000  0.4646840000000  0.4636730000000 1.0
C      1  0.3943940000000  0.5294110000000  0.5026520000000 1.0
C      1  0.5774950000000  0.5676020000000  0.4196750000000 1.0
C      1  0.4375150000000  0.5539040000000  0.5366890000000 1.0
C      1  0.4413270000000  0.4524660000000  0.4504550000000 1.0
C      1  0.5093130000000  0.5510810000000  0.5764070000000 1.0
C      1  0.4590960000000  0.6049960000000  0.5008200000000 1.0
C      1  0.4239490000000  0.5518470000000  0.5592810000000 1.0
C      1  0.5139350000000  0.5581800000000  0.4706610000000 1.0
C      1  0.3949870000000  0.4537480000000  0.5442790000000 1.0
C      1  0.4408740000000  0.4832720000000  0.5574340000000 1.0
C      1  0.4950480000000  0.4322880000000  0.5839300000000 1.0
C      1  0.5013210000000  0.3823920000000  0.5306520000000 1.0
C      1  0.5275280000000  0.4457020000000  0.4059870000000 1.0
C      1  0.3985510000000  0.5769160000000  0.5902160000000 1.0
C      1  0.4542820000000  0.4457800000000  0.4258930000000 1.0
C      1  0.4652710000000  0.4297430000000  0.5088760000000 1.0
C      1  0.4263500000000  0.4907190000000  0.5326100000000 1.0
C      1  0.5526300000000  0.5574170000000  0.5289130000000 1.0
C      1  0.6087620000000  0.4705900000000  0.4596030000000 1.0
C      1  0.5413900000000  0.5144270000000  0.5135170000000 1.0
C      1  0.5320560000000  0.4525490000000  0.4681900000000 1.0
C      1  0.5324800000000  0.5658030000000  0.5677880000000 1.0
C      1  0.5619550000000  0.4958180000000  0.4688930000000 1.0
C      1  0.5244940000000  0.4350000000000  0.5832340000000 1.0
C      1  0.5671450000000  0.4034210000000  0.5846160000000 1.0
C      1  0.4615440000000  0.3586880000000  0.5048180000000 1.0
C      1  0.4612640000000  0.4408900000000  0.5343760000000 1.0
C      1  0.5361380000000  0.5457320000000  0.4104090000000 1.0
C      1  0.4865220000000  0.4088540000000  0.4697990000000 1.0
C      1  0.3833770000000  0.5015360000000  0.5437720000000 1.0
C      1  0.5014590000000  0.5061910000000  0.5929010000000 1.0
C      1  0.5989760000000  0.4814210000000  0.5431730000000 1.0
C      1  0.4299970000000  0.6135620000000  0.5390490000000 1.0
C      1  0.6296840000000  0.5093800000000  0.4766970000000 1.0
C      1  0.5416710000000  0.6040870000000  0.4436870000000 1.0
C      1  0.4068680000000  0.4501410000000  0.4887000000000 1.0
C      1  0.4578960000000  0.5483010000000  0.5179720000000 1.0
C      1  0.4562870000000  0.5033900000000  0.5724480000000 1.0
C      1  0.6255770000000  0.4935900000000  0.4538580000000 1.0
C      1  0.4963140000000  0.6043140000000  0.4656450000000 1.0
C      1  0.5560990000000  0.5000830000000  0.4956140000000 1.0
C      1  0.3935460000000  0.5020830000000  0.5712130000000 1.0
C      1  0.4880700000000  0.5322960000000  0.3837370000000 1.0
C      1  0.3793820000000  0.5238020000000  0.5265130000000 1.0
C      1  0.3982050000000  0.4770800000000  0.4988460000000 1.0
C      1  0.5510600000000  0.5695100000000  0.4093250000000 1.0
C      1  0.5323400000000  0.5750760000000  0.5409700000000 1.0
C      1  0.4568120000000  0.4701120000000  0.4665520000000 1.0
C      1  0.4350510000000  0.5224110000000  0.4101950000000 1.0
C      1  0.6024740000000  0.4269110000000  0.4909960000000 1.0
C      1  0.5264060000000  0.4181060000000  0.4072140000000 1.0
C      1  0.4768860000000  0.4477340000000  0.4110500000000 1.0
C      1  0.5759100000000  0.4511770000000  0.4246690000000 1.0
C      1  0.4048340000000  0.5565900000000  0.4973180000000 1.0
C      1  0.5385780000000  0.4264790000000  0.4778470000000 1.0
C      1  0.4037300000000  0.5042280000000  0.4879800000000 1.0
C      1  0.5255870000000  0.3914020000000  0.5183850000000 1.0
C      1  0.5811030000000  0.4754590000000  0.5648870000000 1.0
C      1  0.5844580000000  0.5438230000000  0.4607790000000 1.0
C      1  0.4711450000000  0.5163990000000  0.4653870000000 1.0
C      1  0.4269190000000  0.4157870000000  0.5554530000000 1.0
C      1  0.4654210000000  0.5435970000000  0.4663360000000 1.0
C      1  0.5941500000000  0.5360810000000  0.5303140000000 1.0
C      1  0.4197900000000  0.4396080000000  0.4644550000000 1.0
C      1  0.4426520000000  0.3707660000000  0.4899390000000 1.0
C      1  0.4792140000000  0.4140330000000  0.5685090000000 1.0
C      1  0.5542000000000  0.4576910000000  0.4066580000000 1.0
C      1  0.4078860000000  0.4964930000000  0.4416350000000 1.0
C      1  0.4842680000000  0.3639460000000  0.5179360000000 1.0
C      1  0.5617670000000  0.5905920000000  0.4606640000000 1.0
C      1  0.4869160000000  0.5096550000000  0.5224340000000 1.0
C      1  0.5250490000000  0.5274320000000  0.4282910000000 1.0
C      1  0.4819700000000  0.4606970000000  0.4746420000000 1.0
C      1  0.4495900000000  0.4975350000000  0.4670610000000 1.0
C      1  0.4156140000000  0.4829960000000  0.5761350000000 1.0
C      1  0.4651860000000  0.4124300000000  0.4866040000000 1.0
C      1  0.4824350000000  0.4842570000000  0.5295730000000 1.0
C      1  0.5723280000000  0.5464480000000  0.5470450000000 1.0
C      1  0.4071910000000  0.5842620000000  0.5076950000000 1.0
C      1  0.5015080000000  0.4887580000000  0.4026660000000 1.0
C      1  0.5270440000000  0.4125590000000  0.4995800000000 1.0
C      1  0.4725760000000  0.5643080000000  0.4196220000000 1.0
C      1  0.6145060000000  0.4995580000000  0.4996730000000 1.0
C      1  0.5461430000000  0.5242930000000  0.5829920000000 1.0
C      1  0.5394720000000  0.5941700000000  0.4169630000000 1.0
C      1  0.5428930000000  0.4142300000000  0.5844240000000 1.0
C      1  0.4928460000000  0.3930750000000  0.5553110000000 1.0
C      1  0.5367940000000  0.5045140000000  0.5389630000000 1.0
C      1  0.4090030000000  0.4299050000000  0.5377040000000 1.0
C      1  0.5143170000000  0.5790840000000  0.5188940000000 1.0
C      1  0.4809560000000  0.5061070000000  0.3922800000000 1.0
C      1  0.5166010000000  0.4999400000000  0.4239370000000 1.0
C      1  0.5197010000000  0.5285030000000  0.5936770000000 1.0
C      1  0.6001030000000  0.5658310000000  0.4047240000000 1.0
C      1  0.4174190000000  0.3962380000000  0.5720860000000 1.0
C      1  0.5395620000000  0.5417910000000  0.5092260000000 1.0
C      1  0.4873320000000  0.6095730000000  0.4928430000000 1.0
C      1  0.4988760000000  0.5119750000000  0.4632430000000 1.0
C      1  0.4956900000000  0.5769400000000  0.4593140000000 1.0
C      1  0.5186770000000  0.6173230000000  0.4539690000000 1.0
C      1  0.5399760000000  0.6115770000000  0.5000660000000 1.0
C      1  0.3980740000000  0.4794280000000  0.5292930000000 1.0
C      1  0.4325830000000  0.6001200000000  0.5137660000000 1.0
END
