TITL C-627107-135-781 -14.0715898493678 125000 -527.851391478097 0 0 89 (C1) n - 1
REM
REM in /home/nfs/bkarasulu/CARBON/AIRSS/Generating-Clusters/LCBOP/Only-C1/SD-CG/FIRE-CG
REM
REM
REM
REM
REM
REM ./C.cell (11c1c37f851c82e70ff6c80c92926a4b)
REM AIRSS Version 0.9.1 bugfix July 2018 build 013d7b7c2542+ Fri, 06 Jul 2018 19:26:36 +0100
REM compiler GCC version 9.2.1 20190827 (Red Hat 9.2.1-1)
REM options -cpp -mtune=generic -march=x86-64 -g -O0 -fpre-include=/usr/include/finclude/math-vector-fortran.h
REM seed -440750527 1345465075 -2051281259 -527366021 -2025466731 1685049663 249620478 890778881 1571715574 1998100660 686686791 -692729323 -1649143302 -1628621969 244939132 -1330402355 1219998606 1569091961 -630696069 986925280 -1061915292 -480666045 -748856646 814391687 254981255 1353504598 938999451 -249094603 111072719 649438596 58375672 1980657002 -1662483841
REM
CELL 1.54180   50.00000   50.00000   50.00000   90.00000   90.00000   90.00000
LATT -1
SFAC C  
C      1  0.5389890000000  0.5605570000000  0.4427910000000 1.0
C      1  0.5527700000000  0.5905980000000  0.5475850000000 1.0
C      1  0.4551890000000  0.6009710000000  0.4867740000000 1.0
C      1  0.4569430000000  0.5121550000000  0.5234210000000 1.0
C      1  0.5178490000000  0.5428050000000  0.5145150000000 1.0
C      1  0.5835950000000  0.5199940000000  0.4872910000000 1.0
C      1  0.4800220000000  0.4557250000000  0.4851450000000 1.0
C      1  0.5283900000000  0.4745330000000  0.4142970000000 1.0
C      1  0.5485090000000  0.5169240000000  0.4364570000000 1.0
C      1  0.5423510000000  0.5321490000000  0.5591910000000 1.0
C      1  0.4816390000000  0.5644630000000  0.4587110000000 1.0
C      1  0.5302000000000  0.5321770000000  0.6388750000000 1.0
C      1  0.6147590000000  0.4949950000000  0.5145620000000 1.0
C      1  0.5072040000000  0.4933940000000  0.4204890000000 1.0
C      1  0.6003060000000  0.5189380000000  0.5105330000000 1.0
C      1  0.4846640000000  0.5399430000000  0.4729140000000 1.0
C      1  0.4167200000000  0.4714630000000  0.5210410000000 1.0
C      1  0.5396780000000  0.4333440000000  0.5141130000000 1.0
C      1  0.5103020000000  0.4983440000000  0.5446290000000 1.0
C      1  0.5243870000000  0.5822560000000  0.4858010000000 1.0
C      1  0.4360720000000  0.4720050000000  0.5025930000000 1.0
C      1  0.4482400000000  0.6059570000000  0.5119390000000 1.0
C      1  0.5759200000000  0.5798390000000  0.5059320000000 1.0
C      1  0.4648870000000  0.4264720000000  0.5132210000000 1.0
C      1  0.5680290000000  0.5333040000000  0.5482640000000 1.0
C      1  0.5299060000000  0.5687140000000  0.5100180000000 1.0
C      1  0.5352140000000  0.5328390000000  0.6133010000000 1.0
C      1  0.5478180000000  0.4789240000000  0.4936880000000 1.0
C      1  0.4509860000000  0.5026210000000  0.5498310000000 1.0
C      1  0.5040190000000  0.5301020000000  0.4923040000000 1.0
C      1  0.5658850000000  0.4515950000000  0.4453990000000 1.0
C      1  0.5836400000000  0.5674850000000  0.4833010000000 1.0
C      1  0.4024740000000  0.4748930000000  0.4684770000000 1.0
C      1  0.5230460000000  0.4640440000000  0.4581340000000 1.0
C      1  0.5163330000000  0.5482300000000  0.4284050000000 1.0
C      1  0.4449450000000  0.4281080000000  0.4897330000000 1.0
C      1  0.4368170000000  0.4823140000000  0.5613190000000 1.0
C      1  0.5009630000000  0.4475020000000  0.5498520000000 1.0
C      1  0.4904500000000  0.4332380000000  0.5266980000000 1.0
C      1  0.5597220000000  0.4507210000000  0.4991860000000 1.0
C      1  0.4178980000000  0.4350300000000  0.5497690000000 1.0
C      1  0.5133140000000  0.4371040000000  0.4591880000000 1.0
C      1  0.5441510000000  0.4288840000000  0.5419590000000 1.0
C      1  0.5778130000000  0.5427150000000  0.4709810000000 1.0
C      1  0.4921860000000  0.5622000000000  0.4324320000000 1.0
C      1  0.5899780000000  0.5315590000000  0.5333650000000 1.0
C      1  0.4621450000000  0.5009660000000  0.4405370000000 1.0
C      1  0.4675530000000  0.5862730000000  0.4684550000000 1.0
C      1  0.4886060000000  0.4798040000000  0.5829670000000 1.0
C      1  0.4632740000000  0.4738590000000  0.4972270000000 1.0
C      1  0.3870640000000  0.4532320000000  0.4770960000000 1.0
C      1  0.4267450000000  0.4678150000000  0.4532140000000 1.0
C      1  0.5425930000000  0.4650080000000  0.4368250000000 1.0
C      1  0.5332980000000  0.5815490000000  0.4605010000000 1.0
C      1  0.5688300000000  0.4419000000000  0.4707610000000 1.0
C      1  0.4989610000000  0.4753340000000  0.5577150000000 1.0
C      1  0.5857130000000  0.4536180000000  0.5143020000000 1.0
C      1  0.5164510000000  0.4170720000000  0.4411810000000 1.0
C      1  0.4468660000000  0.4469640000000  0.4585660000000 1.0
C      1  0.4759490000000  0.4967420000000  0.5072260000000 1.0
C      1  0.5396040000000  0.5332100000000  0.5871780000000 1.0
C      1  0.5658270000000  0.4987410000000  0.4863110000000 1.0
C      1  0.4125410000000  0.5183610000000  0.4943910000000 1.0
C      1  0.4945320000000  0.5440360000000  0.5569500000000 1.0
C      1  0.4702590000000  0.4550410000000  0.4401290000000 1.0
C      1  0.5168220000000  0.5289610000000  0.5429300000000 1.0
C      1  0.4765810000000  0.5628380000000  0.5621420000000 1.0
C      1  0.5121390000000  0.4295050000000  0.5070530000000 1.0
C      1  0.4162460000000  0.4180170000000  0.5284770000000 1.0
C      1  0.5531970000000  0.5792340000000  0.5228230000000 1.0
C      1  0.4183940000000  0.4209920000000  0.4999520000000 1.0
C      1  0.4345050000000  0.5235340000000  0.5094340000000 1.0
C      1  0.5204240000000  0.5192360000000  0.4261770000000 1.0
C      1  0.4815240000000  0.4817840000000  0.4310470000000 1.0
C      1  0.4025130000000  0.5044770000000  0.4717380000000 1.0
C      1  0.4499580000000  0.5992100000000  0.5376070000000 1.0
C      1  0.5022050000000  0.5012290000000  0.4945280000000 1.0
C      1  0.4147390000000  0.5125600000000  0.4465750000000 1.0
C      1  0.5593250000000  0.5406260000000  0.4491970000000 1.0
C      1  0.4349780000000  0.4932350000000  0.4396800000000 1.0
C      1  0.4699080000000  0.5196670000000  0.4596940000000 1.0
C      1  0.5240500000000  0.4340180000000  0.5612960000000 1.0
C      1  0.5214870000000  0.4820170000000  0.4820170000000 1.0
C      1  0.3952450000000  0.4292400000000  0.4861850000000 1.0
C      1  0.6070250000000  0.4694560000000  0.5176460000000 1.0
C      1  0.4209790000000  0.4631270000000  0.5477340000000 1.0
C      1  0.5258160000000  0.4266490000000  0.5874480000000 1.0
C      1  0.4604480000000  0.5829840000000  0.5558720000000 1.0
C      1  0.4995100000000  0.4357520000000  0.4827920000000 1.0
END
