TITL C-627113-6568-621 0.000837797182292432 125000 -375.952498974288 0 0 63 (C1) n - 1
REM
REM in /home/nfs/bkarasulu/CARBON/AIRSS/Generating-Clusters/LCBOP/Only-C1/SD-CG/FIRE-CG
REM
REM
REM
REM
REM
REM ./C.cell (11c1c37f851c82e70ff6c80c92926a4b)
REM AIRSS Version 0.9.1 bugfix July 2018 build 013d7b7c2542+ Fri, 06 Jul 2018 19:26:36 +0100
REM compiler GCC version 9.2.1 20190827 (Red Hat 9.2.1-1)
REM options -cpp -mtune=generic -march=x86-64 -g -O0 -fpre-include=/usr/include/finclude/math-vector-fortran.h
REM seed -1407065105 -278740443 -992905953 313467881 727323307 -1863255504 1447936625 -792149159 752555841 1343478108 1423900282 348572533 -1282176156 -552861221 -1920463339 264331051 1429381150 -1172908866 -466993680 47582903 -1963705745 -2074011445 698533481 2134362305 -420620195 598167658 114094539 322313858 300362665 1105427490 684545071 1105257644 1678900764
REM
CELL 1.54180   50.00000   50.00000   50.00000   90.00000   90.00000   90.00000
LATT -1
SFAC C  
C      1  0.4845440000000  0.5012320000000  0.4647720000000 1.0
C      1  0.5624160000000  0.4780330000000  0.5043850000000 1.0
C      1  0.5342820000000  0.5355580000000  0.4321900000000 1.0
C      1  0.4973890000000  0.4604480000000  0.3732650000000 1.0
C      1  0.5477070000000  0.5609470000000  0.5162650000000 1.0
C      1  0.5314430000000  0.5325090000000  0.4808110000000 1.0
C      1  0.5157170000000  0.5336160000000  0.5543440000000 1.0
C      1  0.5234940000000  0.4515660000000  0.4793800000000 1.0
C      1  0.4211110000000  0.5379610000000  0.4522780000000 1.0
C      1  0.4910350000000  0.5773330000000  0.4531410000000 1.0
C      1  0.5598580000000  0.5582580000000  0.5420010000000 1.0
C      1  0.5464760000000  0.4660850000000  0.4865750000000 1.0
C      1  0.4648420000000  0.3974680000000  0.4305770000000 1.0
C      1  0.4732160000000  0.4980430000000  0.5364560000000 1.0
C      1  0.4906820000000  0.4812300000000  0.5864310000000 1.0
C      1  0.5130270000000  0.4223990000000  0.4088430000000 1.0
C      1  0.4797430000000  0.4159300000000  0.4451540000000 1.0
C      1  0.5279890000000  0.5462110000000  0.4564520000000 1.0
C      1  0.4546370000000  0.4588670000000  0.5009390000000 1.0
C      1  0.4434610000000  0.5549110000000  0.4530850000000 1.0
C      1  0.5379770000000  0.4932910000000  0.5706910000000 1.0
C      1  0.5466050000000  0.5837990000000  0.4997880000000 1.0
C      1  0.4750630000000  0.4723620000000  0.6076680000000 1.0
C      1  0.4397120000000  0.4823870000000  0.5054380000000 1.0
C      1  0.4758570000000  0.4430600000000  0.4913900000000 1.0
C      1  0.3997250000000  0.5443580000000  0.4364330000000 1.0
C      1  0.5395680000000  0.5207240000000  0.5638280000000 1.0
C      1  0.5329740000000  0.5891820000000  0.4770900000000 1.0
C      1  0.5057550000000  0.5567940000000  0.5677710000000 1.0
C      1  0.4253400000000  0.4947900000000  0.4848320000000 1.0
C      1  0.4796360000000  0.4872700000000  0.5613800000000 1.0
C      1  0.4601890000000  0.4642350000000  0.6274650000000 1.0
C      1  0.6060130000000  0.5142580000000  0.5335980000000 1.0
C      1  0.4806470000000  0.4950640000000  0.4397410000000 1.0
C      1  0.5633090000000  0.5309300000000  0.5508830000000 1.0
C      1  0.4340520000000  0.5383980000000  0.5566980000000 1.0
C      1  0.5506220000000  0.5767380000000  0.5616460000000 1.0
C      1  0.4528190000000  0.5536250000000  0.5680640000000 1.0
C      1  0.5046660000000  0.4261010000000  0.4356550000000 1.0
C      1  0.4892600000000  0.4797810000000  0.3577800000000 1.0
C      1  0.4783970000000  0.5597970000000  0.5723600000000 1.0
C      1  0.5793240000000  0.5109450000000  0.5381810000000 1.0
C      1  0.5653420000000  0.4868970000000  0.5309070000000 1.0
C      1  0.5308250000000  0.4538770000000  0.5429590000000 1.0
C      1  0.5032120000000  0.4465310000000  0.4992780000000 1.0
C      1  0.4656250000000  0.5695250000000  0.4517540000000 1.0
C      1  0.4879570000000  0.5057080000000  0.4906970000000 1.0
C      1  0.5054700000000  0.4412180000000  0.3895990000000 1.0
C      1  0.5282910000000  0.4007630000000  0.4019750000000 1.0
C      1  0.4515290000000  0.3803460000000  0.4161280000000 1.0
C      1  0.5302950000000  0.5393510000000  0.5080680000000 1.0
C      1  0.5202980000000  0.4406710000000  0.4538180000000 1.0
C      1  0.4296550000000  0.5168830000000  0.5413320000000 1.0
C      1  0.4709810000000  0.4253900000000  0.4700720000000 1.0
C      1  0.5122930000000  0.4451000000000  0.5258130000000 1.0
C      1  0.5470850000000  0.4756510000000  0.5501710000000 1.0
C      1  0.5256490000000  0.5765000000000  0.5724130000000 1.0
C      1  0.4911870000000  0.5104740000000  0.5181640000000 1.0
C      1  0.5110680000000  0.5287160000000  0.5265220000000 1.0
C      1  0.4457560000000  0.4978130000000  0.5285220000000 1.0
C      1  0.5178560000000  0.5728460000000  0.4596290000000 1.0
C      1  0.5184560000000  0.4847590000000  0.5888340000000 1.0
C      1  0.4205900000000  0.5144870000000  0.4676220000000 1.0
END
