TITL C-627109-622-1776 0.000278347250090874 125000 -769.620354869328 0 0 127 (C1) n - 1
REM
REM in /home/nfs/bkarasulu/CARBON/AIRSS/Generating-Clusters/LCBOP/Only-C1/SD-CG/FIRE-CG
REM
REM
REM
REM
REM
REM ./C.cell (11c1c37f851c82e70ff6c80c92926a4b)
REM AIRSS Version 0.9.1 bugfix July 2018 build 013d7b7c2542+ Fri, 06 Jul 2018 19:26:36 +0100
REM compiler GCC version 9.2.1 20190827 (Red Hat 9.2.1-1)
REM options -cpp -mtune=generic -march=x86-64 -g -O0 -fpre-include=/usr/include/finclude/math-vector-fortran.h
REM seed -1204990687 799002787 162641668 -1986411217 -1024117424 1878768839 2054531241 -1556027150 550661031 1225393372 -1604326865 893252648 1130050055 842199968 1432689083 156423800 -73448554 660116933 -1548626422 261069588 -953823400 1847486391 -1682564534 -1974581402 1915045655 -728043377 -368083993 139780054 -1629494998 -230653029 1992672996 334030759 1689020377
REM
CELL 1.54180   50.00000   50.00000   50.00000   90.00000   90.00000   90.00000
LATT -1
SFAC C  
C      1  0.5533530000000  0.4390500000000  0.6208430000000 1.0
C      1  0.4487210000000  0.4493030000000  0.4476650000000 1.0
C      1  0.4685190000000  0.3931210000000  0.5053500000000 1.0
C      1  0.4364270000000  0.5069630000000  0.5367190000000 1.0
C      1  0.4964960000000  0.4458970000000  0.5766810000000 1.0
C      1  0.4668040000000  0.5059950000000  0.4418550000000 1.0
C      1  0.4707440000000  0.4162540000000  0.4887630000000 1.0
C      1  0.4146170000000  0.4899760000000  0.4450660000000 1.0
C      1  0.5183740000000  0.4849180000000  0.4026100000000 1.0
C      1  0.5107320000000  0.5067280000000  0.5972300000000 1.0
C      1  0.5093830000000  0.5806120000000  0.4385380000000 1.0
C      1  0.4702530000000  0.4638000000000  0.4875010000000 1.0
C      1  0.3679860000000  0.4803490000000  0.5338110000000 1.0
C      1  0.5810710000000  0.4533400000000  0.4911420000000 1.0
C      1  0.4577870000000  0.5424440000000  0.5869580000000 1.0
C      1  0.5014770000000  0.5589450000000  0.5639580000000 1.0
C      1  0.4841520000000  0.6178930000000  0.5279380000000 1.0
C      1  0.3851850000000  0.6149730000000  0.4625390000000 1.0
C      1  0.4100340000000  0.5042630000000  0.5197500000000 1.0
C      1  0.5288240000000  0.4357940000000  0.4772450000000 1.0
C      1  0.4907680000000  0.4890020000000  0.5970760000000 1.0
C      1  0.5812270000000  0.5073260000000  0.4439500000000 1.0
C      1  0.4857530000000  0.4461080000000  0.4050430000000 1.0
C      1  0.5324330000000  0.5732910000000  0.5289850000000 1.0
C      1  0.5935250000000  0.4928670000000  0.4234980000000 1.0
C      1  0.5978090000000  0.5453160000000  0.4939410000000 1.0
C      1  0.4897740000000  0.4205190000000  0.5661810000000 1.0
C      1  0.4597560000000  0.4234290000000  0.4400910000000 1.0
C      1  0.5427060000000  0.4966370000000  0.5144980000000 1.0
C      1  0.5001850000000  0.5903250000000  0.4633560000000 1.0
C      1  0.5359970000000  0.4524060000000  0.4561900000000 1.0
C      1  0.4571940000000  0.6007520000000  0.4914510000000 1.0
C      1  0.5247290000000  0.4527120000000  0.5765020000000 1.0
C      1  0.4814910000000  0.5963390000000  0.5077270000000 1.0
C      1  0.5590690000000  0.4532930000000  0.5115400000000 1.0
C      1  0.4665170000000  0.4155300000000  0.5496800000000 1.0
C      1  0.5554610000000  0.4760830000000  0.5331330000000 1.0
C      1  0.5923450000000  0.4649280000000  0.4224860000000 1.0
C      1  0.4739800000000  0.5527900000000  0.5664950000000 1.0
C      1  0.5565240000000  0.5015510000000  0.4617010000000 1.0
C      1  0.4252120000000  0.5412210000000  0.4598480000000 1.0
C      1  0.4127540000000  0.4672550000000  0.5524720000000 1.0
C      1  0.4585240000000  0.5318060000000  0.4953010000000 1.0
C      1  0.4251930000000  0.4649080000000  0.4436510000000 1.0
C      1  0.4336920000000  0.6076730000000  0.4813980000000 1.0
C      1  0.5110170000000  0.4952920000000  0.4504950000000 1.0
C      1  0.4360050000000  0.4583550000000  0.5376790000000 1.0
C      1  0.5809880000000  0.4417560000000  0.4622890000000 1.0
C      1  0.5588710000000  0.5001630000000  0.4914770000000 1.0
C      1  0.4466460000000  0.4333660000000  0.5426640000000 1.0
C      1  0.4865360000000  0.3728130000000  0.4921840000000 1.0
C      1  0.3421170000000  0.4775880000000  0.5323100000000 1.0
C      1  0.4605200000000  0.5558460000000  0.5392720000000 1.0
C      1  0.5463310000000  0.5559180000000  0.5488770000000 1.0
C      1  0.5705500000000  0.5423690000000  0.5460600000000 1.0
C      1  0.4491430000000  0.4648330000000  0.5884720000000 1.0
C      1  0.4089510000000  0.5329560000000  0.5108710000000 1.0
C      1  0.5587600000000  0.4429920000000  0.4433390000000 1.0
C      1  0.5523690000000  0.5953380000000  0.4583620000000 1.0
C      1  0.4978720000000  0.3801360000000  0.5395440000000 1.0
C      1  0.5993960000000  0.5226330000000  0.5120420000000 1.0
C      1  0.5906010000000  0.5338610000000  0.4486300000000 1.0
C      1  0.4558850000000  0.5126810000000  0.4165940000000 1.0
C      1  0.4947410000000  0.5596410000000  0.4251140000000 1.0
C      1  0.4779070000000  0.4655500000000  0.5876430000000 1.0
C      1  0.4652250000000  0.5576740000000  0.4244550000000 1.0
C      1  0.4818390000000  0.5686210000000  0.5201340000000 1.0
C      1  0.4123460000000  0.5471150000000  0.5381750000000 1.0
C      1  0.4698090000000  0.4646110000000  0.4596740000000 1.0
C      1  0.4283760000000  0.5398530000000  0.4888990000000 1.0
C      1  0.5149310000000  0.5032350000000  0.5143920000000 1.0
C      1  0.4837000000000  0.3805170000000  0.4641040000000 1.0
C      1  0.4715300000000  0.3929570000000  0.5332100000000 1.0
C      1  0.5061750000000  0.4517260000000  0.5133980000000 1.0
C      1  0.4232590000000  0.4677920000000  0.5795750000000 1.0
C      1  0.5181450000000  0.5224160000000  0.4441050000000 1.0
C      1  0.5041070000000  0.3661840000000  0.5145910000000 1.0
C      1  0.4855650000000  0.4824870000000  0.4413790000000 1.0
C      1  0.4501290000000  0.4813430000000  0.5292740000000 1.0
C      1  0.5094140000000  0.5344940000000  0.4199880000000 1.0
C      1  0.5271520000000  0.5473230000000  0.5697100000000 1.0
C      1  0.5800210000000  0.4267580000000  0.6644540000000 1.0
C      1  0.6051370000000  0.4716960000000  0.4906160000000 1.0
C      1  0.4141350000000  0.5169760000000  0.4485960000000 1.0
C      1  0.5561160000000  0.5843820000000  0.4849440000000 1.0
C      1  0.4547280000000  0.5275820000000  0.5253670000000 1.0
C      1  0.5437870000000  0.4704490000000  0.4039890000000 1.0
C      1  0.5647420000000  0.4558170000000  0.4179090000000 1.0
C      1  0.5053880000000  0.5714590000000  0.5384790000000 1.0
C      1  0.4830480000000  0.4398010000000  0.4979130000000 1.0
C      1  0.4950370000000  0.4711140000000  0.4140790000000 1.0
C      1  0.4859790000000  0.6365280000000  0.5460430000000 1.0
C      1  0.5667980000000  0.4328530000000  0.6428290000000 1.0
C      1  0.5268450000000  0.5255610000000  0.5871970000000 1.0
C      1  0.5320830000000  0.4432000000000  0.5042420000000 1.0
C      1  0.5295080000000  0.5379230000000  0.4855590000000 1.0
C      1  0.5736910000000  0.5614770000000  0.4845980000000 1.0
C      1  0.4092910000000  0.6120390000000  0.4720190000000 1.0
C      1  0.4984650000000  0.4804880000000  0.5182680000000 1.0
C      1  0.5073920000000  0.3974260000000  0.5607710000000 1.0
C      1  0.5070100000000  0.5942090000000  0.4906710000000 1.0
C      1  0.6086930000000  0.4972190000000  0.5022660000000 1.0
C      1  0.4326930000000  0.5677420000000  0.5392190000000 1.0
C      1  0.6107670000000  0.5396520000000  0.4680860000000 1.0
C      1  0.5334280000000  0.5861250000000  0.5028070000000 1.0
C      1  0.4724090000000  0.4247800000000  0.4147800000000 1.0
C      1  0.5422600000000  0.5303620000000  0.4598900000000 1.0
C      1  0.6199540000000  0.4655270000000  0.4663510000000 1.0
C      1  0.4566800000000  0.5375260000000  0.4059350000000 1.0
C      1  0.3955470000000  0.4836800000000  0.5353460000000 1.0
C      1  0.5380130000000  0.4659020000000  0.5553460000000 1.0
C      1  0.5085200000000  0.5286770000000  0.5014930000000 1.0
C      1  0.4442620000000  0.5584470000000  0.4451890000000 1.0
C      1  0.5367770000000  0.5888780000000  0.4367440000000 1.0
C      1  0.6040070000000  0.4525440000000  0.4463200000000 1.0
C      1  0.5344330000000  0.4807030000000  0.4564860000000 1.0
C      1  0.4642830000000  0.5165870000000  0.4686220000000 1.0
C      1  0.5147060000000  0.5139980000000  0.3996750000000 1.0
C      1  0.4224750000000  0.5256910000000  0.5579290000000 1.0
C      1  0.4706360000000  0.4810970000000  0.5103730000000 1.0
C      1  0.5398440000000  0.4453590000000  0.5989550000000 1.0
C      1  0.4853230000000  0.5458520000000  0.4993720000000 1.0
C      1  0.5848560000000  0.5202900000000  0.5365020000000 1.0
C      1  0.4709100000000  0.4069820000000  0.4607370000000 1.0
C      1  0.5669540000000  0.5477780000000  0.4585560000000 1.0
C      1  0.4338890000000  0.5304680000000  0.5830230000000 1.0
C      1  0.5780170000000  0.4932750000000  0.5441170000000 1.0
END
