TITL C-627113-6568-1195 0.206665996944125 125000 -601.075922943495 0 0 100 (C1) n - 1
REM
REM in /home/nfs/bkarasulu/CARBON/AIRSS/Generating-Clusters/LCBOP/Only-C1/SD-CG/FIRE-CG
REM
REM
REM
REM
REM
REM ./C.cell (11c1c37f851c82e70ff6c80c92926a4b)
REM AIRSS Version 0.9.1 bugfix July 2018 build 013d7b7c2542+ Fri, 06 Jul 2018 19:26:36 +0100
REM compiler GCC version 9.2.1 20190827 (Red Hat 9.2.1-1)
REM options -cpp -mtune=generic -march=x86-64 -g -O0 -fpre-include=/usr/include/finclude/math-vector-fortran.h
REM seed 1802689953 -933252430 -1514746510 437575778 377315082 455526527 640518098 -2133098871 -479128277 180494453 1725981680 -53638276 1238806685 -997243012 498603092 -936121646 -717491925 -1507747020 -989314240 -1706725887 1057885425 2136282114 932956984 -694818342 997980229 411819886 -840867065 -2078125186 1063940135 -772684512 236994241 648876315 1735981630
REM
CELL 1.54180   50.00000   50.00000   50.00000   90.00000   90.00000   90.00000
LATT -1
SFAC C  
C      1  0.4127050000000  0.4093320000000  0.4258700000000 1.0
C      1  0.4862930000000  0.5344540000000  0.4530080000000 1.0
C      1  0.5622980000000  0.4739320000000  0.5328270000000 1.0
C      1  0.4282270000000  0.5351440000000  0.4623200000000 1.0
C      1  0.4299590000000  0.4526060000000  0.4388240000000 1.0
C      1  0.5226860000000  0.4656620000000  0.5658610000000 1.0
C      1  0.5043110000000  0.4898370000000  0.5729630000000 1.0
C      1  0.4765800000000  0.4847610000000  0.5136990000000 1.0
C      1  0.4953770000000  0.4132520000000  0.5084180000000 1.0
C      1  0.4442070000000  0.6212730000000  0.5352550000000 1.0
C      1  0.4171870000000  0.4634110000000  0.4620260000000 1.0
C      1  0.4729440000000  0.5479960000000  0.4795530000000 1.0
C      1  0.4457170000000  0.5556180000000  0.4677410000000 1.0
C      1  0.5388530000000  0.5083220000000  0.4202190000000 1.0
C      1  0.5268060000000  0.5636620000000  0.5518700000000 1.0
C      1  0.5242980000000  0.5816690000000  0.5295810000000 1.0
C      1  0.4706940000000  0.5181360000000  0.4354470000000 1.0
C      1  0.5208780000000  0.5341510000000  0.5492440000000 1.0
C      1  0.4862760000000  0.4347900000000  0.5254700000000 1.0
C      1  0.4490850000000  0.5008580000000  0.5769460000000 1.0
C      1  0.4742420000000  0.4609530000000  0.5281070000000 1.0
C      1  0.5450450000000  0.4615240000000  0.5129640000000 1.0
C      1  0.4380900000000  0.5353860000000  0.5204050000000 1.0
C      1  0.5356490000000  0.4247320000000  0.4653150000000 1.0
C      1  0.5257010000000  0.5177610000000  0.5044710000000 1.0
C      1  0.4750790000000  0.4874920000000  0.5721000000000 1.0
C      1  0.5358530000000  0.4216300000000  0.5456820000000 1.0
C      1  0.5823630000000  0.4460150000000  0.4781990000000 1.0
C      1  0.4111780000000  0.4932920000000  0.5044410000000 1.0
C      1  0.4772190000000  0.5784440000000  0.5311480000000 1.0
C      1  0.4405350000000  0.4696470000000  0.4184360000000 1.0
C      1  0.5793090000000  0.6380300000000  0.5118950000000 1.0
C      1  0.5975430000000  0.6561400000000  0.5054310000000 1.0
C      1  0.5674300000000  0.5303380000000  0.5194510000000 1.0
C      1  0.5762300000000  0.4967170000000  0.4812190000000 1.0
C      1  0.5801550000000  0.5198360000000  0.4976810000000 1.0
C      1  0.5128830000000  0.4076170000000  0.4615260000000 1.0
C      1  0.5049310000000  0.4849700000000  0.4455790000000 1.0
C      1  0.4629140000000  0.4076510000000  0.4736350000000 1.0
C      1  0.4786250000000  0.5129300000000  0.5216300000000 1.0
C      1  0.6519560000000  0.7101770000000  0.4861370000000 1.0
C      1  0.4431800000000  0.5276560000000  0.5701960000000 1.0
C      1  0.4881910000000  0.4842390000000  0.4883030000000 1.0
C      1  0.5091200000000  0.3915820000000  0.5214050000000 1.0
C      1  0.4913870000000  0.5316750000000  0.5403610000000 1.0
C      1  0.5449210000000  0.5703930000000  0.4706810000000 1.0
C      1  0.4775000000000  0.4035910000000  0.4283970000000 1.0
C      1  0.4422380000000  0.3971180000000  0.5213770000000 1.0
C      1  0.4587270000000  0.4987260000000  0.4533730000000 1.0
C      1  0.4511120000000  0.3988590000000  0.5467920000000 1.0
C      1  0.5258250000000  0.4506900000000  0.4706350000000 1.0
C      1  0.5170070000000  0.4374960000000  0.5616030000000 1.0
C      1  0.4958410000000  0.5113490000000  0.3945840000000 1.0
C      1  0.4336260000000  0.5071330000000  0.4638150000000 1.0
C      1  0.4908480000000  0.4274640000000  0.5541640000000 1.0
C      1  0.5002340000000  0.5779620000000  0.5141880000000 1.0
C      1  0.5877100000000  0.4714750000000  0.4918720000000 1.0
C      1  0.6340170000000  0.6923620000000  0.4924980000000 1.0
C      1  0.4277370000000  0.6414190000000  0.5368330000000 1.0
C      1  0.5429600000000  0.6014930000000  0.5241700000000 1.0
C      1  0.4453840000000  0.4010830000000  0.4949080000000 1.0
C      1  0.4982190000000  0.5643970000000  0.4887850000000 1.0
C      1  0.4409650000000  0.4910820000000  0.3752750000000 1.0
C      1  0.5215510000000  0.5564790000000  0.4724200000000 1.0
C      1  0.4329540000000  0.4242380000000  0.4367940000000 1.0
C      1  0.4156570000000  0.5201940000000  0.5130580000000 1.0
C      1  0.4463150000000  0.5435990000000  0.5471810000000 1.0
C      1  0.5297200000000  0.5053270000000  0.4490390000000 1.0
C      1  0.4807840000000  0.4822370000000  0.4615940000000 1.0
C      1  0.5035050000000  0.4004690000000  0.4357000000000 1.0
C      1  0.5100390000000  0.5016320000000  0.4914900000000 1.0
C      1  0.4264050000000  0.4835690000000  0.5730560000000 1.0
C      1  0.4120880000000  0.4739650000000  0.5523010000000 1.0
C      1  0.5495930000000  0.4925260000000  0.4703220000000 1.0
C      1  0.5224190000000  0.5110140000000  0.3988510000000 1.0
C      1  0.4672860000000  0.4659940000000  0.5548930000000 1.0
C      1  0.5155420000000  0.5330950000000  0.4561580000000 1.0
C      1  0.6157780000000  0.6742480000000  0.4989650000000 1.0
C      1  0.4908730000000  0.4099910000000  0.4808770000000 1.0
C      1  0.5888340000000  0.4725270000000  0.5212390000000 1.0
C      1  0.5496780000000  0.4774400000000  0.5584150000000 1.0
C      1  0.5387420000000  0.4698230000000  0.4861540000000 1.0
C      1  0.4608370000000  0.6007210000000  0.5335810000000 1.0
C      1  0.4730360000000  0.5541330000000  0.5451720000000 1.0
C      1  0.4182130000000  0.4872640000000  0.4772240000000 1.0
C      1  0.4625140000000  0.5307710000000  0.5041370000000 1.0
C      1  0.4510340000000  0.4895860000000  0.4007950000000 1.0
C      1  0.5281530000000  0.3947510000000  0.5405990000000 1.0
C      1  0.5508030000000  0.5026560000000  0.5728010000000 1.0
C      1  0.5437650000000  0.4347820000000  0.5219990000000 1.0
C      1  0.4705050000000  0.4096010000000  0.5625250000000 1.0
C      1  0.5399560000000  0.5275170000000  0.5258760000000 1.0
C      1  0.4715360000000  0.5085250000000  0.4086750000000 1.0
C      1  0.5645400000000  0.4267450000000  0.4691160000000 1.0
C      1  0.4072270000000  0.4753180000000  0.5258440000000 1.0
C      1  0.6119790000000  0.4720480000000  0.5355960000000 1.0
C      1  0.5235760000000  0.5129080000000  0.5707480000000 1.0
C      1  0.5610820000000  0.6198960000000  0.5183050000000 1.0
C      1  0.5719130000000  0.5136770000000  0.5856950000000 1.0
C      1  0.4565040000000  0.4113430000000  0.4459920000000 1.0
END
