TITL C-627113-6568-558 5.87710184012259e-07 125000 -768.82324112148 0 0 127 (C1) n - 1
REM
REM in /home/nfs/bkarasulu/CARBON/AIRSS/Generating-Clusters/LCBOP/Only-C1/SD-CG/FIRE-CG
REM
REM
REM
REM
REM
REM ./C.cell (11c1c37f851c82e70ff6c80c92926a4b)
REM AIRSS Version 0.9.1 bugfix July 2018 build 013d7b7c2542+ Fri, 06 Jul 2018 19:26:36 +0100
REM compiler GCC version 9.2.1 20190827 (Red Hat 9.2.1-1)
REM options -cpp -mtune=generic -march=x86-64 -g -O0 -fpre-include=/usr/include/finclude/math-vector-fortran.h
REM seed -1760492964 -1412713544 330717359 312076158 -197925492 640338362 -1164341236 1680455307 -1408621148 -49208967 1364302639 121275467 903681713 -1118152013 503235158 -1105895991 -1067296364 1495602140 575464986 1269083116 1380168759 -656809257 -423667281 811792713 -1009549157 1102464501 -1651343558 -552533733 229618712 1616165110 -1509204893 -712512401 -1450536316
REM
CELL 1.54180   50.00000   50.00000   50.00000   90.00000   90.00000   90.00000
LATT -1
SFAC C  
C      1  0.4849010000000  0.5541410000000  0.6017970000000 1.0
C      1  0.4362340000000  0.4341250000000  0.5412960000000 1.0
C      1  0.5001130000000  0.4960890000000  0.6187670000000 1.0
C      1  0.4729880000000  0.4547150000000  0.4796940000000 1.0
C      1  0.4703270000000  0.5909060000000  0.4707870000000 1.0
C      1  0.4971000000000  0.5541750000000  0.5547540000000 1.0
C      1  0.4926290000000  0.5028740000000  0.5123920000000 1.0
C      1  0.6209230000000  0.4832300000000  0.4729820000000 1.0
C      1  0.3778850000000  0.4403370000000  0.4136400000000 1.0
C      1  0.5650410000000  0.5075190000000  0.4405290000000 1.0
C      1  0.4530250000000  0.5646450000000  0.5717060000000 1.0
C      1  0.4659910000000  0.5312870000000  0.6017040000000 1.0
C      1  0.4461320000000  0.5290790000000  0.5080410000000 1.0
C      1  0.4898250000000  0.6175330000000  0.4176110000000 1.0
C      1  0.4414820000000  0.4761400000000  0.4161110000000 1.0
C      1  0.5478510000000  0.6266280000000  0.4780280000000 1.0
C      1  0.4886050000000  0.4667500000000  0.4139450000000 1.0
C      1  0.4331180000000  0.4997860000000  0.5587340000000 1.0
C      1  0.4766810000000  0.4025080000000  0.5205940000000 1.0
C      1  0.4253580000000  0.4484390000000  0.5181650000000 1.0
C      1  0.4826570000000  0.4956700000000  0.4076180000000 1.0
C      1  0.5500450000000  0.5321720000000  0.4432600000000 1.0
C      1  0.4930100000000  0.4144000000000  0.4557090000000 1.0
C      1  0.5867580000000  0.5601910000000  0.4339610000000 1.0
C      1  0.5584750000000  0.6463380000000  0.4936730000000 1.0
C      1  0.5174090000000  0.4873150000000  0.5081390000000 1.0
C      1  0.5568050000000  0.5474000000000  0.6017650000000 1.0
C      1  0.4662320000000  0.4763680000000  0.4635910000000 1.0
C      1  0.5269490000000  0.4907540000000  0.4076760000000 1.0
C      1  0.5300670000000  0.4651170000000  0.4484530000000 1.0
C      1  0.4402020000000  0.5005410000000  0.5088230000000 1.0
C      1  0.4559090000000  0.5689080000000  0.4817360000000 1.0
C      1  0.5352080000000  0.6034840000000  0.4894310000000 1.0
C      1  0.5122950000000  0.5569640000000  0.5299210000000 1.0
C      1  0.4572800000000  0.6152040000000  0.4706150000000 1.0
C      1  0.4429780000000  0.5398300000000  0.5835980000000 1.0
C      1  0.5513860000000  0.4382390000000  0.5402810000000 1.0
C      1  0.4742380000000  0.6284990000000  0.3998390000000 1.0
C      1  0.4187590000000  0.5482060000000  0.4574110000000 1.0
C      1  0.5421500000000  0.5798800000000  0.4493890000000 1.0
C      1  0.5319750000000  0.4324510000000  0.5918990000000 1.0
C      1  0.5712130000000  0.4620840000000  0.4911960000000 1.0
C      1  0.5171190000000  0.4672170000000  0.4227030000000 1.0
C      1  0.4568770000000  0.5014000000000  0.4175910000000 1.0
C      1  0.4802960000000  0.4176350000000  0.5628750000000 1.0
C      1  0.3787380000000  0.5422280000000  0.5682640000000 1.0
C      1  0.3950230000000  0.4594500000000  0.4181260000000 1.0
C      1  0.5629190000000  0.4341740000000  0.4904220000000 1.0
C      1  0.5935200000000  0.5111920000000  0.4377680000000 1.0
C      1  0.5236470000000  0.5829620000000  0.4729060000000 1.0
C      1  0.5460990000000  0.4103480000000  0.4910750000000 1.0
C      1  0.4242900000000  0.5252990000000  0.5676190000000 1.0
C      1  0.5267530000000  0.4461900000000  0.5286720000000 1.0
C      1  0.6180460000000  0.4750000000000  0.4997010000000 1.0
C      1  0.5168520000000  0.5195070000000  0.4744940000000 1.0
C      1  0.4276140000000  0.5607950000000  0.4810180000000 1.0
C      1  0.5250530000000  0.4733620000000  0.5667530000000 1.0
C      1  0.4999290000000  0.5251300000000  0.5579000000000 1.0
C      1  0.5226260000000  0.5294850000000  0.4487350000000 1.0
C      1  0.5564480000000  0.4844740000000  0.4804850000000 1.0
C      1  0.4531470000000  0.5158430000000  0.4424380000000 1.0
C      1  0.5363020000000  0.5386640000000  0.5324310000000 1.0
C      1  0.4889830000000  0.5132610000000  0.4834570000000 1.0
C      1  0.4919060000000  0.5551910000000  0.4198350000000 1.0
C      1  0.4588570000000  0.4279320000000  0.4211860000000 1.0
C      1  0.4410150000000  0.4716570000000  0.5105070000000 1.0
C      1  0.4022180000000  0.5382470000000  0.5548460000000 1.0
C      1  0.5379860000000  0.5051060000000  0.4938210000000 1.0
C      1  0.4052570000000  0.5466830000000  0.5280180000000 1.0
C      1  0.5526300000000  0.4840190000000  0.4522850000000 1.0
C      1  0.4141100000000  0.4789510000000  0.4232450000000 1.0
C      1  0.5419400000000  0.5370760000000  0.5830300000000 1.0
C      1  0.5733400000000  0.4520850000000  0.5478980000000 1.0
C      1  0.4184690000000  0.4754740000000  0.5609580000000 1.0
C      1  0.4280630000000  0.4486700000000  0.5653780000000 1.0
C      1  0.5190180000000  0.4525030000000  0.4737650000000 1.0
C      1  0.4838330000000  0.4617740000000  0.5286910000000 1.0
C      1  0.5300980000000  0.5232180000000  0.5598660000000 1.0
C      1  0.5052090000000  0.3982310000000  0.5285230000000 1.0
C      1  0.6014540000000  0.5375800000000  0.4305390000000 1.0
C      1  0.4996800000000  0.5633770000000  0.6225710000000 1.0
C      1  0.4704380000000  0.4866350000000  0.5835110000000 1.0
C      1  0.5054680000000  0.4028870000000  0.5579260000000 1.0
C      1  0.5190690000000  0.4770970000000  0.6144000000000 1.0
C      1  0.5254840000000  0.4102710000000  0.5770840000000 1.0
C      1  0.4078230000000  0.5035860000000  0.4364050000000 1.0
C      1  0.5282730000000  0.4011780000000  0.5119740000000 1.0
C      1  0.5419610000000  0.3967530000000  0.4661130000000 1.0
C      1  0.5158530000000  0.3981700000000  0.4557660000000 1.0
C      1  0.6397610000000  0.4711010000000  0.5157810000000 1.0
C      1  0.4029370000000  0.4404260000000  0.5048350000000 1.0
C      1  0.5226490000000  0.4595790000000  0.5027830000000 1.0
C      1  0.5056620000000  0.4569610000000  0.5489200000000 1.0
C      1  0.5065780000000  0.5329760000000  0.4255060000000 1.0
C      1  0.5065150000000  0.5111630000000  0.4076000000000 1.0
C      1  0.4218760000000  0.5461020000000  0.5056680000000 1.0
C      1  0.4617620000000  0.4549680000000  0.4150480000000 1.0
C      1  0.4690960000000  0.5045740000000  0.4639820000000 1.0
C      1  0.5597670000000  0.5590710000000  0.4422030000000 1.0
C      1  0.5284270000000  0.4610400000000  0.5929200000000 1.0
C      1  0.5356660000000  0.6054230000000  0.4361040000000 1.0
C      1  0.4601820000000  0.4160310000000  0.5410990000000 1.0
C      1  0.5616810000000  0.4973300000000  0.5369400000000 1.0
C      1  0.4972460000000  0.5906890000000  0.4609170000000 1.0
C      1  0.4256710000000  0.5237560000000  0.4456400000000 1.0
C      1  0.5485260000000  0.6276600000000  0.4489980000000 1.0
C      1  0.4816900000000  0.5662240000000  0.5749430000000 1.0
C      1  0.5405520000000  0.4952420000000  0.5571840000000 1.0
C      1  0.4441760000000  0.4465870000000  0.5885390000000 1.0
C      1  0.4671860000000  0.4603700000000  0.5065830000000 1.0
C      1  0.4941270000000  0.4386300000000  0.4704040000000 1.0
C      1  0.5515110000000  0.5181360000000  0.5177230000000 1.0
C      1  0.5060480000000  0.6054880000000  0.4365880000000 1.0
C      1  0.5624600000000  0.3830650000000  0.4532510000000 1.0
C      1  0.5917490000000  0.4707710000000  0.5090300000000 1.0
C      1  0.4678260000000  0.5494330000000  0.5002990000000 1.0
C      1  0.4698170000000  0.4585840000000  0.5865300000000 1.0
C      1  0.5819900000000  0.3706030000000  0.4413160000000 1.0
C      1  0.4877440000000  0.4439850000000  0.5704780000000 1.0
C      1  0.6115330000000  0.4941030000000  0.4505760000000 1.0
C      1  0.5807020000000  0.4761250000000  0.5346210000000 1.0
C      1  0.4618560000000  0.4969710000000  0.5579110000000 1.0
C      1  0.5603580000000  0.6478630000000  0.4349860000000 1.0
C      1  0.4774550000000  0.5049380000000  0.6040030000000 1.0
C      1  0.4719250000000  0.4111920000000  0.4375260000000 1.0
C      1  0.4941210000000  0.5558350000000  0.5084270000000 1.0
C      1  0.4832320000000  0.5081160000000  0.5412970000000 1.0
END
