TITL C-627110-360-949 0.000188217669864358 125000 -137.008350759304 0 0 24 (C1) n - 1
REM
REM in /home/nfs/bkarasulu/CARBON/AIRSS/Generating-Clusters/LCBOP/Only-C1/SD-CG/FIRE-CG
REM
REM
REM
REM
REM
REM ./C.cell (11c1c37f851c82e70ff6c80c92926a4b)
REM AIRSS Version 0.9.1 bugfix July 2018 build 013d7b7c2542+ Fri, 06 Jul 2018 19:26:36 +0100
REM compiler GCC version 9.2.1 20190827 (Red Hat 9.2.1-1)
REM options -cpp -mtune=generic -march=x86-64 -g -O0 -fpre-include=/usr/include/finclude/math-vector-fortran.h
REM seed 1060967040 205477283 324007418 -1096788286 44115266 1040893215 2023523745 102734557 -1353718468 137473152 1682899038 313391346 -656156513 1444089547 137733685 -957164439 -1358287283 1182329163 719252922 -1024407130 256388753 1410724163 -495844483 -2053803300 1538238693 1459318192 -686568778 66751697 -486290310 -807934238 -1941989800 1592195705 -694100495
REM
CELL 1.54180   50.00000   50.00000   50.00000   90.00000   90.00000   90.00000
LATT -1
SFAC C  
C      1  0.5443200000000  0.5155200000000  0.4794310000000 1.0
C      1  0.4861740000000  0.5425170000000  0.4252980000000 1.0
C      1  0.5219210000000  0.4569390000000  0.5390180000000 1.0
C      1  0.4965280000000  0.5233300000000  0.4087230000000 1.0
C      1  0.4403220000000  0.5193100000000  0.4809750000000 1.0
C      1  0.4452150000000  0.5234700000000  0.5084750000000 1.0
C      1  0.4666190000000  0.5411790000000  0.5136650000000 1.0
C      1  0.4085300000000  0.5111580000000  0.5375820000000 1.0
C      1  0.6008170000000  0.4025780000000  0.5577840000000 1.0
C      1  0.5482820000000  0.4566520000000  0.5296460000000 1.0
C      1  0.5550350000000  0.4954810000000  0.4931580000000 1.0
C      1  0.5838010000000  0.4200980000000  0.5486660000000 1.0
C      1  0.4875520000000  0.5484010000000  0.4984250000000 1.0
C      1  0.4982930000000  0.5406840000000  0.4734800000000 1.0
C      1  0.4798160000000  0.5358900000000  0.4520980000000 1.0
C      1  0.4718300000000  0.4722980000000  0.5441990000000 1.0
C      1  0.4548580000000  0.5246890000000  0.4590170000000 1.0
C      1  0.4340870000000  0.5072550000000  0.5287740000000 1.0
C      1  0.5561750000000  0.4753530000000  0.5104020000000 1.0
C      1  0.4503240000000  0.4871330000000  0.5395820000000 1.0
C      1  0.4963760000000  0.4622330000000  0.5437950000000 1.0
C      1  0.4818680000000  0.5680320000000  0.4163260000000 1.0
C      1  0.5247480000000  0.5318990000000  0.4720850000000 1.0
C      1  0.5665070000000  0.4379030000000  0.5393990000000 1.0
END
