TITL C-627106-156-1989 -2.45241207041741e-07 125000 -1036.19591927262 0 0 171 (C1) n - 1
REM
REM in /home/nfs/bkarasulu/CARBON/AIRSS/Generating-Clusters/LCBOP/Only-C1/SD-CG/FIRE-CG
REM
REM
REM
REM
REM
REM ./C.cell (11c1c37f851c82e70ff6c80c92926a4b)
REM AIRSS Version 0.9.1 bugfix July 2018 build 013d7b7c2542+ Fri, 06 Jul 2018 19:26:36 +0100
REM compiler GCC version 9.2.1 20190827 (Red Hat 9.2.1-1)
REM options -cpp -mtune=generic -march=x86-64 -g -O0 -fpre-include=/usr/include/finclude/math-vector-fortran.h
REM seed -1663576413 1995195331 1366996781 1794758598 -947700286 -104798335 -483009763 -836792841 -1043168220 1953691706 -686357254 -1579450375 910875351 54563903 1924322495 1862675430 1729325251 -1307966171 1801864527 1942249457 -661046505 -1961293363 -1848453886 315826310 -556996321 1156075443 957735765 1239703805 -756999566 -976707611 -954428419 23410370 -1649084320
REM
CELL 1.54180   50.00000   50.00000   50.00000   90.00000   90.00000   90.00000
LATT -1
SFAC C  
C      1  0.4746270000000  0.5044080000000  0.5338140000000 1.0
C      1  0.5732930000000  0.4358010000000  0.4855160000000 1.0
C      1  0.4187500000000  0.5862240000000  0.5182280000000 1.0
C      1  0.4524370000000  0.5552790000000  0.4757330000000 1.0
C      1  0.4172610000000  0.4645860000000  0.5198710000000 1.0
C      1  0.5530340000000  0.5647350000000  0.5210470000000 1.0
C      1  0.4214500000000  0.4722380000000  0.5670200000000 1.0
C      1  0.4706590000000  0.5051630000000  0.6028320000000 1.0
C      1  0.4133100000000  0.5074060000000  0.3999020000000 1.0
C      1  0.4783650000000  0.5269690000000  0.5858700000000 1.0
C      1  0.5229150000000  0.5941940000000  0.4610280000000 1.0
C      1  0.4937780000000  0.4384100000000  0.4328040000000 1.0
C      1  0.6043630000000  0.5120150000000  0.4171440000000 1.0
C      1  0.3872180000000  0.4530670000000  0.4677880000000 1.0
C      1  0.4464310000000  0.4956600000000  0.5000980000000 1.0
C      1  0.4907160000000  0.5173940000000  0.4879690000000 1.0
C      1  0.4676730000000  0.5574010000000  0.5492370000000 1.0
C      1  0.5671180000000  0.5662010000000  0.6070430000000 1.0
C      1  0.5748510000000  0.5214110000000  0.5440010000000 1.0
C      1  0.5674780000000  0.4931220000000  0.4429520000000 1.0
C      1  0.5296350000000  0.5477660000000  0.5170080000000 1.0
C      1  0.5049970000000  0.5952550000000  0.5390050000000 1.0
C      1  0.5471200000000  0.6256740000000  0.4245170000000 1.0
C      1  0.4377340000000  0.4687420000000  0.5016500000000 1.0
C      1  0.5660170000000  0.4977680000000  0.5291890000000 1.0
C      1  0.5470590000000  0.4780450000000  0.4852910000000 1.0
C      1  0.5811250000000  0.5663280000000  0.4662380000000 1.0
C      1  0.4040570000000  0.4459660000000  0.4480910000000 1.0
C      1  0.5052050000000  0.5376560000000  0.5849600000000 1.0
C      1  0.4183560000000  0.4536240000000  0.5454840000000 1.0
C      1  0.4170830000000  0.4015510000000  0.4348920000000 1.0
C      1  0.5369670000000  0.6085700000000  0.4420220000000 1.0
C      1  0.4146240000000  0.5882040000000  0.5459180000000 1.0
C      1  0.4380490000000  0.6062430000000  0.5061570000000 1.0
C      1  0.5167340000000  0.5462890000000  0.5600730000000 1.0
C      1  0.4042070000000  0.5388030000000  0.4974890000000 1.0
C      1  0.5690060000000  0.5407540000000  0.4733800000000 1.0
C      1  0.5200650000000  0.5764350000000  0.5557330000000 1.0
C      1  0.4354140000000  0.5907720000000  0.5630100000000 1.0
C      1  0.4438070000000  0.5966160000000  0.4165540000000 1.0
C      1  0.4484110000000  0.5241920000000  0.6778660000000 1.0
C      1  0.5405690000000  0.3877010000000  0.4345420000000 1.0
C      1  0.5892450000000  0.5918450000000  0.5391280000000 1.0
C      1  0.5274780000000  0.3962600000000  0.4986790000000 1.0
C      1  0.4674650000000  0.4511910000000  0.4307880000000 1.0
C      1  0.4887170000000  0.4338240000000  0.5781530000000 1.0
C      1  0.5565130000000  0.4235630000000  0.4659780000000 1.0
C      1  0.5452840000000  0.4864200000000  0.4585100000000 1.0
C      1  0.4935830000000  0.3873370000000  0.4249820000000 1.0
C      1  0.4472480000000  0.5074270000000  0.5260220000000 1.0
C      1  0.5584560000000  0.4992920000000  0.5882820000000 1.0
C      1  0.4183090000000  0.4259850000000  0.5476930000000 1.0
C      1  0.4591180000000  0.5387120000000  0.5685990000000 1.0
C      1  0.4769300000000  0.6014220000000  0.5383950000000 1.0
C      1  0.5330870000000  0.5776000000000  0.4809970000000 1.0
C      1  0.4752550000000  0.5496660000000  0.5225940000000 1.0
C      1  0.4415300000000  0.4065600000000  0.5143000000000 1.0
C      1  0.4264370000000  0.5131330000000  0.4511770000000 1.0
C      1  0.4222280000000  0.4290800000000  0.4344840000000 1.0
C      1  0.4531800000000  0.5832840000000  0.4383130000000 1.0
C      1  0.4624660000000  0.5110250000000  0.6289640000000 1.0
C      1  0.3890150000000  0.4975060000000  0.5312890000000 1.0
C      1  0.4986790000000  0.5293470000000  0.4299540000000 1.0
C      1  0.6289640000000  0.5206180000000  0.4172850000000 1.0
C      1  0.4269310000000  0.5226870000000  0.5378620000000 1.0
C      1  0.5430130000000  0.5557490000000  0.6126730000000 1.0
C      1  0.4614790000000  0.5845780000000  0.5545260000000 1.0
C      1  0.5515770000000  0.4349800000000  0.4181870000000 1.0
C      1  0.4553360000000  0.5175940000000  0.6536150000000 1.0
C      1  0.4899410000000  0.4029120000000  0.5737530000000 1.0
C      1  0.5563660000000  0.3971670000000  0.5385310000000 1.0
C      1  0.5433840000000  0.5279220000000  0.4658290000000 1.0
C      1  0.5744940000000  0.5437630000000  0.5245450000000 1.0
C      1  0.5052160000000  0.4654360000000  0.4983620000000 1.0
C      1  0.5857120000000  0.5733020000000  0.4396820000000 1.0
C      1  0.5378520000000  0.4335250000000  0.5662910000000 1.0
C      1  0.5115620000000  0.4193460000000  0.5023510000000 1.0
C      1  0.4159540000000  0.5151600000000  0.4252130000000 1.0
C      1  0.5827790000000  0.4375220000000  0.4215070000000 1.0
C      1  0.4078440000000  0.5682640000000  0.4970310000000 1.0
C      1  0.5360630000000  0.5009330000000  0.5263320000000 1.0
C      1  0.6129340000000  0.4503190000000  0.4631620000000 1.0
C      1  0.5208510000000  0.4869310000000  0.3766870000000 1.0
C      1  0.6221840000000  0.6118890000000  0.5101180000000 1.0
C      1  0.4525300000000  0.5002250000000  0.4541600000000 1.0
C      1  0.6037580000000  0.4467000000000  0.4362730000000 1.0
C      1  0.5598620000000  0.4198400000000  0.5547190000000 1.0
C      1  0.5157710000000  0.5301140000000  0.4765510000000 1.0
C      1  0.4084650000000  0.3770650000000  0.4372540000000 1.0
C      1  0.5459090000000  0.3870740000000  0.5160660000000 1.0
C      1  0.4850930000000  0.4009270000000  0.5443390000000 1.0
C      1  0.4628050000000  0.5594220000000  0.4998340000000 1.0
C      1  0.4471590000000  0.4652220000000  0.5807860000000 1.0
C      1  0.4252930000000  0.6098660000000  0.4803280000000 1.0
C      1  0.5058250000000  0.4692240000000  0.5510010000000 1.0
C      1  0.4649390000000  0.5047570000000  0.4793770000000 1.0
C      1  0.5250110000000  0.5115450000000  0.6194430000000 1.0
C      1  0.5263130000000  0.4839140000000  0.5042220000000 1.0
C      1  0.4622040000000  0.4778700000000  0.4396210000000 1.0
C      1  0.6084920000000  0.4842100000000  0.5008330000000 1.0
C      1  0.6008910000000  0.4313230000000  0.4808490000000 1.0
C      1  0.5793010000000  0.5000810000000  0.4186220000000 1.0
C      1  0.5337570000000  0.4099300000000  0.4157550000000 1.0
C      1  0.6428140000000  0.6276420000000  0.5077820000000 1.0
C      1  0.5144360000000  0.4505630000000  0.4519950000000 1.0
C      1  0.4589200000000  0.4502540000000  0.5016990000000 1.0
C      1  0.4023700000000  0.5228380000000  0.5222090000000 1.0
C      1  0.3829510000000  0.4508880000000  0.4957780000000 1.0
C      1  0.5109260000000  0.4402800000000  0.5540520000000 1.0
C      1  0.4868850000000  0.5241690000000  0.5172030000000 1.0
C      1  0.5812120000000  0.5337640000000  0.4982760000000 1.0
C      1  0.5572840000000  0.6424590000000  0.4073550000000 1.0
C      1  0.5226200000000  0.4655590000000  0.6011260000000 1.0
C      1  0.5463830000000  0.4485190000000  0.3914810000000 1.0
C      1  0.4159090000000  0.5834210000000  0.4717470000000 1.0
C      1  0.5160750000000  0.3724920000000  0.4353460000000 1.0
C      1  0.4319000000000  0.5314970000000  0.5645320000000 1.0
C      1  0.4701960000000  0.4779860000000  0.5943550000000 1.0
C      1  0.5103320000000  0.4421110000000  0.4829300000000 1.0
C      1  0.4114460000000  0.5242090000000  0.4733160000000 1.0
C      1  0.5173360000000  0.6027970000000  0.5144890000000 1.0
C      1  0.5672670000000  0.4616830000000  0.4964030000000 1.0
C      1  0.5827330000000  0.5772470000000  0.5878730000000 1.0
C      1  0.5432750000000  0.4408610000000  0.4469660000000 1.0
C      1  0.3907130000000  0.4735720000000  0.5130970000000 1.0
C      1  0.5434800000000  0.4765340000000  0.3879650000000 1.0
C      1  0.4891030000000  0.6054490000000  0.4921640000000 1.0
C      1  0.5918770000000  0.5784360000000  0.4148850000000 1.0
C      1  0.5456860000000  0.5872380000000  0.5619260000000 1.0
C      1  0.5907390000000  0.5826210000000  0.4881630000000 1.0
C      1  0.4135960000000  0.4137020000000  0.5214730000000 1.0
C      1  0.5717640000000  0.5163000000000  0.5717530000000 1.0
C      1  0.4842390000000  0.4786240000000  0.5362110000000 1.0
C      1  0.4572760000000  0.4020810000000  0.5387180000000 1.0
C      1  0.5828260000000  0.4799090000000  0.5128940000000 1.0
C      1  0.5255480000000  0.5280090000000  0.5373610000000 1.0
C      1  0.4129330000000  0.5354690000000  0.5836970000000 1.0
C      1  0.4692350000000  0.3772270000000  0.4187150000000 1.0
C      1  0.5739570000000  0.5869590000000  0.5627590000000 1.0
C      1  0.3988260000000  0.4906950000000  0.5601480000000 1.0
C      1  0.5036540000000  0.4143720000000  0.4194090000000 1.0
C      1  0.5558340000000  0.3963090000000  0.4569910000000 1.0
C      1  0.6192850000000  0.4742670000000  0.4775840000000 1.0
C      1  0.5221420000000  0.5372980000000  0.6081330000000 1.0
C      1  0.5645920000000  0.4930600000000  0.3959310000000 1.0
C      1  0.5422290000000  0.5896620000000  0.5065210000000 1.0
C      1  0.5852610000000  0.4292740000000  0.5590040000000 1.0
C      1  0.4940640000000  0.4598850000000  0.5960970000000 1.0
C      1  0.5461860000000  0.4325190000000  0.3689830000000 1.0
C      1  0.4574680000000  0.4376230000000  0.5740610000000 1.0
C      1  0.4180810000000  0.4889990000000  0.3812130000000 1.0
C      1  0.4927170000000  0.5554860000000  0.4343030000000 1.0
C      1  0.4428940000000  0.4174080000000  0.5594000000000 1.0
C      1  0.3916920000000  0.4248530000000  0.5066260000000 1.0
C      1  0.5060520000000  0.5034460000000  0.4339110000000 1.0
C      1  0.4809220000000  0.5800180000000  0.4443280000000 1.0
C      1  0.5024240000000  0.4209540000000  0.5305940000000 1.0
C      1  0.5360950000000  0.4906540000000  0.6041930000000 1.0
C      1  0.4545650000000  0.4228330000000  0.4948060000000 1.0
C      1  0.4370400000000  0.5704590000000  0.4576810000000 1.0
C      1  0.4945290000000  0.5963690000000  0.4645560000000 1.0
C      1  0.5999540000000  0.5948600000000  0.5125550000000 1.0
C      1  0.5396610000000  0.4443970000000  0.5924870000000 1.0
C      1  0.4442560000000  0.4389290000000  0.4189710000000 1.0
C      1  0.5195390000000  0.5539730000000  0.4913800000000 1.0
C      1  0.5189080000000  0.4814210000000  0.4466510000000 1.0
C      1  0.4391340000000  0.4447520000000  0.3918760000000 1.0
C      1  0.4816460000000  0.4632510000000  0.5126140000000 1.0
C      1  0.4284230000000  0.4646440000000  0.3775630000000 1.0
C      1  0.4667500000000  0.6076420000000  0.5112970000000 1.0
C      1  0.4629250000000  0.4112910000000  0.4716120000000 1.0
END
