TITL C-627107-135-204 -1.00358099061385e-07 125000 -854.32146041058 0 0 140 (C1) n - 1
REM
REM in /home/nfs/bkarasulu/CARBON/AIRSS/Generating-Clusters/LCBOP/Only-C1/SD-CG/FIRE-CG
REM
REM
REM
REM
REM
REM ./C.cell (11c1c37f851c82e70ff6c80c92926a4b)
REM AIRSS Version 0.9.1 bugfix July 2018 build 013d7b7c2542+ Fri, 06 Jul 2018 19:26:36 +0100
REM compiler GCC version 9.2.1 20190827 (Red Hat 9.2.1-1)
REM options -cpp -mtune=generic -march=x86-64 -g -O0 -fpre-include=/usr/include/finclude/math-vector-fortran.h
REM seed 863179540 -485159338 -1720152967 756492253 -660094622 -1122915682 1922580627 -387883290 -1689000937 1605903756 -574190311 81082306 -107661328 1695026683 -628332885 -779113454 755542915 1971847826 1557725082 1683279837 -577104480 2135012828 1508718690 579894147 637311942 1405575060 1703971698 1191721414 1718398922 1789682326 -825052480 -306415932 1922276097
REM
CELL 1.54180   50.00000   50.00000   50.00000   90.00000   90.00000   90.00000
LATT -1
SFAC C  
C      1  0.5995630000000  0.5270590000000  0.4577060000000 1.0
C      1  0.5678420000000  0.5539730000000  0.4255910000000 1.0
C      1  0.4397650000000  0.5697510000000  0.5497610000000 1.0
C      1  0.4356550000000  0.4494160000000  0.5737260000000 1.0
C      1  0.5175200000000  0.4753160000000  0.4862450000000 1.0
C      1  0.5644530000000  0.4629300000000  0.4990810000000 1.0
C      1  0.5415790000000  0.5303200000000  0.5321370000000 1.0
C      1  0.5237880000000  0.5374040000000  0.4791010000000 1.0
C      1  0.4712890000000  0.5929960000000  0.4293690000000 1.0
C      1  0.5032950000000  0.4503050000000  0.4944070000000 1.0
C      1  0.5655570000000  0.5539450000000  0.5636620000000 1.0
C      1  0.5527430000000  0.5017640000000  0.4718720000000 1.0
C      1  0.5018650000000  0.4948550000000  0.4720310000000 1.0
C      1  0.4061560000000  0.4954240000000  0.5629880000000 1.0
C      1  0.5573060000000  0.5277320000000  0.5108100000000 1.0
C      1  0.4694350000000  0.4755190000000  0.5980120000000 1.0
C      1  0.4082750000000  0.4485490000000  0.5656510000000 1.0
C      1  0.4537050000000  0.4072990000000  0.4507130000000 1.0
C      1  0.4320770000000  0.5262250000000  0.4318770000000 1.0
C      1  0.5421790000000  0.5529510000000  0.5807920000000 1.0
C      1  0.5941680000000  0.4886150000000  0.5806890000000 1.0
C      1  0.5165760000000  0.4177640000000  0.4497780000000 1.0
C      1  0.4737170000000  0.5664200000000  0.4195150000000 1.0
C      1  0.5792200000000  0.6198930000000  0.5563680000000 1.0
C      1  0.4893290000000  0.6221890000000  0.5191970000000 1.0
C      1  0.4666550000000  0.3876960000000  0.4900100000000 1.0
C      1  0.4102190000000  0.4851790000000  0.4225460000000 1.0
C      1  0.6067520000000  0.4202700000000  0.5595600000000 1.0
C      1  0.4819880000000  0.4930840000000  0.3855510000000 1.0
C      1  0.4499350000000  0.4314740000000  0.5288000000000 1.0
C      1  0.5785400000000  0.5678610000000  0.4045070000000 1.0
C      1  0.4961960000000  0.5217420000000  0.4329300000000 1.0
C      1  0.4755040000000  0.5753460000000  0.5836030000000 1.0
C      1  0.4748720000000  0.5343630000000  0.4871670000000 1.0
C      1  0.4833090000000  0.4392530000000  0.5668360000000 1.0
C      1  0.4644370000000  0.4507920000000  0.4317540000000 1.0
C      1  0.4529160000000  0.5141000000000  0.4920420000000 1.0
C      1  0.4553510000000  0.5576900000000  0.3996860000000 1.0
C      1  0.4377950000000  0.4191940000000  0.4707810000000 1.0
C      1  0.5140320000000  0.6084680000000  0.5193080000000 1.0
C      1  0.5923640000000  0.5648180000000  0.5233170000000 1.0
C      1  0.3936320000000  0.4919690000000  0.4758440000000 1.0
C      1  0.5453640000000  0.4668570000000  0.5583640000000 1.0
C      1  0.5884800000000  0.4754970000000  0.5093580000000 1.0
C      1  0.5441450000000  0.3981480000000  0.4971080000000 1.0
C      1  0.4854990000000  0.4516550000000  0.5931640000000 1.0
C      1  0.4777100000000  0.5467500000000  0.5140650000000 1.0
C      1  0.5050300000000  0.4413380000000  0.5476680000000 1.0
C      1  0.4013360000000  0.4794380000000  0.4498890000000 1.0
C      1  0.5832360000000  0.5509130000000  0.4492590000000 1.0
C      1  0.4433950000000  0.4746710000000  0.5866260000000 1.0
C      1  0.5383590000000  0.6122290000000  0.5326780000000 1.0
C      1  0.3935950000000  0.5196510000000  0.4810770000000 1.0
C      1  0.4976670000000  0.4069270000000  0.5164100000000 1.0
C      1  0.4345330000000  0.5738270000000  0.5210110000000 1.0
C      1  0.5987540000000  0.4739320000000  0.4605910000000 1.0
C      1  0.5418850000000  0.5430220000000  0.4230130000000 1.0
C      1  0.5921320000000  0.5004620000000  0.4492090000000 1.0
C      1  0.4109190000000  0.4541400000000  0.4580280000000 1.0
C      1  0.6056820000000  0.5459970000000  0.5409450000000 1.0
C      1  0.4515260000000  0.4830860000000  0.5280450000000 1.0
C      1  0.5825580000000  0.5697060000000  0.4716300000000 1.0
C      1  0.5677630000000  0.4138830000000  0.4948050000000 1.0
C      1  0.6012780000000  0.4095900000000  0.5358190000000 1.0
C      1  0.5488580000000  0.5263660000000  0.4843330000000 1.0
C      1  0.5447610000000  0.4797030000000  0.4877890000000 1.0
C      1  0.4687590000000  0.4054710000000  0.5128400000000 1.0
C      1  0.5886320000000  0.5045080000000  0.5582340000000 1.0
C      1  0.4800270000000  0.5237640000000  0.5536660000000 1.0
C      1  0.4405070000000  0.5067890000000  0.4481930000000 1.0
C      1  0.5871080000000  0.5330060000000  0.5592410000000 1.0
C      1  0.5088400000000  0.4842220000000  0.3941840000000 1.0
C      1  0.4822440000000  0.5012760000000  0.6007070000000 1.0
C      1  0.4534100000000  0.4668730000000  0.4795660000000 1.0
C      1  0.5707490000000  0.5748940000000  0.5417170000000 1.0
C      1  0.4320170000000  0.5468310000000  0.5658240000000 1.0
C      1  0.4809980000000  0.5467400000000  0.4396220000000 1.0
C      1  0.5201710000000  0.5455480000000  0.5360440000000 1.0
C      1  0.4620830000000  0.5992840000000  0.4541620000000 1.0
C      1  0.5008530000000  0.5213680000000  0.4818690000000 1.0
C      1  0.4651830000000  0.6120600000000  0.5121400000000 1.0
C      1  0.4594230000000  0.5845940000000  0.5639650000000 1.0
C      1  0.4064460000000  0.4671160000000  0.5213220000000 1.0
C      1  0.5558860000000  0.4533480000000  0.4354010000000 1.0
C      1  0.5306520000000  0.4971140000000  0.4090530000000 1.0
C      1  0.5375840000000  0.4306950000000  0.4349360000000 1.0
C      1  0.5895150000000  0.4907490000000  0.5330270000000 1.0
C      1  0.4873880000000  0.5512240000000  0.5933160000000 1.0
C      1  0.4639790000000  0.5304670000000  0.5326660000000 1.0
C      1  0.5014010000000  0.4409120000000  0.6126840000000 1.0
C      1  0.5017820000000  0.5594770000000  0.5205420000000 1.0
C      1  0.5779620000000  0.4515970000000  0.4560640000000 1.0
C      1  0.4560700000000  0.4352760000000  0.5580260000000 1.0
C      1  0.5887380000000  0.4072470000000  0.5124690000000 1.0
C      1  0.3995080000000  0.4708330000000  0.5496250000000 1.0
C      1  0.4305810000000  0.4860630000000  0.4036290000000 1.0
C      1  0.4580050000000  0.4248070000000  0.4292880000000 1.0
C      1  0.4479250000000  0.4947230000000  0.4723370000000 1.0
C      1  0.4346030000000  0.5421280000000  0.4105360000000 1.0
C      1  0.5002320000000  0.3939500000000  0.4496960000000 1.0
C      1  0.4293910000000  0.4993650000000  0.5796940000000 1.0
C      1  0.5167120000000  0.5507810000000  0.5909540000000 1.0
C      1  0.6014700000000  0.4637300000000  0.5870710000000 1.0
C      1  0.4578350000000  0.5634140000000  0.3732170000000 1.0
C      1  0.5960210000000  0.5599480000000  0.4954470000000 1.0
C      1  0.4128930000000  0.5599050000000  0.5091430000000 1.0
C      1  0.4789860000000  0.4769370000000  0.5232140000000 1.0
C      1  0.4347890000000  0.4590020000000  0.5223670000000 1.0
C      1  0.4337920000000  0.4467310000000  0.4722020000000 1.0
C      1  0.5197560000000  0.3916890000000  0.5070920000000 1.0
C      1  0.5019590000000  0.4848060000000  0.5397420000000 1.0
C      1  0.5063060000000  0.5016340000000  0.5853160000000 1.0
C      1  0.5695950000000  0.4394930000000  0.4821910000000 1.0
C      1  0.4685850000000  0.5273820000000  0.5970850000000 1.0
C      1  0.5499920000000  0.4817220000000  0.4264770000000 1.0
C      1  0.5224490000000  0.5229580000000  0.4198710000000 1.0
C      1  0.4417780000000  0.5256490000000  0.5831750000000 1.0
C      1  0.4741570000000  0.3909440000000  0.4619980000000 1.0
C      1  0.4595200000000  0.5800500000000  0.4750560000000 1.0
C      1  0.6063700000000  0.4389880000000  0.5784750000000 1.0
C      1  0.5110210000000  0.5827250000000  0.5086230000000 1.0
C      1  0.4859770000000  0.4684320000000  0.4320720000000 1.0
C      1  0.3998700000000  0.5420460000000  0.4941880000000 1.0
C      1  0.4698220000000  0.5539850000000  0.4663290000000 1.0
C      1  0.5005060000000  0.5058600000000  0.5580040000000 1.0
C      1  0.6090440000000  0.5354040000000  0.4844650000000 1.0
C      1  0.5050700000000  0.4335680000000  0.5203540000000 1.0
C      1  0.3638980000000  0.4621540000000  0.4996730000000 1.0
C      1  0.4478800000000  0.5101770000000  0.5200760000000 1.0
C      1  0.5202000000000  0.4649720000000  0.5489060000000 1.0
C      1  0.5634940000000  0.4984800000000  0.4459680000000 1.0
C      1  0.3889930000000  0.4739940000000  0.4990740000000 1.0
C      1  0.5625610000000  0.6022900000000  0.5434260000000 1.0
C      1  0.4549920000000  0.4904220000000  0.3913960000000 1.0
C      1  0.4918390000000  0.4940520000000  0.4450020000000 1.0
C      1  0.6079870000000  0.4754410000000  0.4881560000000 1.0
C      1  0.4761710000000  0.4623410000000  0.4974420000000 1.0
C      1  0.4519980000000  0.5886230000000  0.5024000000000 1.0
C      1  0.5076250000000  0.4335340000000  0.4711360000000 1.0
C      1  0.5034160000000  0.4617090000000  0.4107250000000 1.0
END
