TITL C-627107-135-46 1.35081895806264 125000 -695.682540515979 0 0 114 (C1) n - 1
REM
REM in /home/nfs/bkarasulu/CARBON/AIRSS/Generating-Clusters/LCBOP/Only-C1/SD-CG/FIRE-CG
REM
REM
REM
REM
REM
REM ./C.cell (11c1c37f851c82e70ff6c80c92926a4b)
REM AIRSS Version 0.9.1 bugfix July 2018 build 013d7b7c2542+ Fri, 06 Jul 2018 19:26:36 +0100
REM compiler GCC version 9.2.1 20190827 (Red Hat 9.2.1-1)
REM options -cpp -mtune=generic -march=x86-64 -g -O0 -fpre-include=/usr/include/finclude/math-vector-fortran.h
REM seed 2141845634 2073869613 -857681404 -1049785718 1815358884 247917680 1380825265 -300619076 1478361098 196952864 1554825802 -1452982508 -76632752 980771852 1143475975 1777589076 -1788943386 750845294 -1620683084 290557631 424930790 -764810716 802816358 -2065507721 -950998222 1799542106 -1423680823 -870241308 -914887969 2090363340 713791194 708771017 1341000518
REM
CELL 1.54180   50.00000   50.00000   50.00000   90.00000   90.00000   90.00000
LATT -1
SFAC C  
C      1  0.4646500000000  0.5655220000000  0.5146270000000 1.0
C      1  0.5907400000000  0.4369640000000  0.4626900000000 1.0
C      1  0.5087280000000  0.4799240000000  0.3947390000000 1.0
C      1  0.5450310000000  0.4368520000000  0.4456650000000 1.0
C      1  0.5879260000000  0.5410400000000  0.5127630000000 1.0
C      1  0.4578620000000  0.5611920000000  0.4284620000000 1.0
C      1  0.5939430000000  0.4874730000000  0.5171370000000 1.0
C      1  0.5482460000000  0.4768970000000  0.4747990000000 1.0
C      1  0.4486400000000  0.4576920000000  0.4100320000000 1.0
C      1  0.5766380000000  0.4385830000000  0.5172350000000 1.0
C      1  0.4718010000000  0.5219900000000  0.5972840000000 1.0
C      1  0.5745970000000  0.5648390000000  0.5035270000000 1.0
C      1  0.4210160000000  0.4849150000000  0.4556960000000 1.0
C      1  0.5521640000000  0.5778530000000  0.4601240000000 1.0
C      1  0.4073480000000  0.4646070000000  0.5168090000000 1.0
C      1  0.5422640000000  0.5224660000000  0.5102210000000 1.0
C      1  0.4536520000000  0.5668040000000  0.6513710000000 1.0
C      1  0.4835210000000  0.5550050000000  0.4677730000000 1.0
C      1  0.4508670000000  0.5258680000000  0.6163640000000 1.0
C      1  0.4688750000000  0.5455480000000  0.4090460000000 1.0
C      1  0.5363150000000  0.4628680000000  0.4537270000000 1.0
C      1  0.6031830000000  0.4830380000000  0.4626590000000 1.0
C      1  0.5487560000000  0.4311770000000  0.5212330000000 1.0
C      1  0.4739980000000  0.4449860000000  0.4158090000000 1.0
C      1  0.5575960000000  0.5946800000000  0.5703650000000 1.0
C      1  0.4786530000000  0.5049610000000  0.4538370000000 1.0
C      1  0.5479530000000  0.6093220000000  0.6203100000000 1.0
C      1  0.4190290000000  0.4860820000000  0.6050800000000 1.0
C      1  0.5405840000000  0.5369620000000  0.6019610000000 1.0
C      1  0.4152570000000  0.4840830000000  0.5371390000000 1.0
C      1  0.5541220000000  0.5794570000000  0.5185060000000 1.0
C      1  0.4678880000000  0.4416690000000  0.5005090000000 1.0
C      1  0.4193960000000  0.4965080000000  0.4290970000000 1.0
C      1  0.4821120000000  0.4358180000000  0.4434890000000 1.0
C      1  0.5112960000000  0.4738600000000  0.4470390000000 1.0
C      1  0.4332830000000  0.4393630000000  0.4693040000000 1.0
C      1  0.5333680000000  0.4549910000000  0.5208630000000 1.0
C      1  0.5251720000000  0.4168910000000  0.4438430000000 1.0
C      1  0.5723980000000  0.4296100000000  0.4426900000000 1.0
C      1  0.4410490000000  0.4351960000000  0.4958540000000 1.0
C      1  0.5209120000000  0.3793200000000  0.4813240000000 1.0
C      1  0.5600400000000  0.4894280000000  0.4038870000000 1.0
C      1  0.5919700000000  0.4608800000000  0.5059130000000 1.0
C      1  0.5109030000000  0.5588760000000  0.4716140000000 1.0
C      1  0.4584950000000  0.5645380000000  0.4570500000000 1.0
C      1  0.5760710000000  0.4977060000000  0.4238460000000 1.0
C      1  0.5159670000000  0.5459450000000  0.3988530000000 1.0
C      1  0.4738220000000  0.4457390000000  0.5973750000000 1.0
C      1  0.4767330000000  0.5039810000000  0.5361000000000 1.0
C      1  0.5322720000000  0.5452780000000  0.4219560000000 1.0
C      1  0.4618430000000  0.4252450000000  0.5505150000000 1.0
C      1  0.5407320000000  0.4723800000000  0.5008360000000 1.0
C      1  0.5991780000000  0.4590940000000  0.4778630000000 1.0
C      1  0.5399820000000  0.3846340000000  0.5008070000000 1.0
C      1  0.5935470000000  0.5147270000000  0.5171930000000 1.0
C      1  0.4790050000000  0.5867100000000  0.5287260000000 1.0
C      1  0.4806280000000  0.4119980000000  0.5318060000000 1.0
C      1  0.4399650000000  0.4638820000000  0.4577630000000 1.0
C      1  0.5016010000000  0.4090260000000  0.5113040000000 1.0
C      1  0.5233720000000  0.5248720000000  0.4408250000000 1.0
C      1  0.4246010000000  0.5363370000000  0.5209710000000 1.0
C      1  0.5580990000000  0.5860600000000  0.5453270000000 1.0
C      1  0.5283080000000  0.5802950000000  0.4769650000000 1.0
C      1  0.5370340000000  0.4814110000000  0.3924100000000 1.0
C      1  0.4244120000000  0.4410970000000  0.5177640000000 1.0
C      1  0.4839180000000  0.4907570000000  0.5599940000000 1.0
C      1  0.5808500000000  0.4162000000000  0.4203950000000 1.0
C      1  0.4837570000000  0.5447150000000  0.5150010000000 1.0
C      1  0.5477300000000  0.5664740000000  0.4338960000000 1.0
C      1  0.5323130000000  0.4077790000000  0.5168600000000 1.0
C      1  0.5461760000000  0.5226470000000  0.4824960000000 1.0
C      1  0.5157330000000  0.5425280000000  0.5964270000000 1.0
C      1  0.4319020000000  0.4793150000000  0.4101510000000 1.0
C      1  0.5823740000000  0.4990050000000  0.4514680000000 1.0
C      1  0.4377400000000  0.4407400000000  0.5441600000000 1.0
C      1  0.4780270000000  0.5273220000000  0.4697910000000 1.0
C      1  0.4286950000000  0.5085710000000  0.5291350000000 1.0
C      1  0.4766480000000  0.4957990000000  0.5869290000000 1.0
C      1  0.4753770000000  0.4721190000000  0.6025470000000 1.0
C      1  0.4988320000000  0.4147120000000  0.4551700000000 1.0
C      1  0.4915600000000  0.5306900000000  0.3997070000000 1.0
C      1  0.4877320000000  0.4604330000000  0.4574270000000 1.0
C      1  0.4968980000000  0.5030830000000  0.4074300000000 1.0
C      1  0.4169520000000  0.5249180000000  0.4354880000000 1.0
C      1  0.4204780000000  0.4694450000000  0.5843870000000 1.0
C      1  0.4884900000000  0.5440880000000  0.5901200000000 1.0
C      1  0.5035050000000  0.5015690000000  0.4371150000000 1.0
C      1  0.5229100000000  0.5211370000000  0.5283980000000 1.0
C      1  0.4950320000000  0.4551780000000  0.3988180000000 1.0
C      1  0.4389890000000  0.5562710000000  0.5041620000000 1.0
C      1  0.5260470000000  0.5346130000000  0.4671800000000 1.0
C      1  0.5026180000000  0.4701630000000  0.5556080000000 1.0
C      1  0.4295480000000  0.5077110000000  0.6164520000000 1.0
C      1  0.4232230000000  0.5315790000000  0.4636730000000 1.0
C      1  0.4662370000000  0.4796500000000  0.4664380000000 1.0
C      1  0.4363370000000  0.5548260000000  0.4743650000000 1.0
C      1  0.4999090000000  0.4003160000000  0.4811290000000 1.0
C      1  0.4518410000000  0.5467880000000  0.6347800000000 1.0
C      1  0.5047660000000  0.5941380000000  0.5178230000000 1.0
C      1  0.5416430000000  0.6148400000000  0.6449950000000 1.0
C      1  0.5753400000000  0.5724080000000  0.4758360000000 1.0
C      1  0.5537590000000  0.6029670000000  0.5952410000000 1.0
C      1  0.4871000000000  0.4550140000000  0.5128530000000 1.0
C      1  0.5079420000000  0.4582700000000  0.5311320000000 1.0
C      1  0.4952570000000  0.5233390000000  0.5276970000000 1.0
C      1  0.4701080000000  0.4279420000000  0.5776110000000 1.0
C      1  0.4267720000000  0.4653860000000  0.5575580000000 1.0
C      1  0.4273490000000  0.5053180000000  0.4760600000000 1.0
C      1  0.4520290000000  0.4949720000000  0.4906590000000 1.0
C      1  0.5604960000000  0.5018390000000  0.4695420000000 1.0
C      1  0.4766470000000  0.5847290000000  0.5569020000000 1.0
C      1  0.4545490000000  0.5001250000000  0.5185340000000 1.0
C      1  0.4788850000000  0.5670460000000  0.5769270000000 1.0
C      1  0.5295700000000  0.5875100000000  0.5048600000000 1.0
END
