TITL C-627108-131-1387 0.000293721953098161 125000 -624.810361577728 0 0 102 (C1) n - 1
REM
REM in /home/nfs/bkarasulu/CARBON/AIRSS/Generating-Clusters/LCBOP/Only-C1/SD-CG/FIRE-CG
REM
REM
REM
REM
REM
REM ./C.cell (11c1c37f851c82e70ff6c80c92926a4b)
REM AIRSS Version 0.9.1 bugfix July 2018 build 013d7b7c2542+ Fri, 06 Jul 2018 19:26:36 +0100
REM compiler GCC version 9.2.1 20190827 (Red Hat 9.2.1-1)
REM options -cpp -mtune=generic -march=x86-64 -g -O0 -fpre-include=/usr/include/finclude/math-vector-fortran.h
REM seed 1172262531 802809713 1488749525 2123034190 1302877157 -1567279987 -1249783506 -407141278 -414454277 962474923 -954000856 1971442838 -207494539 374976499 -1552941277 685946156 1964951758 -1208411694 622814950 42912725 954527464 1530033384 54856445 900214617 448685729 482852296 307498246 -166012674 298752687 756130856 -1643151158 -449298610 2113506525
REM
CELL 1.54180   50.00000   50.00000   50.00000   90.00000   90.00000   90.00000
LATT -1
SFAC C  
C      1  0.5144290000000  0.5861730000000  0.5443870000000 1.0
C      1  0.4598520000000  0.5413160000000  0.4201020000000 1.0
C      1  0.5383040000000  0.6385940000000  0.4950960000000 1.0
C      1  0.5975470000000  0.4507100000000  0.5393320000000 1.0
C      1  0.5412530000000  0.5343480000000  0.5153000000000 1.0
C      1  0.5458370000000  0.5168940000000  0.4934050000000 1.0
C      1  0.4592430000000  0.4460450000000  0.5876070000000 1.0
C      1  0.4074940000000  0.4887530000000  0.4529010000000 1.0
C      1  0.6008940000000  0.5060480000000  0.5727740000000 1.0
C      1  0.4153550000000  0.5481360000000  0.4448730000000 1.0
C      1  0.5333690000000  0.4905280000000  0.4918120000000 1.0
C      1  0.5269820000000  0.5270840000000  0.5393720000000 1.0
C      1  0.4498180000000  0.4573460000000  0.5239390000000 1.0
C      1  0.5965270000000  0.6121090000000  0.5306470000000 1.0
C      1  0.6187380000000  0.4896010000000  0.5615080000000 1.0
C      1  0.4831650000000  0.5470270000000  0.4658990000000 1.0
C      1  0.4279780000000  0.4776960000000  0.5646770000000 1.0
C      1  0.4904810000000  0.4874800000000  0.4052380000000 1.0
C      1  0.3987230000000  0.4892760000000  0.4801050000000 1.0
C      1  0.5286350000000  0.5011050000000  0.4299230000000 1.0
C      1  0.4383480000000  0.4635400000000  0.5877670000000 1.0
C      1  0.5562040000000  0.4857370000000  0.5758800000000 1.0
C      1  0.5104020000000  0.5040210000000  0.5892620000000 1.0
C      1  0.5504810000000  0.4581740000000  0.4304050000000 1.0
C      1  0.5718210000000  0.5771350000000  0.5082150000000 1.0
C      1  0.4799970000000  0.4738940000000  0.4628000000000 1.0
C      1  0.4731550000000  0.4010460000000  0.4831030000000 1.0
C      1  0.4906830000000  0.5153400000000  0.5706060000000 1.0
C      1  0.5885090000000  0.5639250000000  0.4898570000000 1.0
C      1  0.4670860000000  0.4982420000000  0.5683070000000 1.0
C      1  0.5062790000000  0.4197920000000  0.4274100000000 1.0
C      1  0.4188280000000  0.4737690000000  0.4939520000000 1.0
C      1  0.4546370000000  0.4173120000000  0.4966870000000 1.0
C      1  0.4966120000000  0.4241760000000  0.5541310000000 1.0
C      1  0.5534430000000  0.4677310000000  0.5536150000000 1.0
C      1  0.5001080000000  0.4454250000000  0.4341160000000 1.0
C      1  0.4705880000000  0.4960160000000  0.5022350000000 1.0
C      1  0.3749500000000  0.5327730000000  0.4697420000000 1.0
C      1  0.4788370000000  0.4334480000000  0.5741040000000 1.0
C      1  0.4503200000000  0.4961840000000  0.4325290000000 1.0
C      1  0.5828910000000  0.5429540000000  0.4740570000000 1.0
C      1  0.5758270000000  0.6044940000000  0.5144720000000 1.0
C      1  0.4867750000000  0.5817120000000  0.5045300000000 1.0
C      1  0.5046250000000  0.4594200000000  0.4601480000000 1.0
C      1  0.5409010000000  0.4259320000000  0.5025880000000 1.0
C      1  0.5281560000000  0.4748960000000  0.4684990000000 1.0
C      1  0.4293770000000  0.4591140000000  0.5432690000000 1.0
C      1  0.5183010000000  0.5219840000000  0.4455140000000 1.0
C      1  0.5579290000000  0.5306620000000  0.4713840000000 1.0
C      1  0.4282620000000  0.4227810000000  0.4890800000000 1.0
C      1  0.4791960000000  0.5574160000000  0.4922560000000 1.0
C      1  0.4953450000000  0.5209260000000  0.4636450000000 1.0
C      1  0.4570670000000  0.5521900000000  0.5606060000000 1.0
C      1  0.5327700000000  0.4893540000000  0.5915780000000 1.0
C      1  0.4819120000000  0.4981740000000  0.4762510000000 1.0
C      1  0.5430070000000  0.4817870000000  0.4454920000000 1.0
C      1  0.4280390000000  0.5298640000000  0.4639350000000 1.0
C      1  0.3797000000000  0.5099750000000  0.4841140000000 1.0
C      1  0.4466760000000  0.4791740000000  0.5049330000000 1.0
C      1  0.5732610000000  0.5089390000000  0.5756520000000 1.0
C      1  0.5121870000000  0.4202380000000  0.5053680000000 1.0
C      1  0.5177580000000  0.6522900000000  0.4867400000000 1.0
C      1  0.4298280000000  0.5051260000000  0.4488170000000 1.0
C      1  0.5581240000000  0.6234550000000  0.5040370000000 1.0
C      1  0.5440420000000  0.4084770000000  0.5477150000000 1.0
C      1  0.4318000000000  0.5499400000000  0.4212830000000 1.0
C      1  0.4815000000000  0.4626800000000  0.4188130000000 1.0
C      1  0.5235300000000  0.4794750000000  0.5153690000000 1.0
C      1  0.5504270000000  0.5624750000000  0.5194680000000 1.0
C      1  0.4403310000000  0.5039680000000  0.5593980000000 1.0
C      1  0.4884430000000  0.5853600000000  0.5329200000000 1.0
C      1  0.5461650000000  0.4364400000000  0.3586150000000 1.0
C      1  0.4664580000000  0.5125330000000  0.4152010000000 1.0
C      1  0.4658020000000  0.4348620000000  0.5169490000000 1.0
C      1  0.4821380000000  0.5155980000000  0.5201240000000 1.0
C      1  0.4633130000000  0.4723560000000  0.4395660000000 1.0
C      1  0.4402170000000  0.5365080000000  0.5170770000000 1.0
C      1  0.5292020000000  0.4715320000000  0.5398940000000 1.0
C      1  0.5191330000000  0.4883540000000  0.4059890000000 1.0
C      1  0.5597980000000  0.5339300000000  0.5747090000000 1.0
C      1  0.5557430000000  0.4366690000000  0.4494020000000 1.0
C      1  0.4658300000000  0.5765080000000  0.5481830000000 1.0
C      1  0.5390070000000  0.5398110000000  0.4526930000000 1.0
C      1  0.5202320000000  0.4099770000000  0.5602960000000 1.0
C      1  0.5387950000000  0.5450790000000  0.5597230000000 1.0
C      1  0.5697800000000  0.4480050000000  0.5401910000000 1.0
C      1  0.4925920000000  0.4289740000000  0.5259650000000 1.0
C      1  0.3876430000000  0.5490390000000  0.4516960000000 1.0
C      1  0.6172800000000  0.4667580000000  0.5475870000000 1.0
C      1  0.4142120000000  0.4455880000000  0.4904250000000 1.0
C      1  0.4685890000000  0.5392480000000  0.5114670000000 1.0
C      1  0.5006940000000  0.5174100000000  0.5419060000000 1.0
C      1  0.4750510000000  0.5555550000000  0.4400600000000 1.0
C      1  0.5379070000000  0.5705070000000  0.5451430000000 1.0
C      1  0.4772020000000  0.5412540000000  0.5781020000000 1.0
C      1  0.4999700000000  0.4029740000000  0.4862590000000 1.0
C      1  0.5376490000000  0.4643240000000  0.4038910000000 1.0
C      1  0.5551830000000  0.4260900000000  0.5282170000000 1.0
C      1  0.4266200000000  0.5339740000000  0.4922730000000 1.0
C      1  0.5424550000000  0.4502940000000  0.3803720000000 1.0
C      1  0.4392910000000  0.5316380000000  0.5466860000000 1.0
C      1  0.5521460000000  0.4290270000000  0.4757890000000 1.0
END
