TITL C-627107-135-1451 0.0118623302381839 125000 -544.506614620813 0 0 91 (C1) n - 1
REM
REM in /home/nfs/bkarasulu/CARBON/AIRSS/Generating-Clusters/LCBOP/Only-C1/SD-CG/FIRE-CG
REM
REM
REM
REM
REM
REM ./C.cell (11c1c37f851c82e70ff6c80c92926a4b)
REM AIRSS Version 0.9.1 bugfix July 2018 build 013d7b7c2542+ Fri, 06 Jul 2018 19:26:36 +0100
REM compiler GCC version 9.2.1 20190827 (Red Hat 9.2.1-1)
REM options -cpp -mtune=generic -march=x86-64 -g -O0 -fpre-include=/usr/include/finclude/math-vector-fortran.h
REM seed 1000502563 285771196 -1105643185 291242766 -1354476096 -1377602634 -671960674 427358282 1718989806 1700528818 1635440752 470697497 -1553778866 1113056359 560657503 82046476 -1837117665 -1836817346 109216515 -2002052071 928080568 1960187563 1163606839 -811477736 -62041968 -1302390092 -1045683095 1923321444 178817819 -627345585 1232465045 114702226 -1370729816
REM
CELL 1.54180   50.00000   50.00000   50.00000   90.00000   90.00000   90.00000
LATT -1
SFAC C  
C      1  0.5480390000000  0.4749200000000  0.4768380000000 1.0
C      1  0.4243970000000  0.5067790000000  0.5706780000000 1.0
C      1  0.5264140000000  0.4623770000000  0.4083890000000 1.0
C      1  0.5199810000000  0.5673520000000  0.5149310000000 1.0
C      1  0.4686250000000  0.5254630000000  0.4306950000000 1.0
C      1  0.4959760000000  0.5510960000000  0.5092400000000 1.0
C      1  0.6211380000000  0.5389080000000  0.4549010000000 1.0
C      1  0.4322270000000  0.5001590000000  0.4593490000000 1.0
C      1  0.5333290000000  0.5716010000000  0.5398750000000 1.0
C      1  0.4789480000000  0.4841460000000  0.5323570000000 1.0
C      1  0.4694890000000  0.5744360000000  0.5475190000000 1.0
C      1  0.5062080000000  0.5418870000000  0.5680980000000 1.0
C      1  0.4773100000000  0.4117940000000  0.5311240000000 1.0
C      1  0.5889270000000  0.4620650000000  0.4604360000000 1.0
C      1  0.5417760000000  0.4707870000000  0.5605810000000 1.0
C      1  0.5222240000000  0.3995770000000  0.5065060000000 1.0
C      1  0.5605310000000  0.5547960000000  0.5820050000000 1.0
C      1  0.4942140000000  0.4622640000000  0.4836480000000 1.0
C      1  0.5381380000000  0.5289770000000  0.4226000000000 1.0
C      1  0.5610380000000  0.5069470000000  0.6053150000000 1.0
C      1  0.4896640000000  0.5118670000000  0.4145620000000 1.0
C      1  0.4535480000000  0.4918140000000  0.5199200000000 1.0
C      1  0.5676360000000  0.4536790000000  0.4773000000000 1.0
C      1  0.4541610000000  0.4160740000000  0.5147810000000 1.0
C      1  0.5828200000000  0.5125730000000  0.4417500000000 1.0
C      1  0.5381190000000  0.4831720000000  0.5016950000000 1.0
C      1  0.5652720000000  0.5268740000000  0.5845900000000 1.0
C      1  0.5764690000000  0.5203270000000  0.3945470000000 1.0
C      1  0.4956800000000  0.5000600000000  0.5879720000000 1.0
C      1  0.3634110000000  0.5136800000000  0.4756120000000 1.0
C      1  0.4841560000000  0.4339920000000  0.5484100000000 1.0
C      1  0.5167480000000  0.4436680000000  0.5897690000000 1.0
C      1  0.3115490000000  0.5054630000000  0.4782670000000 1.0
C      1  0.4876400000000  0.5724930000000  0.4382800000000 1.0
C      1  0.5138480000000  0.5139140000000  0.5711370000000 1.0
C      1  0.4507510000000  0.5727880000000  0.5276040000000 1.0
C      1  0.5486720000000  0.5690940000000  0.5620440000000 1.0
C      1  0.5231740000000  0.5243960000000  0.4859500000000 1.0
C      1  0.5503470000000  0.4813780000000  0.6060210000000 1.0
C      1  0.4144380000000  0.4918120000000  0.5505430000000 1.0
C      1  0.5171760000000  0.4244710000000  0.4660860000000 1.0
C      1  0.4493040000000  0.4880310000000  0.4132210000000 1.0
C      1  0.5239640000000  0.5064290000000  0.5079870000000 1.0
C      1  0.4460310000000  0.5068260000000  0.4352690000000 1.0
C      1  0.4773690000000  0.5148220000000  0.4817400000000 1.0
C      1  0.4625510000000  0.5296770000000  0.5509030000000 1.0
C      1  0.4279590000000  0.4846060000000  0.5283770000000 1.0
C      1  0.4800060000000  0.5303310000000  0.5259230000000 1.0
C      1  0.4691240000000  0.5036570000000  0.5906340000000 1.0
C      1  0.5151640000000  0.5734550000000  0.4437550000000 1.0
C      1  0.4277520000000  0.5436770000000  0.4884240000000 1.0
C      1  0.5657020000000  0.5205530000000  0.4198990000000 1.0
C      1  0.4856270000000  0.4881620000000  0.4753460000000 1.0
C      1  0.4175430000000  0.5207390000000  0.4740760000000 1.0
C      1  0.4416380000000  0.4306600000000  0.4957080000000 1.0
C      1  0.4995110000000  0.3972600000000  0.5209030000000 1.0
C      1  0.4974260000000  0.5359660000000  0.4833110000000 1.0
C      1  0.5945110000000  0.5331050000000  0.4579580000000 1.0
C      1  0.5460480000000  0.4539400000000  0.5377640000000 1.0
C      1  0.3372650000000  0.5095380000000  0.4769500000000 1.0
C      1  0.5289440000000  0.4617950000000  0.5167050000000 1.0
C      1  0.4367990000000  0.5612870000000  0.5071680000000 1.0
C      1  0.4334750000000  0.4722110000000  0.4673840000000 1.0
C      1  0.5907930000000  0.4855760000000  0.4467730000000 1.0
C      1  0.4860030000000  0.4573130000000  0.5326530000000 1.0
C      1  0.3895610000000  0.5176970000000  0.4743840000000 1.0
C      1  0.5357350000000  0.4798330000000  0.4524440000000 1.0
C      1  0.5607070000000  0.5144490000000  0.5592330000000 1.0
C      1  0.4445490000000  0.4459320000000  0.4717080000000 1.0
C      1  0.5359090000000  0.5742280000000  0.4917050000000 1.0
C      1  0.4509230000000  0.5159440000000  0.5729820000000 1.0
C      1  0.4971210000000  0.4338590000000  0.5736950000000 1.0
C      1  0.5315280000000  0.5553510000000  0.4296030000000 1.0
C      1  0.5029290000000  0.4551240000000  0.5100300000000 1.0
C      1  0.5174450000000  0.5091440000000  0.4197320000000 1.0
C      1  0.5366910000000  0.4995230000000  0.5586070000000 1.0
C      1  0.4604450000000  0.5161070000000  0.5052570000000 1.0
C      1  0.4999580000000  0.5055880000000  0.5269100000000 1.0
C      1  0.5617750000000  0.5633630000000  0.4888980000000 1.0
C      1  0.5351470000000  0.4161240000000  0.4871240000000 1.0
C      1  0.5381140000000  0.4623660000000  0.5877600000000 1.0
C      1  0.4741280000000  0.4910320000000  0.4012700000000 1.0
C      1  0.5792690000000  0.5475180000000  0.4765790000000 1.0
C      1  0.4936590000000  0.4405400000000  0.4650730000000 1.0
C      1  0.4670520000000  0.4369820000000  0.4558620000000 1.0
C      1  0.5261480000000  0.4827830000000  0.4264900000000 1.0
C      1  0.5595330000000  0.4314200000000  0.4945140000000 1.0
C      1  0.4894520000000  0.5629740000000  0.5625220000000 1.0
C      1  0.4696970000000  0.5529570000000  0.4350560000000 1.0
C      1  0.5636920000000  0.4355380000000  0.5236580000000 1.0
C      1  0.5241200000000  0.5840850000000  0.4681470000000 1.0
END
