TITL C-627108-131-89 0.315364870705569 125000 -958.726120167183 0 0 158 (C1) n - 1
REM
REM in /home/nfs/bkarasulu/CARBON/AIRSS/Generating-Clusters/LCBOP/Only-C1/SD-CG/FIRE-CG
REM
REM
REM
REM
REM
REM ./C.cell (11c1c37f851c82e70ff6c80c92926a4b)
REM AIRSS Version 0.9.1 bugfix July 2018 build 013d7b7c2542+ Fri, 06 Jul 2018 19:26:36 +0100
REM compiler GCC version 9.2.1 20190827 (Red Hat 9.2.1-1)
REM options -cpp -mtune=generic -march=x86-64 -g -O0 -fpre-include=/usr/include/finclude/math-vector-fortran.h
REM seed 267541748 -411967960 79281761 1547621068 -17990150 1017050841 1027805832 1341084403 220571217 -74569430 -608060827 792387186 -1371611775 -2107402466 1896324977 765858241 1145052539 988099523 344659651 -1697006423 -1647888302 699564770 1931250703 1654504660 327623981 1314275759 -1790507138 660259355 432370896 851933125 8719172 127812594 2113283745
REM
CELL 1.54180   50.00000   50.00000   50.00000   90.00000   90.00000   90.00000
LATT -1
SFAC C  
C      1  0.4155030000000  0.4525650000000  0.5465370000000 1.0
C      1  0.5583430000000  0.4408110000000  0.4042820000000 1.0
C      1  0.4459830000000  0.4753130000000  0.5768410000000 1.0
C      1  0.5635930000000  0.5783800000000  0.4424290000000 1.0
C      1  0.5218480000000  0.5862960000000  0.4132460000000 1.0
C      1  0.4017430000000  0.4253190000000  0.4316750000000 1.0
C      1  0.4565750000000  0.4037250000000  0.5399010000000 1.0
C      1  0.5077150000000  0.4449070000000  0.4942980000000 1.0
C      1  0.4360660000000  0.5681190000000  0.6332420000000 1.0
C      1  0.4738010000000  0.3909080000000  0.4989550000000 1.0
C      1  0.4595510000000  0.5585880000000  0.6250390000000 1.0
C      1  0.5757940000000  0.5336460000000  0.4584570000000 1.0
C      1  0.5172240000000  0.4496560000000  0.4464250000000 1.0
C      1  0.4934230000000  0.4141430000000  0.4251070000000 1.0
C      1  0.5335860000000  0.4135520000000  0.5855010000000 1.0
C      1  0.4812720000000  0.5378810000000  0.4484190000000 1.0
C      1  0.4216760000000  0.4263410000000  0.4138730000000 1.0
C      1  0.4873250000000  0.6119160000000  0.4339370000000 1.0
C      1  0.5397050000000  0.4205980000000  0.4034960000000 1.0
C      1  0.5763450000000  0.4993050000000  0.5739740000000 1.0
C      1  0.5522100000000  0.4316870000000  0.5366330000000 1.0
C      1  0.4933050000000  0.5059730000000  0.5550270000000 1.0
C      1  0.5744940000000  0.4852200000000  0.4377540000000 1.0
C      1  0.5460540000000  0.5970330000000  0.4525980000000 1.0
C      1  0.5274830000000  0.4720280000000  0.5499600000000 1.0
C      1  0.5099980000000  0.5036300000000  0.6641660000000 1.0
C      1  0.6101330000000  0.4728870000000  0.5063330000000 1.0
C      1  0.5099020000000  0.5755910000000  0.6722720000000 1.0
C      1  0.4946480000000  0.4371340000000  0.4670880000000 1.0
C      1  0.5984930000000  0.4899790000000  0.4601610000000 1.0
C      1  0.5116060000000  0.5424400000000  0.4003970000000 1.0
C      1  0.4795800000000  0.4617740000000  0.4162380000000 1.0
C      1  0.5505610000000  0.4768200000000  0.4813420000000 1.0
C      1  0.5098190000000  0.6101150000000  0.4167480000000 1.0
C      1  0.5630510000000  0.4579890000000  0.4269310000000 1.0
C      1  0.5752040000000  0.5283750000000  0.5684690000000 1.0
C      1  0.5214790000000  0.4061990000000  0.4204580000000 1.0
C      1  0.4555920000000  0.4016500000000  0.4505820000000 1.0
C      1  0.4943690000000  0.5148730000000  0.4932480000000 1.0
C      1  0.4859470000000  0.5529870000000  0.5311580000000 1.0
C      1  0.4381350000000  0.3945830000000  0.5576220000000 1.0
C      1  0.5749520000000  0.4856300000000  0.5488570000000 1.0
C      1  0.5394840000000  0.5491360000000  0.5253410000000 1.0
C      1  0.4346760000000  0.5235820000000  0.4738760000000 1.0
C      1  0.4123300000000  0.5763240000000  0.6241950000000 1.0
C      1  0.5223240000000  0.4770820000000  0.4032330000000 1.0
C      1  0.4290560000000  0.5211520000000  0.4191960000000 1.0
C      1  0.5155430000000  0.5724000000000  0.4955400000000 1.0
C      1  0.5388480000000  0.4683940000000  0.5975480000000 1.0
C      1  0.4288900000000  0.4953070000000  0.4610360000000 1.0
C      1  0.4434820000000  0.4487390000000  0.4836800000000 1.0
C      1  0.6032600000000  0.4676120000000  0.4786890000000 1.0
C      1  0.5657930000000  0.4331050000000  0.4660150000000 1.0
C      1  0.4756490000000  0.4762550000000  0.5151340000000 1.0
C      1  0.5529260000000  0.5406730000000  0.5836430000000 1.0
C      1  0.4531720000000  0.4052290000000  0.5114750000000 1.0
C      1  0.4553120000000  0.4891010000000  0.4477360000000 1.0
C      1  0.5324750000000  0.4575760000000  0.4907340000000 1.0
C      1  0.4745720000000  0.6063660000000  0.5080260000000 1.0
C      1  0.4677250000000  0.5755180000000  0.5442660000000 1.0
C      1  0.5355680000000  0.3835230000000  0.4676870000000 1.0
C      1  0.5169410000000  0.3850800000000  0.4888770000000 1.0
C      1  0.4870570000000  0.5332190000000  0.5546630000000 1.0
C      1  0.4415110000000  0.5431450000000  0.5183760000000 1.0
C      1  0.5382140000000  0.5269800000000  0.5077170000000 1.0
C      1  0.5821350000000  0.5721870000000  0.5114620000000 1.0
C      1  0.4080450000000  0.4248590000000  0.5048220000000 1.0
C      1  0.4633600000000  0.6048430000000  0.4211350000000 1.0
C      1  0.5568910000000  0.4923780000000  0.5954820000000 1.0
C      1  0.5102890000000  0.6016850000000  0.5438440000000 1.0
C      1  0.5191690000000  0.5261390000000  0.6516260000000 1.0
C      1  0.5156170000000  0.5600840000000  0.4215590000000 1.0
C      1  0.4505750000000  0.4882140000000  0.6275930000000 1.0
C      1  0.4023380000000  0.5770550000000  0.5747020000000 1.0
C      1  0.4317170000000  0.4926680000000  0.5094550000000 1.0
C      1  0.5973170000000  0.5193420000000  0.5220380000000 1.0
C      1  0.6046400000000  0.5312740000000  0.4963150000000 1.0
C      1  0.5390410000000  0.4468080000000  0.5551860000000 1.0
C      1  0.5750150000000  0.5525110000000  0.4368190000000 1.0
C      1  0.5465160000000  0.4447570000000  0.4481900000000 1.0
C      1  0.4175730000000  0.5708180000000  0.5538490000000 1.0
C      1  0.5333630000000  0.3898670000000  0.4412210000000 1.0
C      1  0.3912230000000  0.4214720000000  0.4825850000000 1.0
C      1  0.3790890000000  0.4887940000000  0.4369740000000 1.0
C      1  0.4511760000000  0.5074590000000  0.4049170000000 1.0
C      1  0.4632770000000  0.5660820000000  0.4808980000000 1.0
C      1  0.4616290000000  0.4849900000000  0.4200190000000 1.0
C      1  0.5451490000000  0.5026650000000  0.5171750000000 1.0
C      1  0.4889810000000  0.4378290000000  0.5404120000000 1.0
C      1  0.4500840000000  0.4809670000000  0.5279140000000 1.0
C      1  0.3994210000000  0.5795930000000  0.6010600000000 1.0
C      1  0.4365900000000  0.3837860000000  0.4491430000000 1.0
C      1  0.5263650000000  0.6109110000000  0.5215500000000 1.0
C      1  0.5236170000000  0.3959650000000  0.5666880000000 1.0
C      1  0.4548960000000  0.5560070000000  0.4075860000000 1.0
C      1  0.4361910000000  0.4251680000000  0.4988070000000 1.0
C      1  0.4674830000000  0.5504030000000  0.5059150000000 1.0
C      1  0.4034930000000  0.4927810000000  0.4464840000000 1.0
C      1  0.4568710000000  0.5837500000000  0.4057920000000 1.0
C      1  0.3905380000000  0.4228230000000  0.4558300000000 1.0
C      1  0.5666580000000  0.5570350000000  0.5299900000000 1.0
C      1  0.6020130000000  0.5599660000000  0.4971180000000 1.0
C      1  0.5652330000000  0.4887040000000  0.5020490000000 1.0
C      1  0.4813510000000  0.4916270000000  0.4915550000000 1.0
C      1  0.5251150000000  0.5994380000000  0.4957280000000 1.0
C      1  0.5064730000000  0.4836700000000  0.5655280000000 1.0
C      1  0.4831710000000  0.4112680000000  0.5465870000000 1.0
C      1  0.4019920000000  0.4365710000000  0.5296810000000 1.0
C      1  0.5036260000000  0.5995210000000  0.6804910000000 1.0
C      1  0.5101790000000  0.3850910000000  0.5165740000000 1.0
C      1  0.4734670000000  0.4798960000000  0.4671900000000 1.0
C      1  0.4312580000000  0.5211710000000  0.5033360000000 1.0
C      1  0.5184960000000  0.4880660000000  0.3791050000000 1.0
C      1  0.4288930000000  0.4753260000000  0.4855410000000 1.0
C      1  0.5058640000000  0.5522730000000  0.4475890000000 1.0
C      1  0.4815840000000  0.5994570000000  0.5356370000000 1.0
C      1  0.5976580000000  0.5188220000000  0.4707630000000 1.0
C      1  0.5237590000000  0.5851840000000  0.5644440000000 1.0
C      1  0.5072480000000  0.4651660000000  0.4236560000000 1.0
C      1  0.5381240000000  0.5647420000000  0.5764870000000 1.0
C      1  0.4745710000000  0.5940590000000  0.4813010000000 1.0
C      1  0.6329510000000  0.4637510000000  0.5182360000000 1.0
C      1  0.5466460000000  0.4896420000000  0.5413080000000 1.0
C      1  0.4740710000000  0.4334160000000  0.4123040000000 1.0
C      1  0.4473310000000  0.4267390000000  0.4062000000000 1.0
C      1  0.4909770000000  0.3913980000000  0.4776960000000 1.0
C      1  0.5023710000000  0.5075740000000  0.3700600000000 1.0
C      1  0.5061310000000  0.3939930000000  0.5437720000000 1.0
C      1  0.5112910000000  0.4776220000000  0.5930020000000 1.0
C      1  0.4657750000000  0.5312540000000  0.3945210000000 1.0
C      1  0.3552820000000  0.4839760000000  0.4275130000000 1.0
C      1  0.4847430000000  0.4097210000000  0.4549680000000 1.0
C      1  0.5342990000000  0.5325320000000  0.4804450000000 1.0
C      1  0.4386170000000  0.5463720000000  0.4304810000000 1.0
C      1  0.4923760000000  0.5288750000000  0.3853370000000 1.0
C      1  0.5185710000000  0.5546740000000  0.4731730000000 1.0
C      1  0.5323760000000  0.5242350000000  0.6270790000000 1.0
C      1  0.5777030000000  0.5346920000000  0.4140090000000 1.0
C      1  0.5779530000000  0.5071090000000  0.4161190000000 1.0
C      1  0.5513070000000  0.4927340000000  0.4573640000000 1.0
C      1  0.5153720000000  0.5513180000000  0.6631690000000 1.0
C      1  0.4825140000000  0.5442530000000  0.5804440000000 1.0
C      1  0.4752770000000  0.5505870000000  0.6051670000000 1.0
C      1  0.5508560000000  0.5205410000000  0.4622010000000 1.0
C      1  0.4913910000000  0.4526730000000  0.5170670000000 1.0
C      1  0.4531850000000  0.5455970000000  0.4584050000000 1.0
C      1  0.5899750000000  0.4894460000000  0.5210760000000 1.0
C      1  0.5900410000000  0.4428180000000  0.4735190000000 1.0
C      1  0.4380260000000  0.4691750000000  0.5508860000000 1.0
C      1  0.5408470000000  0.4415270000000  0.5837530000000 1.0
C      1  0.5829200000000  0.5361500000000  0.5421240000000 1.0
C      1  0.5133900000000  0.5605660000000  0.5215480000000 1.0
C      1  0.5229830000000  0.6064240000000  0.4680860000000 1.0
C      1  0.4936190000000  0.6060410000000  0.4612390000000 1.0
C      1  0.4687220000000  0.4519680000000  0.4702750000000 1.0
C      1  0.4404830000000  0.5632750000000  0.5400280000000 1.0
C      1  0.5459120000000  0.5194840000000  0.6032510000000 1.0
C      1  0.4484200000000  0.4817930000000  0.6024200000000 1.0
END
