TITL C-627107-135-1209 -1.10409085792415e-06 125000 -1203.65023205316 0 0 196 (C1) n - 1
REM
REM in /home/nfs/bkarasulu/CARBON/AIRSS/Generating-Clusters/LCBOP/Only-C1/SD-CG/FIRE-CG
REM
REM
REM
REM
REM
REM ./C.cell (11c1c37f851c82e70ff6c80c92926a4b)
REM AIRSS Version 0.9.1 bugfix July 2018 build 013d7b7c2542+ Fri, 06 Jul 2018 19:26:36 +0100
REM compiler GCC version 9.2.1 20190827 (Red Hat 9.2.1-1)
REM options -cpp -mtune=generic -march=x86-64 -g -O0 -fpre-include=/usr/include/finclude/math-vector-fortran.h
REM seed -1821744574 -891263608 -166569891 -902533719 -914746035 2134214308 623326391 -1179483425 -848805146 -1377766602 1763419935 -1170643876 -41191659 1059939499 942272948 297124009 -1684049546 537759640 -2084245898 766567724 49988729 -2014654925 -2081626471 1479877096 1050632915 1332594443 -646874452 -1777129194 1726423869 1991335709 -322166758 947035682 1909740689
REM
CELL 1.54180   50.00000   50.00000   50.00000   90.00000   90.00000   90.00000
LATT -1
SFAC C  
C      1  0.5931760000000  0.4684930000000  0.4864660000000 1.0
C      1  0.5661590000000  0.6276360000000  0.4726630000000 1.0
C      1  0.4801700000000  0.5251830000000  0.5958680000000 1.0
C      1  0.3833290000000  0.4777150000000  0.5319320000000 1.0
C      1  0.5408960000000  0.4994360000000  0.4696970000000 1.0
C      1  0.4406550000000  0.4238910000000  0.4600950000000 1.0
C      1  0.5062590000000  0.6225620000000  0.4225980000000 1.0
C      1  0.4141820000000  0.4302980000000  0.5682430000000 1.0
C      1  0.5480400000000  0.5065840000000  0.6084590000000 1.0
C      1  0.4117060000000  0.5805500000000  0.4744610000000 1.0
C      1  0.5076140000000  0.5799280000000  0.5128760000000 1.0
C      1  0.6361980000000  0.4785060000000  0.5078400000000 1.0
C      1  0.5814760000000  0.4205660000000  0.4453270000000 1.0
C      1  0.5741810000000  0.5102620000000  0.5952870000000 1.0
C      1  0.4057680000000  0.5009790000000  0.5671860000000 1.0
C      1  0.4946990000000  0.4044900000000  0.4209090000000 1.0
C      1  0.5613680000000  0.4402980000000  0.4464170000000 1.0
C      1  0.4466190000000  0.4090920000000  0.4027050000000 1.0
C      1  0.5262380000000  0.5253260000000  0.5752680000000 1.0
C      1  0.3944900000000  0.5102350000000  0.4940610000000 1.0
C      1  0.5970420000000  0.4091470000000  0.5445130000000 1.0
C      1  0.4374370000000  0.5565220000000  0.5356850000000 1.0
C      1  0.5267770000000  0.4899980000000  0.5475170000000 1.0
C      1  0.4760620000000  0.5065760000000  0.4838250000000 1.0
C      1  0.4685030000000  0.5666560000000  0.6078820000000 1.0
C      1  0.4902280000000  0.4639050000000  0.4584170000000 1.0
C      1  0.5345280000000  0.4308100000000  0.4513050000000 1.0
C      1  0.5229110000000  0.5544060000000  0.3994150000000 1.0
C      1  0.5199100000000  0.5646370000000  0.4638370000000 1.0
C      1  0.5945370000000  0.5168870000000  0.6131040000000 1.0
C      1  0.4609350000000  0.5101350000000  0.3806340000000 1.0
C      1  0.4673580000000  0.3802570000000  0.5780850000000 1.0
C      1  0.4896870000000  0.5294360000000  0.4378780000000 1.0
C      1  0.5019320000000  0.4545560000000  0.5570570000000 1.0
C      1  0.5025690000000  0.5400790000000  0.4606060000000 1.0
C      1  0.4865190000000  0.6195080000000  0.4916500000000 1.0
C      1  0.4171990000000  0.3719070000000  0.4141030000000 1.0
C      1  0.5682400000000  0.6174690000000  0.5230730000000 1.0
C      1  0.4796260000000  0.3856830000000  0.5025610000000 1.0
C      1  0.4733860000000  0.4179010000000  0.4066380000000 1.0
C      1  0.5726600000000  0.4063580000000  0.5335930000000 1.0
C      1  0.5571410000000  0.5011910000000  0.4046240000000 1.0
C      1  0.6190170000000  0.4590660000000  0.4959100000000 1.0
C      1  0.3705550000000  0.4492810000000  0.4905520000000 1.0
C      1  0.3934540000000  0.4541060000000  0.4440460000000 1.0
C      1  0.4477740000000  0.5794610000000  0.4098950000000 1.0
C      1  0.5146530000000  0.4464940000000  0.4655290000000 1.0
C      1  0.5648080000000  0.5265100000000  0.4145940000000 1.0
C      1  0.4406480000000  0.3856670000000  0.5395990000000 1.0
C      1  0.4945550000000  0.5551570000000  0.5545770000000 1.0
C      1  0.5056730000000  0.4814800000000  0.6228880000000 1.0
C      1  0.4800490000000  0.4953540000000  0.5296770000000 1.0
C      1  0.5679890000000  0.5881610000000  0.5254370000000 1.0
C      1  0.5652550000000  0.5432490000000  0.5099830000000 1.0
C      1  0.5647920000000  0.5810600000000  0.4507040000000 1.0
C      1  0.4957400000000  0.5594280000000  0.6198020000000 1.0
C      1  0.5546720000000  0.5689940000000  0.5094760000000 1.0
C      1  0.6066160000000  0.5198640000000  0.5004600000000 1.0
C      1  0.3794520000000  0.5553530000000  0.4956660000000 1.0
C      1  0.4344100000000  0.4157580000000  0.5815490000000 1.0
C      1  0.4470800000000  0.5543150000000  0.4006750000000 1.0
C      1  0.6121470000000  0.5669360000000  0.4634170000000 1.0
C      1  0.4414330000000  0.4282520000000  0.4877040000000 1.0
C      1  0.5757100000000  0.5361620000000  0.4565290000000 1.0
C      1  0.4476690000000  0.4975350000000  0.4397570000000 1.0
C      1  0.5877410000000  0.5237320000000  0.4331160000000 1.0
C      1  0.5475020000000  0.4531540000000  0.3989120000000 1.0
C      1  0.5172800000000  0.5339870000000  0.3807970000000 1.0
C      1  0.5010150000000  0.4077710000000  0.5972940000000 1.0
C      1  0.5416660000000  0.5661560000000  0.4429210000000 1.0
C      1  0.5844890000000  0.5804360000000  0.5488810000000 1.0
C      1  0.4261280000000  0.5066130000000  0.5871190000000 1.0
C      1  0.5551810000000  0.4403030000000  0.5018120000000 1.0
C      1  0.4167100000000  0.4471280000000  0.4015990000000 1.0
C      1  0.3949000000000  0.5384880000000  0.4530500000000 1.0
C      1  0.6153780000000  0.5169350000000  0.5280390000000 1.0
C      1  0.4614020000000  0.6224240000000  0.4750140000000 1.0
C      1  0.5066400000000  0.4354840000000  0.6015410000000 1.0
C      1  0.4189780000000  0.4560120000000  0.5582690000000 1.0
C      1  0.5357000000000  0.4290420000000  0.3973440000000 1.0
C      1  0.5218680000000  0.5501930000000  0.5652820000000 1.0
C      1  0.5441000000000  0.5491000000000  0.4187490000000 1.0
C      1  0.4123750000000  0.5733220000000  0.5267810000000 1.0
C      1  0.4437430000000  0.3918670000000  0.5676050000000 1.0
C      1  0.6206100000000  0.4341330000000  0.5097500000000 1.0
C      1  0.5199770000000  0.5070280000000  0.6184580000000 1.0
C      1  0.5074060000000  0.5100770000000  0.3736680000000 1.0
C      1  0.4598950000000  0.4440920000000  0.5361130000000 1.0
C      1  0.4993830000000  0.5855080000000  0.4629590000000 1.0
C      1  0.3838710000000  0.5321720000000  0.4793660000000 1.0
C      1  0.4015760000000  0.5736970000000  0.5001280000000 1.0
C      1  0.4567780000000  0.5280560000000  0.4019390000000 1.0
C      1  0.5903080000000  0.6054630000000  0.5621090000000 1.0
C      1  0.4346700000000  0.5350510000000  0.5879920000000 1.0
C      1  0.6164360000000  0.4281590000000  0.5373910000000 1.0
C      1  0.5713670000000  0.4640330000000  0.5056050000000 1.0
C      1  0.5758120000000  0.3976940000000  0.4869680000000 1.0
C      1  0.4922610000000  0.4775920000000  0.5756440000000 1.0
C      1  0.4418230000000  0.4470870000000  0.4436640000000 1.0
C      1  0.5673290000000  0.5112110000000  0.4731060000000 1.0
C      1  0.4914360000000  0.5306690000000  0.4845510000000 1.0
C      1  0.5447620000000  0.5003060000000  0.5290130000000 1.0
C      1  0.5150090000000  0.4167980000000  0.5060080000000 1.0
C      1  0.5059250000000  0.5775310000000  0.4026090000000 1.0
C      1  0.4624400000000  0.5602620000000  0.5171170000000 1.0
C      1  0.4479300000000  0.4324770000000  0.6013480000000 1.0
C      1  0.3918500000000  0.5702760000000  0.5468170000000 1.0
C      1  0.4399250000000  0.5580260000000  0.5681940000000 1.0
C      1  0.5651210000000  0.6309230000000  0.4990770000000 1.0
C      1  0.4927170000000  0.6046550000000  0.5168500000000 1.0
C      1  0.5855670000000  0.4857840000000  0.4615900000000 1.0
C      1  0.5075270000000  0.4724980000000  0.5338340000000 1.0
C      1  0.4904400000000  0.4575290000000  0.6145710000000 1.0
C      1  0.4471270000000  0.4844100000000  0.5948180000000 1.0
C      1  0.4379180000000  0.5097330000000  0.5122500000000 1.0
C      1  0.4566250000000  0.5389110000000  0.6063540000000 1.0
C      1  0.5250280000000  0.4421390000000  0.4948700000000 1.0
C      1  0.4598190000000  0.4587380000000  0.6087010000000 1.0
C      1  0.4946220000000  0.4878610000000  0.4737390000000 1.0
C      1  0.4927780000000  0.4068520000000  0.5470420000000 1.0
C      1  0.6199150000000  0.5201750000000  0.4733030000000 1.0
C      1  0.4292730000000  0.4268350000000  0.3889940000000 1.0
C      1  0.5208440000000  0.4429080000000  0.5770370000000 1.0
C      1  0.3990930000000  0.4752320000000  0.5557660000000 1.0
C      1  0.5267320000000  0.4032900000000  0.4541610000000 1.0
C      1  0.4557460000000  0.3784570000000  0.4617170000000 1.0
C      1  0.6219090000000  0.4487670000000  0.5563150000000 1.0
C      1  0.6121460000000  0.4742660000000  0.5492440000000 1.0
C      1  0.4606900000000  0.5766040000000  0.5807280000000 1.0
C      1  0.5655650000000  0.4139160000000  0.5074850000000 1.0
C      1  0.4465060000000  0.4627300000000  0.5527590000000 1.0
C      1  0.5203720000000  0.4911990000000  0.4889660000000 1.0
C      1  0.5663090000000  0.6085470000000  0.4540700000000 1.0
C      1  0.4762020000000  0.6308600000000  0.5547670000000 1.0
C      1  0.4801550000000  0.5295300000000  0.5666380000000 1.0
C      1  0.4915110000000  0.5999000000000  0.4138180000000 1.0
C      1  0.6296890000000  0.5464310000000  0.4669660000000 1.0
C      1  0.5780710000000  0.5211970000000  0.4988810000000 1.0
C      1  0.6069910000000  0.5050700000000  0.4486310000000 1.0
C      1  0.4595900000000  0.5674190000000  0.4893330000000 1.0
C      1  0.4697260000000  0.5074520000000  0.5526280000000 1.0
C      1  0.5128220000000  0.6290660000000  0.4480840000000 1.0
C      1  0.5024850000000  0.5306290000000  0.6140010000000 1.0
C      1  0.4711880000000  0.5791200000000  0.4664550000000 1.0
C      1  0.4639990000000  0.5977130000000  0.4242310000000 1.0
C      1  0.4069980000000  0.5645420000000  0.4527330000000 1.0
C      1  0.4817610000000  0.5825470000000  0.5617870000000 1.0
C      1  0.5171570000000  0.4672390000000  0.5073910000000 1.0
C      1  0.5950830000000  0.5553600000000  0.5541550000000 1.0
C      1  0.4221560000000  0.5052560000000  0.4892330000000 1.0
C      1  0.4634480000000  0.4837090000000  0.5691000000000 1.0
C      1  0.4801510000000  0.4428130000000  0.3939130000000 1.0
C      1  0.4992430000000  0.3951840000000  0.4497260000000 1.0
C      1  0.3849820000000  0.5447480000000  0.5534970000000 1.0
C      1  0.4548140000000  0.3804720000000  0.5167990000000 1.0
C      1  0.4001010000000  0.5208950000000  0.5444320000000 1.0
C      1  0.5678270000000  0.4827670000000  0.5276860000000 1.0
C      1  0.6357250000000  0.4441840000000  0.5793670000000 1.0
C      1  0.4171980000000  0.4521130000000  0.4293370000000 1.0
C      1  0.4814840000000  0.3851590000000  0.4722930000000 1.0
C      1  0.4835700000000  0.4339530000000  0.5472540000000 1.0
C      1  0.5850230000000  0.4836620000000  0.5513760000000 1.0
C      1  0.4339680000000  0.3920840000000  0.4215690000000 1.0
C      1  0.5194630000000  0.4094490000000  0.4062990000000 1.0
C      1  0.4272290000000  0.5275990000000  0.5316710000000 1.0
C      1  0.4641950000000  0.5006130000000  0.5082380000000 1.0
C      1  0.4834000000000  0.6063870000000  0.5445260000000 1.0
C      1  0.4208790000000  0.5022460000000  0.4251920000000 1.0
C      1  0.5833920000000  0.5081930000000  0.5672900000000 1.0
C      1  0.5844410000000  0.5632690000000  0.4596440000000 1.0
C      1  0.5686350000000  0.4676950000000  0.4402030000000 1.0
C      1  0.5807410000000  0.6267750000000  0.5473420000000 1.0
C      1  0.6275960000000  0.4912560000000  0.5318140000000 1.0
C      1  0.4838150000000  0.4667760000000  0.3824270000000 1.0
C      1  0.5994300000000  0.5277910000000  0.5510360000000 1.0
C      1  0.4661210000000  0.5180330000000  0.4272860000000 1.0
C      1  0.3864390000000  0.5045740000000  0.5214280000000 1.0
C      1  0.3726380000000  0.4579120000000  0.5156510000000 1.0
C      1  0.4914450000000  0.3944210000000  0.5737020000000 1.0
C      1  0.5585780000000  0.4747390000000  0.4138220000000 1.0
C      1  0.4841340000000  0.4943390000000  0.3764660000000 1.0
C      1  0.5161080000000  0.4987290000000  0.5718930000000 1.0
C      1  0.4498150000000  0.4375510000000  0.5110520000000 1.0
C      1  0.4586450000000  0.6022680000000  0.4530590000000 1.0
C      1  0.4926960000000  0.5557440000000  0.5248080000000 1.0
C      1  0.4012300000000  0.5192300000000  0.4333200000000 1.0
C      1  0.5057890000000  0.6130020000000  0.4700970000000 1.0
C      1  0.4382540000000  0.5024550000000  0.4670440000000 1.0
C      1  0.4986220000000  0.3989170000000  0.5196240000000 1.0
C      1  0.5054800000000  0.5333740000000  0.5092680000000 1.0
C      1  0.4635000000000  0.4654500000000  0.4447610000000 1.0
C      1  0.5259940000000  0.5132230000000  0.5103790000000 1.0
C      1  0.5300060000000  0.5724870000000  0.4968150000000 1.0
C      1  0.5861820000000  0.4005060000000  0.4624820000000 1.0
C      1  0.3775010000000  0.4501200000000  0.4649060000000 1.0
C      1  0.4399620000000  0.3976000000000  0.4487050000000 1.0
END
