TITL C-627110-360-417 0.0992331972925668 125000 -314.22961025356 0 0 52 (C1) n - 1
REM
REM in /home/nfs/bkarasulu/CARBON/AIRSS/Generating-Clusters/LCBOP/Only-C1/SD-CG/FIRE-CG
REM
REM
REM
REM
REM
REM ./C.cell (11c1c37f851c82e70ff6c80c92926a4b)
REM AIRSS Version 0.9.1 bugfix July 2018 build 013d7b7c2542+ Fri, 06 Jul 2018 19:26:36 +0100
REM compiler GCC version 9.2.1 20190827 (Red Hat 9.2.1-1)
REM options -cpp -mtune=generic -march=x86-64 -g -O0 -fpre-include=/usr/include/finclude/math-vector-fortran.h
REM seed 1870244186 685046476 294359935 1591312874 1256353855 -190774178 -189026717 1732818330 -885882944 -1868484296 -1845474549 -224039361 -1332195924 1001118574 -823999214 -2014953774 -1520577762 403845325 1931756591 988752854 -488992941 -1038025504 1446718172 1439153087 1437308457 -456438949 555576090 1984394946 -1442934330 1096665617 -262439746 714323799 -1110225271
REM
CELL 1.54180   50.00000   50.00000   50.00000   90.00000   90.00000   90.00000
LATT -1
SFAC C  
C      1  0.4864010000000  0.4786150000000  0.5295570000000 1.0
C      1  0.4945640000000  0.4666890000000  0.4520360000000 1.0
C      1  0.5291770000000  0.4388540000000  0.5307450000000 1.0
C      1  0.4569180000000  0.4957080000000  0.4952670000000 1.0
C      1  0.5278740000000  0.5595820000000  0.4737100000000 1.0
C      1  0.4452200000000  0.4730590000000  0.5106050000000 1.0
C      1  0.5227040000000  0.5363270000000  0.5594020000000 1.0
C      1  0.5061430000000  0.4754020000000  0.5488070000000 1.0
C      1  0.5688270000000  0.5101890000000  0.5081860000000 1.0
C      1  0.5468640000000  0.5519270000000  0.5172030000000 1.0
C      1  0.4585520000000  0.5508200000000  0.5030740000000 1.0
C      1  0.4477710000000  0.3662890000000  0.4877190000000 1.0
C      1  0.4847190000000  0.4344120000000  0.5093010000000 1.0
C      1  0.5056070000000  0.5557950000000  0.4556550000000 1.0
C      1  0.5618140000000  0.4770940000000  0.5013650000000 1.0
C      1  0.5139150000000  0.4362890000000  0.5069960000000 1.0
C      1  0.4814850000000  0.5000980000000  0.5116750000000 1.0
C      1  0.4426280000000  0.5505840000000  0.5262950000000 1.0
C      1  0.5570050000000  0.5092940000000  0.5361110000000 1.0
C      1  0.4344920000000  0.5054310000000  0.5495070000000 1.0
C      1  0.5478310000000  0.5379470000000  0.4729590000000 1.0
C      1  0.4541320000000  0.5148120000000  0.4727100000000 1.0
C      1  0.4718070000000  0.4106040000000  0.5025860000000 1.0
C      1  0.4927870000000  0.5347450000000  0.4398130000000 1.0
C      1  0.5207510000000  0.5940090000000  0.5097590000000 1.0
C      1  0.4450830000000  0.5409500000000  0.4797010000000 1.0
C      1  0.5122600000000  0.5069360000000  0.4779360000000 1.0
C      1  0.4866970000000  0.5449820000000  0.5037060000000 1.0
C      1  0.4751980000000  0.5142090000000  0.4528150000000 1.0
C      1  0.5513260000000  0.4812530000000  0.5358750000000 1.0
C      1  0.4262150000000  0.5548610000000  0.4658980000000 1.0
C      1  0.5626230000000  0.5357720000000  0.4973440000000 1.0
C      1  0.5548580000000  0.4726730000000  0.4534330000000 1.0
C      1  0.5264930000000  0.4453180000000  0.4827490000000 1.0
C      1  0.5444090000000  0.4972340000000  0.4436450000000 1.0
C      1  0.5097930000000  0.5233300000000  0.4191820000000 1.0
C      1  0.5313710000000  0.4639500000000  0.5436950000000 1.0
C      1  0.4295000000000  0.4828250000000  0.5326110000000 1.0
C      1  0.4937770000000  0.4932390000000  0.4599430000000 1.0
C      1  0.4596760000000  0.3882580000000  0.4951510000000 1.0
C      1  0.4774200000000  0.5160580000000  0.5768200000000 1.0
C      1  0.5005150000000  0.5286840000000  0.5721580000000 1.0
C      1  0.4293440000000  0.5315400000000  0.5398770000000 1.0
C      1  0.5366820000000  0.5136270000000  0.4654420000000 1.0
C      1  0.5501160000000  0.4625070000000  0.4802890000000 1.0
C      1  0.5306370000000  0.5701470000000  0.5011440000000 1.0
C      1  0.5430450000000  0.5343610000000  0.5403120000000 1.0
C      1  0.5092830000000  0.4458280000000  0.4602470000000 1.0
C      1  0.4987840000000  0.5190580000000  0.5004710000000 1.0
C      1  0.5311090000000  0.5060070000000  0.4199820000000 1.0
C      1  0.4540930000000  0.5047910000000  0.5698850000000 1.0
C      1  0.4697030000000  0.4570290000000  0.5186450000000 1.0
END
