TITL C-627110-360-1816 2382.38325578672 125000 -889.735129343039 0 0 147 (C1) n - 1
REM
REM in /home/nfs/bkarasulu/CARBON/AIRSS/Generating-Clusters/LCBOP/Only-C1/SD-CG/FIRE-CG
REM
REM
REM
REM
REM
REM ./C.cell (11c1c37f851c82e70ff6c80c92926a4b)
REM AIRSS Version 0.9.1 bugfix July 2018 build 013d7b7c2542+ Fri, 06 Jul 2018 19:26:36 +0100
REM compiler GCC version 9.2.1 20190827 (Red Hat 9.2.1-1)
REM options -cpp -mtune=generic -march=x86-64 -g -O0 -fpre-include=/usr/include/finclude/math-vector-fortran.h
REM seed -654093672 648794722 1447066953 1013458307 -1996190169 -1631829852 4385985 -508016990 -252234487 -268926727 -840471341 -803561583 1045505068 -15718313 -1142945148 1408264473 496029756 -600649249 -858268406 -1064465922 -450357388 -988795219 -1773213373 881289667 -536571905 1176348371 -615007933 1718343727 -254838376 -1089380201 -553039471 -498361827 -1132773109
REM
CELL 1.54180   50.00000   50.00000   50.00000   90.00000   90.00000   90.00000
LATT -1
SFAC C  
C      1  0.5925120000000  0.5269270000000  0.5865170000000 1.0
C      1  0.5131910000000  0.5258320000000  0.3826580000000 1.0
C      1  0.5728830000000  0.5616250000000  0.4628970000000 1.0
C      1  0.5426990000000  0.4112150000000  0.5349870000000 1.0
C      1  0.4812310000000  0.5402330000000  0.5797990000000 1.0
C      1  0.5189270000000  0.5748060000000  0.4199390000000 1.0
C      1  0.5159610000000  0.5073920000000  0.5494760000000 1.0
C      1  0.5329250000000  0.5387540000000  0.6026080000000 1.0
C      1  0.4331640000000  0.4442400000000  0.5540010000000 1.0
C      1  0.5456100000000  0.4240520000000  0.4278040000000 1.0
C      1  0.4274660000000  0.4717950000000  0.5921210000000 1.0
C      1  0.4576210000000  0.5171450000000  0.4911750000000 1.0
C      1  0.5358890000000  0.5010990000000  0.5710470000000 1.0
C      1  0.5646360000000  0.5447620000000  0.5478590000000 1.0
C      1  0.4019460000000  0.5192250000000  0.5187770000000 1.0
C      1  0.5440650000000  0.5642350000000  0.4089800000000 1.0
C      1  0.5852720000000  0.4441900000000  0.4723910000000 1.0
C      1  0.4623760000000  0.5393030000000  0.5098150000000 1.0
C      1  0.4236430000000  0.4889050000000  0.4281960000000 1.0
C      1  0.4734830000000  0.4178480000000  0.5471440000000 1.0
C      1  0.4317430000000  0.3590280000000  0.4924860000000 1.0
C      1  0.6001940000000  0.5612530000000  0.5008910000000 1.0
C      1  0.4551690000000  0.4692980000000  0.5982280000000 1.0
C      1  0.5281740000000  0.4562060000000  0.4581290000000 1.0
C      1  0.4011220000000  0.3175850000000  0.5029350000000 1.0
C      1  0.4634220000000  0.4024530000000  0.4839500000000 1.0
C      1  0.4471270000000  0.3800020000000  0.4875070000000 1.0
C      1  0.5434070000000  0.5620500000000  0.3805340000000 1.0
C      1  0.4792060000000  0.4158000000000  0.4256930000000 1.0
C      1  0.5070070000000  0.4670400000000  0.4111440000000 1.0
C      1  0.4866250000000  0.4590320000000  0.4862050000000 1.0
C      1  0.5257040000000  0.4161940000000  0.5818270000000 1.0
C      1  0.5346920000000  0.4592610000000  0.5237400000000 1.0
C      1  0.5461070000000  0.5157430000000  0.5941020000000 1.0
C      1  0.5766620000000  0.4513380000000  0.5373860000000 1.0
C      1  0.4346790000000  0.5018210000000  0.4031330000000 1.0
C      1  0.4163140000000  0.3381240000000  0.4977380000000 1.0
C      1  0.4794370000000  0.5179920000000  0.4170020000000 1.0
C      1  0.5016900000000  0.4830630000000  0.6020590000000 1.0
C      1  0.5951370000000  0.5224170000000  0.4634540000000 1.0
C      1  0.5073910000000  0.4625920000000  0.5286190000000 1.0
C      1  0.4742430000000  0.4918120000000  0.6013100000000 1.0
C      1  0.5220890000000  0.4081370000000  0.5555450000000 1.0
C      1  0.4296780000000  0.4479600000000  0.4772810000000 1.0
C      1  0.4901830000000  0.5807790000000  0.4238460000000 1.0
C      1  0.4680700000000  0.4348850000000  0.5243380000000 1.0
C      1  0.5496120000000  0.5639320000000  0.5639290000000 1.0
C      1  0.4670140000000  0.4893330000000  0.5397840000000 1.0
C      1  0.4725860000000  0.5029880000000  0.4422820000000 1.0
C      1  0.4757520000000  0.5930380000000  0.4040020000000 1.0
C      1  0.5885280000000  0.5305460000000  0.5589730000000 1.0
C      1  0.5037480000000  0.5679510000000  0.5460150000000 1.0
C      1  0.4335210000000  0.5954740000000  0.5529360000000 1.0
C      1  0.4046260000000  0.5320940000000  0.4925140000000 1.0
C      1  0.5051630000000  0.5865400000000  0.5250470000000 1.0
C      1  0.4648810000000  0.4423620000000  0.5922020000000 1.0
C      1  0.5503440000000  0.5296850000000  0.4947040000000 1.0
C      1  0.4546420000000  0.5787440000000  0.5460700000000 1.0
C      1  0.4270010000000  0.4776340000000  0.4771350000000 1.0
C      1  0.4286520000000  0.5163510000000  0.5632210000000 1.0
C      1  0.4792570000000  0.4753500000000  0.4053820000000 1.0
C      1  0.5073670000000  0.4545440000000  0.4374950000000 1.0
C      1  0.4746780000000  0.4423440000000  0.4671880000000 1.0
C      1  0.5485180000000  0.5900890000000  0.5535520000000 1.0
C      1  0.5495150000000  0.4828160000000  0.5199470000000 1.0
C      1  0.5573820000000  0.5292690000000  0.5225550000000 1.0
C      1  0.5676670000000  0.5024590000000  0.5271070000000 1.0
C      1  0.4988120000000  0.5597220000000  0.4629340000000 1.0
C      1  0.6048770000000  0.5378410000000  0.4867120000000 1.0
C      1  0.4071910000000  0.5079880000000  0.5454940000000 1.0
C      1  0.5547200000000  0.5548620000000  0.4826880000000 1.0
C      1  0.5909770000000  0.5067430000000  0.5428440000000 1.0
C      1  0.4964430000000  0.4856210000000  0.5419650000000 1.0
C      1  0.5654310000000  0.4260580000000  0.4710690000000 1.0
C      1  0.5600510000000  0.6247930000000  0.4938710000000 1.0
C      1  0.4162360000000  0.4957650000000  0.4560080000000 1.0
C      1  0.4493690000000  0.4772400000000  0.5209990000000 1.0
C      1  0.5149760000000  0.5810260000000  0.4721990000000 1.0
C      1  0.4326680000000  0.5663140000000  0.4702630000000 1.0
C      1  0.4360570000000  0.5230980000000  0.5908910000000 1.0
C      1  0.5143610000000  0.4364370000000  0.5972510000000 1.0
C      1  0.5375850000000  0.4790810000000  0.4732410000000 1.0
C      1  0.4480000000000  0.5616950000000  0.5228910000000 1.0
C      1  0.5626030000000  0.6017980000000  0.5100700000000 1.0
C      1  0.5019550000000  0.5609300000000  0.5736480000000 1.0
C      1  0.5398080000000  0.5966990000000  0.5277110000000 1.0
C      1  0.5734530000000  0.5146970000000  0.6013150000000 1.0
C      1  0.5280420000000  0.5125940000000  0.4281930000000 1.0
C      1  0.4128230000000  0.5909730000000  0.5351400000000 1.0
C      1  0.4180510000000  0.5145400000000  0.3854720000000 1.0
C      1  0.5136590000000  0.6294180000000  0.4774940000000 1.0
C      1  0.4932190000000  0.4002850000000  0.4880320000000 1.0
C      1  0.4655090000000  0.5205930000000  0.5973070000000 1.0
C      1  0.4893790000000  0.4487890000000  0.5121720000000 1.0
C      1  0.5246020000000  0.5201100000000  0.4554330000000 1.0
C      1  0.4649530000000  0.5005550000000  0.3976920000000 1.0
C      1  0.4426660000000  0.4918900000000  0.4973810000000 1.0
C      1  0.4866340000000  0.4363770000000  0.4428660000000 1.0
C      1  0.5218090000000  0.4635780000000  0.5937040000000 1.0
C      1  0.4589210000000  0.5796090000000  0.4720680000000 1.0
C      1  0.5286140000000  0.5584810000000  0.5835770000000 1.0
C      1  0.5711000000000  0.4881900000000  0.4386990000000 1.0
C      1  0.5905960000000  0.4703860000000  0.4838770000000 1.0
C      1  0.5071930000000  0.5207550000000  0.4097790000000 1.0
C      1  0.5813500000000  0.5416050000000  0.4443220000000 1.0
C      1  0.5521990000000  0.4369180000000  0.5291340000000 1.0
C      1  0.4210510000000  0.5711000000000  0.5163010000000 1.0
C      1  0.5674990000000  0.4624770000000  0.5637740000000 1.0
C      1  0.4820820000000  0.5937460000000  0.4976300000000 1.0
C      1  0.5009530000000  0.6047700000000  0.4799710000000 1.0
C      1  0.5006990000000  0.5321950000000  0.4647490000000 1.0
C      1  0.5363650000000  0.5741510000000  0.4871890000000 1.0
C      1  0.5153420000000  0.4086950000000  0.4697320000000 1.0
C      1  0.5484240000000  0.4434370000000  0.4086080000000 1.0
C      1  0.5475190000000  0.4915620000000  0.4218570000000 1.0
C      1  0.4965190000000  0.4018810000000  0.5423300000000 1.0
C      1  0.5656410000000  0.5486930000000  0.4210980000000 1.0
C      1  0.5036400000000  0.3932340000000  0.5141070000000 1.0
C      1  0.4721460000000  0.3964930000000  0.4096850000000 1.0
C      1  0.5103600000000  0.5316460000000  0.5339780000000 1.0
C      1  0.4910470000000  0.4861160000000  0.4815110000000 1.0
C      1  0.3997790000000  0.4811340000000  0.5525040000000 1.0
C      1  0.5853520000000  0.5834040000000  0.5081180000000 1.0
C      1  0.4714480000000  0.5323710000000  0.5536760000000 1.0
C      1  0.4773380000000  0.5731550000000  0.4492020000000 1.0
C      1  0.4543920000000  0.5107050000000  0.5525310000000 1.0
C      1  0.5391260000000  0.6368830000000  0.4820210000000 1.0
C      1  0.4405940000000  0.4658780000000  0.4317750000000 1.0
C      1  0.4876040000000  0.4324750000000  0.6053010000000 1.0
C      1  0.4515750000000  0.4284740000000  0.4760160000000 1.0
C      1  0.5397890000000  0.5083140000000  0.4767470000000 1.0
C      1  0.5876490000000  0.4936390000000  0.4629980000000 1.0
C      1  0.5913240000000  0.4640560000000  0.5139090000000 1.0
C      1  0.4135930000000  0.5604970000000  0.4920470000000 1.0
C      1  0.5358960000000  0.4693270000000  0.4066710000000 1.0
C      1  0.5428750000000  0.4728560000000  0.5757330000000 1.0
C      1  0.4162890000000  0.4630380000000  0.5672710000000 1.0
C      1  0.4673270000000  0.4744360000000  0.4330270000000 1.0
C      1  0.4795080000000  0.5117190000000  0.4702610000000 1.0
C      1  0.5282820000000  0.5430790000000  0.3686200000000 1.0
C      1  0.5385320000000  0.4267950000000  0.4583250000000 1.0
C      1  0.5330430000000  0.3932530000000  0.5147710000000 1.0
C      1  0.4116090000000  0.5225220000000  0.4648090000000 1.0
C      1  0.4260710000000  0.5446160000000  0.4519310000000 1.0
C      1  0.4442550000000  0.4503410000000  0.5279070000000 1.0
C      1  0.4838050000000  0.5340470000000  0.5276790000000 1.0
C      1  0.4555390000000  0.4297390000000  0.5679110000000 1.0
END
