TITL C-627111-6168-519 -4605.08302389963 125000 -417.753555708106 0 0 69 (C1) n - 1
REM
REM in /home/nfs/bkarasulu/CARBON/AIRSS/Generating-Clusters/LCBOP/Only-C1/SD-CG/FIRE-CG
REM
REM
REM
REM
REM
REM ./C.cell (11c1c37f851c82e70ff6c80c92926a4b)
REM AIRSS Version 0.9.1 bugfix July 2018 build 013d7b7c2542+ Fri, 06 Jul 2018 19:26:36 +0100
REM compiler GCC version 9.2.1 20190827 (Red Hat 9.2.1-1)
REM options -cpp -mtune=generic -march=x86-64 -g -O0 -fpre-include=/usr/include/finclude/math-vector-fortran.h
REM seed -1906210268 -1598470658 1000641055 -1272208704 -1386518355 -1682473066 412970203 672336927 108162256 524572046 1992119019 -377863847 534232951 1737952279 1679502671 1408076298 2144239649 -781434037 -969824903 1456100527 -1969546663 547349816 1912869815 1849646016 -1907073743 1210600568 1246239052 233125879 -1785971307 1808308558 -1538306604 564250723 2141937492
REM
CELL 1.54180   50.00000   50.00000   50.00000   90.00000   90.00000   90.00000
LATT -1
SFAC C  
C      1  0.5875830000000  0.5442710000000  0.5368420000000 1.0
C      1  0.5546410000000  0.5573930000000  0.5060460000000 1.0
C      1  0.5359080000000  0.4397770000000  0.4946240000000 1.0
C      1  0.4339760000000  0.4581630000000  0.5128860000000 1.0
C      1  0.4628140000000  0.5302700000000  0.5443060000000 1.0
C      1  0.5363910000000  0.3514520000000  0.4528790000000 1.0
C      1  0.4666380000000  0.4228770000000  0.4783150000000 1.0
C      1  0.4781750000000  0.5682360000000  0.5040690000000 1.0
C      1  0.5035100000000  0.5253780000000  0.4787580000000 1.0
C      1  0.4870100000000  0.4228450000000  0.4979030000000 1.0
C      1  0.4974250000000  0.4739380000000  0.4999100000000 1.0
C      1  0.5954220000000  0.4981060000000  0.5204900000000 1.0
C      1  0.5714350000000  0.5343880000000  0.4944670000000 1.0
C      1  0.4516310000000  0.4586670000000  0.5533010000000 1.0
C      1  0.4793260000000  0.5488760000000  0.5254740000000 1.0
C      1  0.4945740000000  0.4835500000000  0.4237190000000 1.0
C      1  0.5066590000000  0.5369670000000  0.5258630000000 1.0
C      1  0.5224040000000  0.3959760000000  0.4770590000000 1.0
C      1  0.4591920000000  0.5600180000000  0.4588530000000 1.0
C      1  0.4552430000000  0.5650330000000  0.4868040000000 1.0
C      1  0.4774940000000  0.5731100000000  0.4136920000000 1.0
C      1  0.4249780000000  0.4953810000000  0.4505180000000 1.0
C      1  0.4605180000000  0.5316490000000  0.4541050000000 1.0
C      1  0.4767090000000  0.5184510000000  0.4734330000000 1.0
C      1  0.5181190000000  0.5243980000000  0.5031900000000 1.0
C      1  0.5099520000000  0.5277820000000  0.5531240000000 1.0
C      1  0.4403950000000  0.4313700000000  0.4725720000000 1.0
C      1  0.5198400000000  0.4800490000000  0.5175360000000 1.0
C      1  0.4875350000000  0.5536840000000  0.3983390000000 1.0
C      1  0.4825280000000  0.4891060000000  0.5422180000000 1.0
C      1  0.4398340000000  0.5133430000000  0.5342140000000 1.0
C      1  0.4398130000000  0.5163590000000  0.4428840000000 1.0
C      1  0.5238760000000  0.4380640000000  0.5416140000000 1.0
C      1  0.5872190000000  0.4732490000000  0.5260920000000 1.0
C      1  0.5496520000000  0.6089230000000  0.5864410000000 1.0
C      1  0.5696980000000  0.4530960000000  0.5278530000000 1.0
C      1  0.5511550000000  0.6310420000000  0.6001580000000 1.0
C      1  0.4661160000000  0.5767710000000  0.4376730000000 1.0
C      1  0.5447970000000  0.4412870000000  0.5222220000000 1.0
C      1  0.4932530000000  0.5277490000000  0.3960320000000 1.0
C      1  0.4244010000000  0.4169430000000  0.4557020000000 1.0
C      1  0.5149200000000  0.4197500000000  0.4898980000000 1.0
C      1  0.4503740000000  0.4405360000000  0.5289720000000 1.0
C      1  0.4305100000000  0.4553090000000  0.4851760000000 1.0
C      1  0.5483080000000  0.5863670000000  0.5726090000000 1.0
C      1  0.4959030000000  0.4416220000000  0.5440440000000 1.0
C      1  0.4213230000000  0.4756700000000  0.4681580000000 1.0
C      1  0.4396750000000  0.5208450000000  0.5061370000000 1.0
C      1  0.4966550000000  0.4721140000000  0.4476500000000 1.0
C      1  0.5494770000000  0.4909890000000  0.4835210000000 1.0
C      1  0.5631330000000  0.5592820000000  0.5346840000000 1.0
C      1  0.4948370000000  0.5029010000000  0.4054580000000 1.0
C      1  0.5345220000000  0.5012610000000  0.5068120000000 1.0
C      1  0.5901480000000  0.5252290000000  0.5157020000000 1.0
C      1  0.4848000000000  0.5139050000000  0.5562980000000 1.0
C      1  0.4336900000000  0.4852670000000  0.5382440000000 1.0
C      1  0.4768850000000  0.4886320000000  0.5126370000000 1.0
C      1  0.5070640000000  0.4690460000000  0.4731700000000 1.0
C      1  0.4775020000000  0.4300620000000  0.5240410000000 1.0
C      1  0.5473830000000  0.5626050000000  0.5580850000000 1.0
C      1  0.5362550000000  0.4646820000000  0.4775630000000 1.0
C      1  0.5294200000000  0.3735350000000  0.4648520000000 1.0
C      1  0.5304460000000  0.5412720000000  0.5663200000000 1.0
C      1  0.4801540000000  0.4638190000000  0.5552790000000 1.0
C      1  0.5314820000000  0.5719050000000  0.4970930000000 1.0
C      1  0.5046460000000  0.5776400000000  0.4965670000000 1.0
C      1  0.4350130000000  0.5476490000000  0.4979760000000 1.0
C      1  0.4625430000000  0.5065300000000  0.4952990000000 1.0
C      1  0.5650940000000  0.5135900000000  0.4755720000000 1.0
END
