TITL C-627109-622-1048 6.48308391044663e-06 125000 -865.929363977626 0 0 144 (C1) n - 1
REM
REM in /home/nfs/bkarasulu/CARBON/AIRSS/Generating-Clusters/LCBOP/Only-C1/SD-CG/FIRE-CG
REM
REM
REM
REM
REM
REM ./C.cell (11c1c37f851c82e70ff6c80c92926a4b)
REM AIRSS Version 0.9.1 bugfix July 2018 build 013d7b7c2542+ Fri, 06 Jul 2018 19:26:36 +0100
REM compiler GCC version 9.2.1 20190827 (Red Hat 9.2.1-1)
REM options -cpp -mtune=generic -march=x86-64 -g -O0 -fpre-include=/usr/include/finclude/math-vector-fortran.h
REM seed 55654449 -267040307 -942670218 1535600039 -375497633 -2029842128 1053950232 -1521163641 492391045 379313366 -1992146122 -965569889 -395158668 -510247130 -869843347 1905699535 -823452836 2094904984 629286748 1688781831 -565511778 7745995 1628216457 -1400351662 1602273583 -1448869214 516173607 -354253990 359081257 683810370 -1038141489 1085765715 1669285810
REM
CELL 1.54180   50.00000   50.00000   50.00000   90.00000   90.00000   90.00000
LATT -1
SFAC C  
C      1  0.4341840000000  0.3956630000000  0.5181980000000 1.0
C      1  0.6037180000000  0.5603380000000  0.5794950000000 1.0
C      1  0.4918400000000  0.3716440000000  0.5145160000000 1.0
C      1  0.6166330000000  0.5331810000000  0.5107690000000 1.0
C      1  0.4118080000000  0.4385060000000  0.5372080000000 1.0
C      1  0.5117910000000  0.6237870000000  0.4776960000000 1.0
C      1  0.5201910000000  0.5732400000000  0.3944100000000 1.0
C      1  0.5594880000000  0.4293870000000  0.5054670000000 1.0
C      1  0.4759530000000  0.4100630000000  0.4560170000000 1.0
C      1  0.5046350000000  0.5907010000000  0.5508150000000 1.0
C      1  0.3984240000000  0.4542530000000  0.5864630000000 1.0
C      1  0.5726220000000  0.4749790000000  0.5025170000000 1.0
C      1  0.5810760000000  0.5911650000000  0.4691940000000 1.0
C      1  0.5045370000000  0.5622360000000  0.5130300000000 1.0
C      1  0.5014710000000  0.4136780000000  0.5649240000000 1.0
C      1  0.4858930000000  0.4894380000000  0.4717550000000 1.0
C      1  0.4219020000000  0.5507740000000  0.5208150000000 1.0
C      1  0.5062130000000  0.5475900000000  0.4891710000000 1.0
C      1  0.5895010000000  0.5680950000000  0.5369420000000 1.0
C      1  0.5316760000000  0.5820830000000  0.4647810000000 1.0
C      1  0.4506380000000  0.6091980000000  0.5125680000000 1.0
C      1  0.5225170000000  0.4283810000000  0.5520090000000 1.0
C      1  0.4474860000000  0.3733290000000  0.5307410000000 1.0
C      1  0.5752410000000  0.5538270000000  0.4177460000000 1.0
C      1  0.6246640000000  0.4839120000000  0.5942740000000 1.0
C      1  0.5090860000000  0.5200070000000  0.4953200000000 1.0
C      1  0.5112540000000  0.4335530000000  0.4354910000000 1.0
C      1  0.4167070000000  0.5020690000000  0.4398660000000 1.0
C      1  0.4931190000000  0.5760490000000  0.4029150000000 1.0
C      1  0.4976120000000  0.5528630000000  0.5805020000000 1.0
C      1  0.4326010000000  0.4563210000000  0.4202270000000 1.0
C      1  0.4673790000000  0.4680870000000  0.5545900000000 1.0
C      1  0.4779820000000  0.6046800000000  0.5076100000000 1.0
C      1  0.5082100000000  0.4769860000000  0.4625480000000 1.0
C      1  0.4258680000000  0.6047580000000  0.5032540000000 1.0
C      1  0.5384180000000  0.4654300000000  0.4146350000000 1.0
C      1  0.5762270000000  0.5298170000000  0.4288830000000 1.0
C      1  0.4987330000000  0.4156340000000  0.5935860000000 1.0
C      1  0.5551680000000  0.4970480000000  0.4935730000000 1.0
C      1  0.4784230000000  0.4023080000000  0.5516800000000 1.0
C      1  0.5097310000000  0.4559450000000  0.4172880000000 1.0
C      1  0.5840030000000  0.5762480000000  0.5654200000000 1.0
C      1  0.4618580000000  0.5194470000000  0.4446070000000 1.0
C      1  0.6099580000000  0.5471240000000  0.5344510000000 1.0
C      1  0.4390550000000  0.5587160000000  0.5404770000000 1.0
C      1  0.5162300000000  0.4263550000000  0.4838250000000 1.0
C      1  0.5042130000000  0.4390590000000  0.5068360000000 1.0
C      1  0.5682950000000  0.5733020000000  0.5193520000000 1.0
C      1  0.6066950000000  0.4732680000000  0.5786700000000 1.0
C      1  0.4526590000000  0.4813920000000  0.6303970000000 1.0
C      1  0.5018900000000  0.4217810000000  0.4592730000000 1.0
C      1  0.4625880000000  0.4192150000000  0.4328390000000 1.0
C      1  0.4514750000000  0.4226870000000  0.5851930000000 1.0
C      1  0.5710890000000  0.5075280000000  0.4442180000000 1.0
C      1  0.4676170000000  0.4216470000000  0.6310090000000 1.0
C      1  0.5765200000000  0.5937480000000  0.4428270000000 1.0
C      1  0.4658870000000  0.3933330000000  0.4763900000000 1.0
C      1  0.5436320000000  0.5704570000000  0.5327900000000 1.0
C      1  0.4317550000000  0.4174570000000  0.5371710000000 1.0
C      1  0.4048720000000  0.4554860000000  0.5149700000000 1.0
C      1  0.6181810000000  0.5439200000000  0.5622140000000 1.0
C      1  0.5885010000000  0.4614270000000  0.5634850000000 1.0
C      1  0.5497900000000  0.4309990000000  0.5595940000000 1.0
C      1  0.4597220000000  0.5041780000000  0.5099400000000 1.0
C      1  0.5589430000000  0.5898790000000  0.5706890000000 1.0
C      1  0.4022490000000  0.4846390000000  0.5151770000000 1.0
C      1  0.4507530000000  0.5377720000000  0.4628610000000 1.0
C      1  0.5942080000000  0.4693890000000  0.4847900000000 1.0
C      1  0.4278110000000  0.4743930000000  0.6241640000000 1.0
C      1  0.4043440000000  0.5132060000000  0.4666120000000 1.0
C      1  0.6266690000000  0.5271990000000  0.4846010000000 1.0
C      1  0.4865530000000  0.6120700000000  0.4815190000000 1.0
C      1  0.3872680000000  0.5561160000000  0.4525160000000 1.0
C      1  0.4091270000000  0.5861180000000  0.4933090000000 1.0
C      1  0.5686020000000  0.4356470000000  0.4385510000000 1.0
C      1  0.5658320000000  0.5801700000000  0.4205200000000 1.0
C      1  0.4058950000000  0.4452300000000  0.4886650000000 1.0
C      1  0.4084650000000  0.4649860000000  0.6085870000000 1.0
C      1  0.5220140000000  0.5265280000000  0.5481780000000 1.0
C      1  0.5254820000000  0.5474630000000  0.3838160000000 1.0
C      1  0.4178740000000  0.5000020000000  0.5337570000000 1.0
C      1  0.4724560000000  0.4206420000000  0.6041510000000 1.0
C      1  0.5672170000000  0.4525430000000  0.5197590000000 1.0
C      1  0.4954810000000  0.5878820000000  0.5225710000000 1.0
C      1  0.4591570000000  0.5688750000000  0.5556220000000 1.0
C      1  0.4192960000000  0.4551490000000  0.4659800000000 1.0
C      1  0.5586500000000  0.4208500000000  0.4585340000000 1.0
C      1  0.4596750000000  0.4937180000000  0.5573620000000 1.0
C      1  0.4416380000000  0.3982680000000  0.4907980000000 1.0
C      1  0.4401320000000  0.4905990000000  0.4941190000000 1.0
C      1  0.5272000000000  0.5018110000000  0.5345830000000 1.0
C      1  0.4088790000000  0.5575490000000  0.4960050000000 1.0
C      1  0.4870000000000  0.5739970000000  0.4501640000000 1.0
C      1  0.5068050000000  0.5256550000000  0.4218990000000 1.0
C      1  0.5311900000000  0.4871220000000  0.4553430000000 1.0
C      1  0.5446140000000  0.4225990000000  0.4828590000000 1.0
C      1  0.5322940000000  0.5072500000000  0.5071510000000 1.0
C      1  0.6448570000000  0.5450030000000  0.4740410000000 1.0
C      1  0.4438890000000  0.4723170000000  0.4710200000000 1.0
C      1  0.4350810000000  0.4859210000000  0.4193660000000 1.0
C      1  0.4766240000000  0.4455660000000  0.5069570000000 1.0
C      1  0.4622610000000  0.4511490000000  0.4837920000000 1.0
C      1  0.4672240000000  0.4530750000000  0.5323470000000 1.0
C      1  0.5212460000000  0.5384310000000  0.4431360000000 1.0
C      1  0.4526110000000  0.4154190000000  0.5579660000000 1.0
C      1  0.4752050000000  0.5984630000000  0.4591000000000 1.0
C      1  0.5117320000000  0.5291470000000  0.5745500000000 1.0
C      1  0.4588520000000  0.4431070000000  0.4181360000000 1.0
C      1  0.6039150000000  0.4818130000000  0.4614000000000 1.0
C      1  0.3995570000000  0.4443660000000  0.5618440000000 1.0
C      1  0.4783120000000  0.4868110000000  0.6261820000000 1.0
C      1  0.5842630000000  0.4822000000000  0.4389560000000 1.0
C      1  0.4806450000000  0.4631570000000  0.4114180000000 1.0
C      1  0.5120100000000  0.5087970000000  0.5936180000000 1.0
C      1  0.5180640000000  0.5000750000000  0.3808890000000 1.0
C      1  0.5176430000000  0.5229430000000  0.3956310000000 1.0
C      1  0.5324030000000  0.6085730000000  0.4695720000000 1.0
C      1  0.5423580000000  0.5866910000000  0.4059600000000 1.0
C      1  0.4539390000000  0.5546540000000  0.4823820000000 1.0
C      1  0.4753280000000  0.3784060000000  0.5363290000000 1.0
C      1  0.4538400000000  0.6093720000000  0.4458730000000 1.0
C      1  0.4799280000000  0.5627010000000  0.4244840000000 1.0
C      1  0.5692030000000  0.4486950000000  0.5480620000000 1.0
C      1  0.5529700000000  0.5012450000000  0.4651190000000 1.0
C      1  0.4996460000000  0.4948630000000  0.6125660000000 1.0
C      1  0.4462570000000  0.5056680000000  0.5357850000000 1.0
C      1  0.4145970000000  0.4470850000000  0.4395850000000 1.0
C      1  0.3960610000000  0.4970120000000  0.4894310000000 1.0
C      1  0.5349810000000  0.5889510000000  0.5541440000000 1.0
C      1  0.5240080000000  0.5501410000000  0.5313740000000 1.0
C      1  0.5201940000000  0.4749080000000  0.5390930000000 1.0
C      1  0.5118500000000  0.5599150000000  0.4625240000000 1.0
C      1  0.4856840000000  0.5738280000000  0.5659140000000 1.0
C      1  0.4846840000000  0.3758850000000  0.4887790000000 1.0
C      1  0.4007710000000  0.5419800000000  0.4722110000000 1.0
C      1  0.4628910000000  0.4917550000000  0.4551710000000 1.0
C      1  0.5745110000000  0.5829340000000  0.4938160000000 1.0
C      1  0.5202600000000  0.4121350000000  0.6101220000000 1.0
C      1  0.4635220000000  0.4878070000000  0.4082240000000 1.0
C      1  0.5655010000000  0.4617750000000  0.4275230000000 1.0
C      1  0.4788190000000  0.5329010000000  0.4252700000000 1.0
C      1  0.6196480000000  0.5048570000000  0.4681660000000 1.0
C      1  0.5162430000000  0.4475430000000  0.5316190000000 1.0
C      1  0.4850340000000  0.5048700000000  0.4959050000000 1.0
END
