TITL C-627109-622-170 3144.61651108937 125000 -807.457768558334 0 0 132 (C1) n - 1
REM
REM in /home/nfs/bkarasulu/CARBON/AIRSS/Generating-Clusters/LCBOP/Only-C1/SD-CG/FIRE-CG
REM
REM
REM
REM
REM
REM ./C.cell (11c1c37f851c82e70ff6c80c92926a4b)
REM AIRSS Version 0.9.1 bugfix July 2018 build 013d7b7c2542+ Fri, 06 Jul 2018 19:26:36 +0100
REM compiler GCC version 9.2.1 20190827 (Red Hat 9.2.1-1)
REM options -cpp -mtune=generic -march=x86-64 -g -O0 -fpre-include=/usr/include/finclude/math-vector-fortran.h
REM seed 141191410 569709239 -1839286861 -2138965630 1030524389 -105335751 1589243022 421675812 -1474698741 656731154 1026731081 1148535915 519705979 1601611432 188786918 2113923891 -1057087500 1799320991 -279195312 126682199 -152050879 554388852 -223574839 995016878 1083275767 -455295974 1737722827 -37759174 -1211795253 253554030 -822430078 1159441234 1659572087
REM
CELL 1.54180   50.00000   50.00000   50.00000   90.00000   90.00000   90.00000
LATT -1
SFAC C  
C      1  0.4972300000000  0.5467360000000  0.4490700000000 1.0
C      1  0.3462750000000  0.3717630000000  0.4791310000000 1.0
C      1  0.4718980000000  0.5743940000000  0.5439410000000 1.0
C      1  0.5328700000000  0.5592640000000  0.5601760000000 1.0
C      1  0.5119370000000  0.4412890000000  0.3556090000000 1.0
C      1  0.4359530000000  0.4943620000000  0.3973420000000 1.0
C      1  0.4673880000000  0.5169340000000  0.6075840000000 1.0
C      1  0.3981190000000  0.4450950000000  0.4401370000000 1.0
C      1  0.6062520000000  0.4450850000000  0.5223100000000 1.0
C      1  0.5293020000000  0.5358390000000  0.3922460000000 1.0
C      1  0.4082110000000  0.4250450000000  0.5425880000000 1.0
C      1  0.5377180000000  0.4476370000000  0.5962690000000 1.0
C      1  0.4782030000000  0.5637810000000  0.4578180000000 1.0
C      1  0.4574360000000  0.5555310000000  0.5004320000000 1.0
C      1  0.5725780000000  0.5803190000000  0.5437900000000 1.0
C      1  0.4578380000000  0.5774210000000  0.5179340000000 1.0
C      1  0.5030000000000  0.4261730000000  0.5695720000000 1.0
C      1  0.4744370000000  0.5443800000000  0.6065990000000 1.0
C      1  0.4959790000000  0.4956940000000  0.5090830000000 1.0
C      1  0.4196180000000  0.5083920000000  0.5512370000000 1.0
C      1  0.5818900000000  0.6060840000000  0.4371930000000 1.0
C      1  0.4661800000000  0.5311540000000  0.5116690000000 1.0
C      1  0.6106990000000  0.5512660000000  0.5234690000000 1.0
C      1  0.5764180000000  0.4911660000000  0.4442350000000 1.0
C      1  0.4332590000000  0.6150270000000  0.4948450000000 1.0
C      1  0.4906730000000  0.4600170000000  0.6072670000000 1.0
C      1  0.4652840000000  0.4551530000000  0.5161970000000 1.0
C      1  0.5533830000000  0.4950710000000  0.4610980000000 1.0
C      1  0.4223620000000  0.5274060000000  0.5717650000000 1.0
C      1  0.5069140000000  0.5548130000000  0.5715300000000 1.0
C      1  0.4293790000000  0.4206660000000  0.4679430000000 1.0
C      1  0.5751400000000  0.5284410000000  0.4142110000000 1.0
C      1  0.5139180000000  0.4116490000000  0.4982950000000 1.0
C      1  0.4816890000000  0.4002830000000  0.5368930000000 1.0
C      1  0.5200090000000  0.4709990000000  0.5496190000000 1.0
C      1  0.4695270000000  0.6004350000000  0.5561850000000 1.0
C      1  0.4738210000000  0.5234510000000  0.3960370000000 1.0
C      1  0.4692680000000  0.4304140000000  0.5028450000000 1.0
C      1  0.4277520000000  0.4809320000000  0.5506970000000 1.0
C      1  0.5955180000000  0.5689890000000  0.5362490000000 1.0
C      1  0.4218060000000  0.4686340000000  0.5248050000000 1.0
C      1  0.5701360000000  0.5896050000000  0.4557090000000 1.0
C      1  0.5207630000000  0.4241570000000  0.5915530000000 1.0
C      1  0.4825180000000  0.4797150000000  0.3791100000000 1.0
C      1  0.5206500000000  0.5276700000000  0.6142150000000 1.0
C      1  0.5667450000000  0.4296470000000  0.5551460000000 1.0
C      1  0.5206360000000  0.4992210000000  0.6066350000000 1.0
C      1  0.4941230000000  0.5037100000000  0.3895240000000 1.0
C      1  0.5200430000000  0.4221740000000  0.4447480000000 1.0
C      1  0.5370630000000  0.4217010000000  0.5122160000000 1.0
C      1  0.4312180000000  0.5492640000000  0.5846150000000 1.0
C      1  0.5639640000000  0.5627050000000  0.4488990000000 1.0
C      1  0.5219690000000  0.5085160000000  0.3951980000000 1.0
C      1  0.4092910000000  0.5184970000000  0.5263230000000 1.0
C      1  0.5330470000000  0.5898240000000  0.5190880000000 1.0
C      1  0.5494970000000  0.5367340000000  0.5629770000000 1.0
C      1  0.5644220000000  0.5997980000000  0.4819460000000 1.0
C      1  0.5462360000000  0.5100530000000  0.5574720000000 1.0
C      1  0.5843000000000  0.6127110000000  0.4957810000000 1.0
C      1  0.4283700000000  0.4201400000000  0.5597520000000 1.0
C      1  0.4126760000000  0.4831080000000  0.4076630000000 1.0
C      1  0.4554320000000  0.6176840000000  0.5398280000000 1.0
C      1  0.5680620000000  0.5011260000000  0.4179910000000 1.0
C      1  0.4562710000000  0.4626470000000  0.5641240000000 1.0
C      1  0.6183730000000  0.5304610000000  0.5087980000000 1.0
C      1  0.4547490000000  0.5565330000000  0.4718410000000 1.0
C      1  0.4467360000000  0.5223720000000  0.4366610000000 1.0
C      1  0.5153600000000  0.4118740000000  0.4694390000000 1.0
C      1  0.5604170000000  0.4489960000000  0.5768150000000 1.0
C      1  0.5174330000000  0.6072970000000  0.4752970000000 1.0
C      1  0.5920950000000  0.4337890000000  0.5422080000000 1.0
C      1  0.4938780000000  0.5202250000000  0.4453200000000 1.0
C      1  0.5026560000000  0.5472920000000  0.5998090000000 1.0
C      1  0.4859060000000  0.4649360000000  0.4612330000000 1.0
C      1  0.5314870000000  0.4792580000000  0.4533460000000 1.0
C      1  0.5257930000000  0.4414860000000  0.4263280000000 1.0
C      1  0.4538400000000  0.4314290000000  0.5643660000000 1.0
C      1  0.3647740000000  0.3884580000000  0.4714680000000 1.0
C      1  0.4773940000000  0.4988580000000  0.5888130000000 1.0
C      1  0.4851130000000  0.5507380000000  0.5526650000000 1.0
C      1  0.4533850000000  0.4890900000000  0.4860790000000 1.0
C      1  0.5121050000000  0.4459770000000  0.5517260000000 1.0
C      1  0.5619360000000  0.4833120000000  0.5228680000000 1.0
C      1  0.4853990000000  0.4964410000000  0.5367230000000 1.0
C      1  0.4359610000000  0.5385230000000  0.4583870000000 1.0
C      1  0.4642460000000  0.4828520000000  0.4603060000000 1.0
C      1  0.4513200000000  0.4226120000000  0.4827160000000 1.0
C      1  0.5253570000000  0.5824220000000  0.4085510000000 1.0
C      1  0.5412400000000  0.4906180000000  0.4087420000000 1.0
C      1  0.5165290000000  0.4797200000000  0.4979300000000 1.0
C      1  0.4144750000000  0.5301880000000  0.4750220000000 1.0
C      1  0.5621140000000  0.5525170000000  0.4220750000000 1.0
C      1  0.4775790000000  0.5262790000000  0.5388570000000 1.0
C      1  0.5477110000000  0.4165510000000  0.5381560000000 1.0
C      1  0.5661430000000  0.4919040000000  0.5495250000000 1.0
C      1  0.6114300000000  0.4831040000000  0.4838740000000 1.0
C      1  0.5106820000000  0.6094710000000  0.4495460000000 1.0
C      1  0.5497040000000  0.4435320000000  0.4986470000000 1.0
C      1  0.5112780000000  0.4721750000000  0.4709590000000 1.0
C      1  0.4698460000000  0.4714670000000  0.5895620000000 1.0
C      1  0.4068880000000  0.5243360000000  0.5002010000000 1.0
C      1  0.4004320000000  0.4654070000000  0.4232270000000 1.0
C      1  0.5214310000000  0.4968130000000  0.5601050000000 1.0
C      1  0.5377780000000  0.5989350000000  0.4927400000000 1.0
C      1  0.4477380000000  0.5185390000000  0.4078960000000 1.0
C      1  0.5145000000000  0.6007290000000  0.4246220000000 1.0
C      1  0.5729700000000  0.4739710000000  0.5705270000000 1.0
C      1  0.6191990000000  0.5078280000000  0.4948820000000 1.0
C      1  0.4971730000000  0.4597020000000  0.3666590000000 1.0
C      1  0.4692340000000  0.5062790000000  0.4454410000000 1.0
C      1  0.4473820000000  0.6044730000000  0.5154070000000 1.0
C      1  0.5315310000000  0.4694170000000  0.4264800000000 1.0
C      1  0.4728240000000  0.5082240000000  0.4961520000000 1.0
C      1  0.4738550000000  0.4695410000000  0.5403370000000 1.0
C      1  0.5520940000000  0.5192750000000  0.4749610000000 1.0
C      1  0.4521380000000  0.5596710000000  0.5983910000000 1.0
C      1  0.5201310000000  0.4689400000000  0.6091510000000 1.0
C      1  0.5425930000000  0.4700820000000  0.5069550000000 1.0
C      1  0.4049170000000  0.4460640000000  0.5259420000000 1.0
C      1  0.5442170000000  0.5789240000000  0.5426130000000 1.0
C      1  0.4782120000000  0.4154020000000  0.5609730000000 1.0
C      1  0.4885720000000  0.4115840000000  0.5117380000000 1.0
C      1  0.5672810000000  0.4382900000000  0.4783660000000 1.0
C      1  0.4430810000000  0.4709140000000  0.5052990000000 1.0
C      1  0.4542700000000  0.4784760000000  0.3823240000000 1.0
C      1  0.6118150000000  0.4606030000000  0.5010970000000 1.0
C      1  0.5575360000000  0.5447830000000  0.4695660000000 1.0
C      1  0.5049440000000  0.5016040000000  0.5819260000000 1.0
C      1  0.3836160000000  0.4054550000000  0.4638550000000 1.0
C      1  0.5996790000000  0.4833510000000  0.4579460000000 1.0
C      1  0.5392570000000  0.5583590000000  0.4059060000000 1.0
C      1  0.4037090000000  0.4236810000000  0.4572300000000 1.0
END
