TITL C-627106-156-1622 -1.95759832563174e-06 125000 -1003.04562673514 0 0 163 (C1) n - 1
REM
REM in /home/nfs/bkarasulu/CARBON/AIRSS/Generating-Clusters/LCBOP/Only-C1/SD-CG/FIRE-CG
REM
REM
REM
REM
REM
REM ./C.cell (11c1c37f851c82e70ff6c80c92926a4b)
REM AIRSS Version 0.9.1 bugfix July 2018 build 013d7b7c2542+ Fri, 06 Jul 2018 19:26:36 +0100
REM compiler GCC version 9.2.1 20190827 (Red Hat 9.2.1-1)
REM options -cpp -mtune=generic -march=x86-64 -g -O0 -fpre-include=/usr/include/finclude/math-vector-fortran.h
REM seed 1774557687 -307771471 1709798934 -961375562 128428109 53781126 51965305 179291763 10828829 -864005609 1894874028 -1788719358 1622564037 -371009897 -811649788 1788544688 726758935 1921922833 429969603 54396630 -1070041898 -1968433775 1038863460 -1954275378 -458710893 584083545 464419653 -432755188 299883875 1351944982 -1322583329 -688464615 -1089077492
REM
CELL 1.54180   50.00000   50.00000   50.00000   90.00000   90.00000   90.00000
LATT -1
SFAC C  
C      1  0.4366690000000  0.4247610000000  0.5154240000000 1.0
C      1  0.5479300000000  0.4990950000000  0.4103570000000 1.0
C      1  0.5911340000000  0.5641390000000  0.5258860000000 1.0
C      1  0.5455650000000  0.4538130000000  0.5914410000000 1.0
C      1  0.5598390000000  0.5145480000000  0.5438700000000 1.0
C      1  0.5821870000000  0.5633930000000  0.4586630000000 1.0
C      1  0.5666070000000  0.5796190000000  0.5682120000000 1.0
C      1  0.5008250000000  0.5396560000000  0.4834400000000 1.0
C      1  0.4423240000000  0.5815610000000  0.4220640000000 1.0
C      1  0.5184300000000  0.6112680000000  0.4886870000000 1.0
C      1  0.4013440000000  0.5828130000000  0.4550230000000 1.0
C      1  0.5228430000000  0.4075050000000  0.5384550000000 1.0
C      1  0.6065280000000  0.3984070000000  0.5275330000000 1.0
C      1  0.4506630000000  0.5540620000000  0.4157960000000 1.0
C      1  0.6011320000000  0.4957900000000  0.5579520000000 1.0
C      1  0.4489710000000  0.5334840000000  0.5474780000000 1.0
C      1  0.5220400000000  0.3863400000000  0.4306780000000 1.0
C      1  0.5367920000000  0.5656280000000  0.4986730000000 1.0
C      1  0.4665720000000  0.5965820000000  0.4240940000000 1.0
C      1  0.5115890000000  0.5877830000000  0.4430950000000 1.0
C      1  0.4342040000000  0.5786800000000  0.5556970000000 1.0
C      1  0.4554900000000  0.5827370000000  0.5756020000000 1.0
C      1  0.5002390000000  0.4189720000000  0.4834920000000 1.0
C      1  0.4475190000000  0.4756930000000  0.4589270000000 1.0
C      1  0.5175420000000  0.4526170000000  0.5815010000000 1.0
C      1  0.5548450000000  0.5235270000000  0.5171020000000 1.0
C      1  0.5903930000000  0.5038810000000  0.4398160000000 1.0
C      1  0.5456710000000  0.5149840000000  0.4685880000000 1.0
C      1  0.5396130000000  0.3860280000000  0.4535950000000 1.0
C      1  0.5206540000000  0.4445060000000  0.4388030000000 1.0
C      1  0.3993750000000  0.5313360000000  0.5057810000000 1.0
C      1  0.5463030000000  0.5867350000000  0.5867770000000 1.0
C      1  0.4483140000000  0.3750240000000  0.4128220000000 1.0
C      1  0.5720760000000  0.4525340000000  0.5766560000000 1.0
C      1  0.4775140000000  0.5352420000000  0.5465090000000 1.0
C      1  0.5227730000000  0.4607780000000  0.3926380000000 1.0
C      1  0.4676500000000  0.6081150000000  0.5650660000000 1.0
C      1  0.4103960000000  0.4393140000000  0.5546420000000 1.0
C      1  0.5531010000000  0.4442290000000  0.5343070000000 1.0
C      1  0.5269620000000  0.4818010000000  0.5437280000000 1.0
C      1  0.4978400000000  0.4027500000000  0.5505500000000 1.0
C      1  0.5496450000000  0.4102280000000  0.4672130000000 1.0
C      1  0.5098770000000  0.4623430000000  0.5554670000000 1.0
C      1  0.5226380000000  0.4409000000000  0.4109100000000 1.0
C      1  0.5479970000000  0.4566770000000  0.6190170000000 1.0
C      1  0.4823840000000  0.4721110000000  0.5162630000000 1.0
C      1  0.5153580000000  0.6039210000000  0.5348660000000 1.0
C      1  0.5016900000000  0.5109690000000  0.4868550000000 1.0
C      1  0.4982380000000  0.5330490000000  0.4033890000000 1.0
C      1  0.4110370000000  0.4600160000000  0.4932530000000 1.0
C      1  0.4517880000000  0.4755140000000  0.4096650000000 1.0
C      1  0.5138690000000  0.5054940000000  0.5518020000000 1.0
C      1  0.5963980000000  0.3992920000000  0.4789150000000 1.0
C      1  0.3935630000000  0.4710480000000  0.4741670000000 1.0
C      1  0.4555210000000  0.5071580000000  0.5978460000000 1.0
C      1  0.5311550000000  0.3662160000000  0.4730790000000 1.0
C      1  0.4038090000000  0.5768070000000  0.5056380000000 1.0
C      1  0.4714190000000  0.4550380000000  0.5999820000000 1.0
C      1  0.5458430000000  0.4699440000000  0.5260600000000 1.0
C      1  0.5996720000000  0.5159880000000  0.4645420000000 1.0
C      1  0.5681630000000  0.5872180000000  0.5395750000000 1.0
C      1  0.4119440000000  0.6008050000000  0.5178670000000 1.0
C      1  0.5440910000000  0.5256260000000  0.4186540000000 1.0
C      1  0.4365010000000  0.5086150000000  0.5535000000000 1.0
C      1  0.5345490000000  0.4720070000000  0.4761970000000 1.0
C      1  0.5364370000000  0.4285680000000  0.5523390000000 1.0
C      1  0.5255230000000  0.5410640000000  0.4045690000000 1.0
C      1  0.4300240000000  0.5540960000000  0.5423360000000 1.0
C      1  0.5968950000000  0.5444150000000  0.4736280000000 1.0
C      1  0.5037660000000  0.5580970000000  0.5563560000000 1.0
C      1  0.4149720000000  0.4750540000000  0.5166150000000 1.0
C      1  0.4243360000000  0.4412010000000  0.4372350000000 1.0
C      1  0.5079020000000  0.3704060000000  0.4871800000000 1.0
C      1  0.5214830000000  0.4981920000000  0.4707040000000 1.0
C      1  0.5404990000000  0.5941330000000  0.4995200000000 1.0
C      1  0.5705500000000  0.4877210000000  0.4254320000000 1.0
C      1  0.5220560000000  0.5563670000000  0.4768460000000 1.0
C      1  0.5996110000000  0.5467200000000  0.5027240000000 1.0
C      1  0.4993100000000  0.5654980000000  0.5846140000000 1.0
C      1  0.4342430000000  0.4269640000000  0.5443450000000 1.0
C      1  0.4718960000000  0.4894550000000  0.3975750000000 1.0
C      1  0.4563120000000  0.5110740000000  0.5026680000000 1.0
C      1  0.5394850000000  0.4073100000000  0.5137450000000 1.0
C      1  0.4333680000000  0.5007000000000  0.5805070000000 1.0
C      1  0.4040060000000  0.4589600000000  0.5720970000000 1.0
C      1  0.3949430000000  0.5207280000000  0.4567810000000 1.0
C      1  0.5994590000000  0.4704620000000  0.4858560000000 1.0
C      1  0.4882480000000  0.4573120000000  0.5380450000000 1.0
C      1  0.5142860000000  0.5109640000000  0.5788860000000 1.0
C      1  0.4922820000000  0.5144720000000  0.5358420000000 1.0
C      1  0.5841220000000  0.4284240000000  0.5645940000000 1.0
C      1  0.5310460000000  0.5488130000000  0.5486030000000 1.0
C      1  0.5233260000000  0.4887390000000  0.3974910000000 1.0
C      1  0.4490580000000  0.5245040000000  0.4783430000000 1.0
C      1  0.5444010000000  0.5996720000000  0.5279280000000 1.0
C      1  0.5105120000000  0.6099600000000  0.4613450000000 1.0
C      1  0.4576120000000  0.6157150000000  0.5381170000000 1.0
C      1  0.4307240000000  0.5346340000000  0.4191150000000 1.0
C      1  0.4717840000000  0.6169880000000  0.5125690000000 1.0
C      1  0.4248220000000  0.4925500000000  0.5338710000000 1.0
C      1  0.4579430000000  0.6045760000000  0.4901150000000 1.0
C      1  0.4800650000000  0.3880750000000  0.4537250000000 1.0
C      1  0.4750860000000  0.3769310000000  0.4087980000000 1.0
C      1  0.4570650000000  0.4532650000000  0.4768850000000 1.0
C      1  0.4319670000000  0.4374540000000  0.4873320000000 1.0
C      1  0.4302140000000  0.3806240000000  0.4319760000000 1.0
C      1  0.4824700000000  0.4182060000000  0.5690580000000 1.0
C      1  0.4540600000000  0.5042140000000  0.4586410000000 1.0
C      1  0.6090890000000  0.3917230000000  0.5014710000000 1.0
C      1  0.5752550000000  0.5517770000000  0.5689010000000 1.0
C      1  0.4315780000000  0.6021760000000  0.5380080000000 1.0
C      1  0.5295390000000  0.4163400000000  0.4883400000000 1.0
C      1  0.4912380000000  0.4804800000000  0.4417830000000 1.0
C      1  0.4094260000000  0.5266340000000  0.4332770000000 1.0
C      1  0.4697790000000  0.4831450000000  0.6055950000000 1.0
C      1  0.3875870000000  0.4939480000000  0.4616850000000 1.0
C      1  0.4625310000000  0.5357600000000  0.5996510000000 1.0
C      1  0.3936570000000  0.5391610000000  0.4783290000000 1.0
C      1  0.4904390000000  0.3918930000000  0.4793520000000 1.0
C      1  0.4178980000000  0.5873670000000  0.4344240000000 1.0
C      1  0.4990150000000  0.5799830000000  0.5376750000000 1.0
C      1  0.5509890000000  0.5309150000000  0.4452980000000 1.0
C      1  0.5420630000000  0.4565300000000  0.4531880000000 1.0
C      1  0.5301320000000  0.5689640000000  0.4525710000000 1.0
C      1  0.4937460000000  0.4383400000000  0.5894380000000 1.0
C      1  0.5880190000000  0.4467530000000  0.4776980000000 1.0
C      1  0.4486910000000  0.5814520000000  0.4785530000000 1.0
C      1  0.5652730000000  0.4216330000000  0.5207060000000 1.0
C      1  0.4134600000000  0.4809600000000  0.5846200000000 1.0
C      1  0.6047050000000  0.4989070000000  0.4887650000000 1.0
C      1  0.5867210000000  0.4146070000000  0.5390600000000 1.0
C      1  0.4802320000000  0.5528640000000  0.4144580000000 1.0
C      1  0.4786800000000  0.5041350000000  0.4447110000000 1.0
C      1  0.4101530000000  0.5526640000000  0.5218180000000 1.0
C      1  0.4797520000000  0.5540070000000  0.4945850000000 1.0
C      1  0.6067170000000  0.5180160000000  0.5120620000000 1.0
C      1  0.4484830000000  0.4407620000000  0.5894340000000 1.0
C      1  0.5870230000000  0.4766350000000  0.5709680000000 1.0
C      1  0.5646350000000  0.4631890000000  0.4378670000000 1.0
C      1  0.5010150000000  0.6181130000000  0.5118160000000 1.0
C      1  0.4230910000000  0.3960310000000  0.4529050000000 1.0
C      1  0.4710320000000  0.5625970000000  0.5905370000000 1.0
C      1  0.4237760000000  0.4231850000000  0.4602450000000 1.0
C      1  0.6053740000000  0.5187710000000  0.5414840000000 1.0
C      1  0.4838050000000  0.5011050000000  0.5100840000000 1.0
C      1  0.4548770000000  0.5532910000000  0.4802390000000 1.0
C      1  0.5968950000000  0.5459370000000  0.5501190000000 1.0
C      1  0.4538850000000  0.4242950000000  0.5654340000000 1.0
C      1  0.5565060000000  0.5588950000000  0.4485540000000 1.0
C      1  0.5215760000000  0.5793820000000  0.5953770000000 1.0
C      1  0.4969100000000  0.5040040000000  0.3973990000000 1.0
C      1  0.5395230000000  0.5477310000000  0.5201330000000 1.0
C      1  0.5776620000000  0.4197120000000  0.4718290000000 1.0
C      1  0.4839160000000  0.4414260000000  0.4719630000000 1.0
C      1  0.5530100000000  0.5348960000000  0.5631470000000 1.0
C      1  0.5503100000000  0.4791870000000  0.4997870000000 1.0
C      1  0.3964170000000  0.5684900000000  0.4786250000000 1.0
C      1  0.4961460000000  0.4537160000000  0.4489340000000 1.0
C      1  0.5573340000000  0.5075750000000  0.4945590000000 1.0
C      1  0.4838010000000  0.5712190000000  0.5158360000000 1.0
C      1  0.4903330000000  0.5796720000000  0.4255880000000 1.0
C      1  0.4934880000000  0.3840180000000  0.4289290000000 1.0
C      1  0.4390320000000  0.4650390000000  0.4330940000000 1.0
END
