TITL C-627107-135-1493 3849.80146895707 125000 -861.377289265698 0 0 144 (C1) n - 1
REM
REM in /home/nfs/bkarasulu/CARBON/AIRSS/Generating-Clusters/LCBOP/Only-C1/SD-CG/FIRE-CG
REM
REM
REM
REM
REM
REM ./C.cell (11c1c37f851c82e70ff6c80c92926a4b)
REM AIRSS Version 0.9.1 bugfix July 2018 build 013d7b7c2542+ Fri, 06 Jul 2018 19:26:36 +0100
REM compiler GCC version 9.2.1 20190827 (Red Hat 9.2.1-1)
REM options -cpp -mtune=generic -march=x86-64 -g -O0 -fpre-include=/usr/include/finclude/math-vector-fortran.h
REM seed -1897548119 -949988601 -1672645184 -2007952309 178812038 1289209111 70046704 -1786210667 783742247 -694891426 -296675601 950575472 1284998770 -121937610 631384464 1572057040 1566933089 1060752070 1189693790 410673742 1070744370 -2087703008 -814681993 -850306338 -884004140 -255719096 -1812965170 -1559136989 -1727464667 716477056 -2126757065 -1219891024 -198687645
REM
CELL 1.54180   50.00000   50.00000   50.00000   90.00000   90.00000   90.00000
LATT -1
SFAC C  
C      1  0.5536410000000  0.5913420000000  0.5409710000000 1.0
C      1  0.4781820000000  0.5472960000000  0.5945700000000 1.0
C      1  0.4007570000000  0.4601420000000  0.5344910000000 1.0
C      1  0.4274550000000  0.5781160000000  0.4550410000000 1.0
C      1  0.4926230000000  0.5564500000000  0.5710050000000 1.0
C      1  0.4762740000000  0.4683310000000  0.5336010000000 1.0
C      1  0.5336470000000  0.5516300000000  0.5378450000000 1.0
C      1  0.4829430000000  0.4145420000000  0.5714700000000 1.0
C      1  0.4153280000000  0.4948870000000  0.4352330000000 1.0
C      1  0.3676070000000  0.5133240000000  0.5498780000000 1.0
C      1  0.4279670000000  0.4243060000000  0.5163540000000 1.0
C      1  0.5137330000000  0.4539280000000  0.4931160000000 1.0
C      1  0.4326880000000  0.5092570000000  0.4160610000000 1.0
C      1  0.5217410000000  0.3920710000000  0.4976280000000 1.0
C      1  0.4346960000000  0.4874890000000  0.5170840000000 1.0
C      1  0.4495820000000  0.5468120000000  0.5903580000000 1.0
C      1  0.5385600000000  0.4009630000000  0.4743560000000 1.0
C      1  0.5055610000000  0.5910590000000  0.5273250000000 1.0
C      1  0.5108930000000  0.5811010000000  0.5727900000000 1.0
C      1  0.4502280000000  0.4641550000000  0.4039530000000 1.0
C      1  0.4404670000000  0.5269000000000  0.5321970000000 1.0
C      1  0.5784580000000  0.5716040000000  0.4881250000000 1.0
C      1  0.5347050000000  0.5543670000000  0.4271250000000 1.0
C      1  0.5414010000000  0.5417890000000  0.4822340000000 1.0
C      1  0.5944630000000  0.5279030000000  0.4678940000000 1.0
C      1  0.4905270000000  0.4452660000000  0.5109590000000 1.0
C      1  0.5597950000000  0.4396130000000  0.5314760000000 1.0
C      1  0.4525560000000  0.5098620000000  0.4599130000000 1.0
C      1  0.4415830000000  0.4905670000000  0.3958640000000 1.0
C      1  0.5691680000000  0.5807420000000  0.5629890000000 1.0
C      1  0.5714720000000  0.5630260000000  0.5830240000000 1.0
C      1  0.5164990000000  0.4990680000000  0.3832330000000 1.0
C      1  0.5038210000000  0.5510520000000  0.4287830000000 1.0
C      1  0.3985960000000  0.5897280000000  0.4920230000000 1.0
C      1  0.5792740000000  0.5428740000000  0.4471520000000 1.0
C      1  0.5051160000000  0.4311650000000  0.5809470000000 1.0
C      1  0.4772890000000  0.4734290000000  0.4697700000000 1.0
C      1  0.4813360000000  0.4067370000000  0.4773590000000 1.0
C      1  0.5746800000000  0.5145870000000  0.5229930000000 1.0
C      1  0.4406460000000  0.5384240000000  0.5047050000000 1.0
C      1  0.3938930000000  0.5061520000000  0.5496120000000 1.0
C      1  0.5039800000000  0.5709250000000  0.4744900000000 1.0
C      1  0.5756560000000  0.4484500000000  0.4658600000000 1.0
C      1  0.4613520000000  0.4427040000000  0.4163440000000 1.0
C      1  0.4913300000000  0.4002750000000  0.5475130000000 1.0
C      1  0.4404050000000  0.5670080000000  0.5723010000000 1.0
C      1  0.4927600000000  0.3919810000000  0.4988240000000 1.0
C      1  0.5881890000000  0.4987550000000  0.4704300000000 1.0
C      1  0.4681780000000  0.4852170000000  0.5826180000000 1.0
C      1  0.5037640000000  0.5032710000000  0.6114910000000 1.0
C      1  0.4608350000000  0.4807670000000  0.5139300000000 1.0
C      1  0.4916370000000  0.5465600000000  0.5226270000000 1.0
C      1  0.5241670000000  0.5966040000000  0.5493580000000 1.0
C      1  0.4454660000000  0.5426520000000  0.4224410000000 1.0
C      1  0.4789440000000  0.4877300000000  0.4939960000000 1.0
C      1  0.4453470000000  0.5807780000000  0.5494650000000 1.0
C      1  0.4390180000000  0.4967860000000  0.3692900000000 1.0
C      1  0.4833830000000  0.4048060000000  0.4486740000000 1.0
C      1  0.4231770000000  0.4747680000000  0.4555690000000 1.0
C      1  0.5333930000000  0.4975330000000  0.4063310000000 1.0
C      1  0.4403030000000  0.5672360000000  0.5023150000000 1.0
C      1  0.5303630000000  0.3903980000000  0.4495250000000 1.0
C      1  0.5352190000000  0.3998630000000  0.5215190000000 1.0
C      1  0.5315210000000  0.5063240000000  0.6162430000000 1.0
C      1  0.4356330000000  0.5188610000000  0.4830230000000 1.0
C      1  0.5652510000000  0.5430330000000  0.5997400000000 1.0
C      1  0.5203280000000  0.4035020000000  0.5454180000000 1.0
C      1  0.4545950000000  0.5835690000000  0.5224670000000 1.0
C      1  0.4866610000000  0.4998460000000  0.4195410000000 1.0
C      1  0.5509890000000  0.4380570000000  0.5580090000000 1.0
C      1  0.4735610000000  0.4893890000000  0.5547500000000 1.0
C      1  0.4895590000000  0.5278780000000  0.6113870000000 1.0
C      1  0.5519900000000  0.4393670000000  0.4242890000000 1.0
C      1  0.4147130000000  0.5241900000000  0.5437540000000 1.0
C      1  0.5702680000000  0.4553680000000  0.4380720000000 1.0
C      1  0.5031300000000  0.4451000000000  0.4409090000000 1.0
C      1  0.4899650000000  0.5006950000000  0.3907770000000 1.0
C      1  0.5615170000000  0.4632780000000  0.5160750000000 1.0
C      1  0.5711600000000  0.5703720000000  0.4583110000000 1.0
C      1  0.5050830000000  0.3886020000000  0.4397990000000 1.0
C      1  0.4910030000000  0.5457560000000  0.4754180000000 1.0
C      1  0.6301740000000  0.4703790000000  0.5380540000000 1.0
C      1  0.5470910000000  0.5102270000000  0.5240300000000 1.0
C      1  0.4795760000000  0.5980450000000  0.5154270000000 1.0
C      1  0.4736220000000  0.5152890000000  0.4409400000000 1.0
C      1  0.4219940000000  0.5785200000000  0.4830840000000 1.0
C      1  0.5153500000000  0.5914330000000  0.5980250000000 1.0
C      1  0.4797720000000  0.4296160000000  0.4335490000000 1.0
C      1  0.4412810000000  0.4933810000000  0.5895230000000 1.0
C      1  0.5127290000000  0.5637540000000  0.5234010000000 1.0
C      1  0.5585420000000  0.5336450000000  0.4274500000000 1.0
C      1  0.4910050000000  0.4802490000000  0.5993160000000 1.0
C      1  0.4648260000000  0.5176030000000  0.5464540000000 1.0
C      1  0.5616620000000  0.5064590000000  0.4118750000000 1.0
C      1  0.5602630000000  0.4993600000000  0.4654980000000 1.0
C      1  0.4458950000000  0.5969430000000  0.4446800000000 1.0
C      1  0.4271330000000  0.4239640000000  0.4627120000000 1.0
C      1  0.5306580000000  0.5665990000000  0.4811440000000 1.0
C      1  0.5372370000000  0.5129950000000  0.4756500000000 1.0
C      1  0.5592910000000  0.4215650000000  0.4831570000000 1.0
C      1  0.4804660000000  0.6083430000000  0.4884770000000 1.0
C      1  0.5022660000000  0.4544050000000  0.5964840000000 1.0
C      1  0.4904730000000  0.5319630000000  0.4995690000000 1.0
C      1  0.5658740000000  0.5856590000000  0.5128270000000 1.0
C      1  0.6092950000000  0.4843290000000  0.5259640000000 1.0
C      1  0.5354350000000  0.5247090000000  0.5446900000000 1.0
C      1  0.4115680000000  0.4713810000000  0.4823380000000 1.0
C      1  0.5522520000000  0.5228580000000  0.6116870000000 1.0
C      1  0.4726330000000  0.5878330000000  0.4419220000000 1.0
C      1  0.4199650000000  0.4781990000000  0.5780590000000 1.0
C      1  0.4198680000000  0.4964020000000  0.4947800000000 1.0
C      1  0.5910990000000  0.4704820000000  0.4793140000000 1.0
C      1  0.4376080000000  0.5213120000000  0.5953320000000 1.0
C      1  0.4883370000000  0.5925250000000  0.4660260000000 1.0
C      1  0.4966710000000  0.5312240000000  0.4511750000000 1.0
C      1  0.4116000000000  0.4483280000000  0.5106290000000 1.0
C      1  0.5180450000000  0.5105100000000  0.4533640000000 1.0
C      1  0.6290880000000  0.4436480000000  0.5311520000000 1.0
C      1  0.4026960000000  0.4794320000000  0.5554320000000 1.0
C      1  0.5942550000000  0.5460530000000  0.4916310000000 1.0
C      1  0.4710710000000  0.4310760000000  0.4901730000000 1.0
C      1  0.5269430000000  0.5117280000000  0.5666670000000 1.0
C      1  0.4834880000000  0.5393260000000  0.5483410000000 1.0
C      1  0.4485340000000  0.4065340000000  0.5220650000000 1.0
C      1  0.5484060000000  0.5774620000000  0.4408170000000 1.0
C      1  0.5570160000000  0.4176960000000  0.5138140000000 1.0
C      1  0.5255200000000  0.4409290000000  0.4251320000000 1.0
C      1  0.5773000000000  0.5118450000000  0.3865360000000 1.0
C      1  0.4586740000000  0.4124440000000  0.5835780000000 1.0
C      1  0.5282110000000  0.4235580000000  0.5653120000000 1.0
C      1  0.5358380000000  0.4700850000000  0.5027310000000 1.0
C      1  0.4762420000000  0.3957610000000  0.5236010000000 1.0
C      1  0.5013690000000  0.4580650000000  0.4659620000000 1.0
C      1  0.6075510000000  0.4390350000000  0.5143560000000 1.0
C      1  0.5741510000000  0.4814740000000  0.4260640000000 1.0
C      1  0.4519750000000  0.4797400000000  0.4581080000000 1.0
C      1  0.4259320000000  0.5556220000000  0.4380230000000 1.0
C      1  0.4459520000000  0.4346650000000  0.4776530000000 1.0
C      1  0.5932010000000  0.5326640000000  0.5162370000000 1.0
C      1  0.5291990000000  0.4996780000000  0.5018250000000 1.0
C      1  0.5913970000000  0.4661190000000  0.5087710000000 1.0
C      1  0.4762290000000  0.5631660000000  0.4250780000000 1.0
C      1  0.4992710000000  0.5053610000000  0.5009480000000 1.0
C      1  0.5152980000000  0.4960380000000  0.4289850000000 1.0
END
