TITL C-627108-131-1171 816.138252589816 125000 -759.019290450409 0 0 124 (C1) n - 1
REM
REM in /home/nfs/bkarasulu/CARBON/AIRSS/Generating-Clusters/LCBOP/Only-C1/SD-CG/FIRE-CG
REM
REM
REM
REM
REM
REM ./C.cell (11c1c37f851c82e70ff6c80c92926a4b)
REM AIRSS Version 0.9.1 bugfix July 2018 build 013d7b7c2542+ Fri, 06 Jul 2018 19:26:36 +0100
REM compiler GCC version 9.2.1 20190827 (Red Hat 9.2.1-1)
REM options -cpp -mtune=generic -march=x86-64 -g -O0 -fpre-include=/usr/include/finclude/math-vector-fortran.h
REM seed 967524994 520733081 1163427969 -274552497 1260876629 1633326096 1363465617 854296800 932303023 -519304058 -1314222742 813066710 -1590994537 -1219142454 -1404562400 -171539115 -175298226 1385941913 -2042455305 -904099330 1667476123 1294818987 -411105397 2037004431 799345515 125064102 -587894825 -1645817341 -117960573 1806696751 1948405704 85243440 244421941
REM
CELL 1.54180   50.00000   50.00000   50.00000   90.00000   90.00000   90.00000
LATT -1
SFAC C  
C      1  0.4924110000000  0.5669540000000  0.4939790000000 1.0
C      1  0.4149190000000  0.5184740000000  0.5090610000000 1.0
C      1  0.5707680000000  0.4835370000000  0.5042390000000 1.0
C      1  0.4334080000000  0.5900760000000  0.5066820000000 1.0
C      1  0.4598370000000  0.6025160000000  0.4987120000000 1.0
C      1  0.5063770000000  0.5493920000000  0.4403890000000 1.0
C      1  0.5548580000000  0.5275590000000  0.4156380000000 1.0
C      1  0.5275050000000  0.5192550000000  0.4088090000000 1.0
C      1  0.4328600000000  0.4283980000000  0.4673890000000 1.0
C      1  0.5571940000000  0.5854450000000  0.5075890000000 1.0
C      1  0.4853050000000  0.4952470000000  0.4011620000000 1.0
C      1  0.4651090000000  0.4106730000000  0.5051340000000 1.0
C      1  0.4956150000000  0.5252700000000  0.5139890000000 1.0
C      1  0.5493130000000  0.5420050000000  0.5330180000000 1.0
C      1  0.4840220000000  0.3906760000000  0.4659370000000 1.0
C      1  0.4710830000000  0.5391500000000  0.5974430000000 1.0
C      1  0.4322020000000  0.5182640000000  0.4450830000000 1.0
C      1  0.5091580000000  0.4552300000000  0.5464830000000 1.0
C      1  0.4325530000000  0.4836070000000  0.5788400000000 1.0
C      1  0.5774140000000  0.4887770000000  0.5302240000000 1.0
C      1  0.4606730000000  0.4855620000000  0.5438790000000 1.0
C      1  0.5266220000000  0.4580430000000  0.5238750000000 1.0
C      1  0.5134810000000  0.4934430000000  0.4056150000000 1.0
C      1  0.5299650000000  0.5987890000000  0.5473620000000 1.0
C      1  0.4227250000000  0.5063970000000  0.5620020000000 1.0
C      1  0.5104530000000  0.5480940000000  0.5049320000000 1.0
C      1  0.5580110000000  0.4767930000000  0.4791530000000 1.0
C      1  0.4176630000000  0.5245120000000  0.5391620000000 1.0
C      1  0.5670720000000  0.4967200000000  0.5820120000000 1.0
C      1  0.5075360000000  0.5031060000000  0.5020440000000 1.0
C      1  0.3962120000000  0.4475330000000  0.5283760000000 1.0
C      1  0.5300070000000  0.4791800000000  0.6096720000000 1.0
C      1  0.4602520000000  0.4922270000000  0.4137230000000 1.0
C      1  0.4122230000000  0.5310110000000  0.4608150000000 1.0
C      1  0.5626790000000  0.5681480000000  0.5336180000000 1.0
C      1  0.4717360000000  0.5542170000000  0.4778890000000 1.0
C      1  0.5024720000000  0.5717460000000  0.5816420000000 1.0
C      1  0.4421500000000  0.4689780000000  0.5307200000000 1.0
C      1  0.4830870000000  0.5895680000000  0.5103940000000 1.0
C      1  0.4592710000000  0.4716940000000  0.5862240000000 1.0
C      1  0.5449450000000  0.5182470000000  0.5477560000000 1.0
C      1  0.5716540000000  0.4859760000000  0.3963990000000 1.0
C      1  0.4190570000000  0.5519720000000  0.5479250000000 1.0
C      1  0.4157280000000  0.4616610000000  0.5701240000000 1.0
C      1  0.5057510000000  0.4809800000000  0.5610680000000 1.0
C      1  0.4824160000000  0.4297190000000  0.5729310000000 1.0
C      1  0.5541470000000  0.5849130000000  0.5557540000000 1.0
C      1  0.5038290000000  0.4353390000000  0.5930840000000 1.0
C      1  0.5523270000000  0.4674130000000  0.3968810000000 1.0
C      1  0.5380100000000  0.5420600000000  0.5067230000000 1.0
C      1  0.6122590000000  0.5195380000000  0.4443130000000 1.0
C      1  0.4727160000000  0.5567700000000  0.5410360000000 1.0
C      1  0.6027720000000  0.5230850000000  0.4689930000000 1.0
C      1  0.4490150000000  0.5698300000000  0.4700850000000 1.0
C      1  0.4403850000000  0.4157100000000  0.4919320000000 1.0
C      1  0.4884060000000  0.4356990000000  0.5444480000000 1.0
C      1  0.5092070000000  0.4583840000000  0.4792630000000 1.0
C      1  0.5445770000000  0.5019460000000  0.5995900000000 1.0
C      1  0.4848160000000  0.4534330000000  0.4944120000000 1.0
C      1  0.4792110000000  0.4332590000000  0.5161800000000 1.0
C      1  0.4775310000000  0.5299990000000  0.5346430000000 1.0
C      1  0.4848810000000  0.5821420000000  0.5377090000000 1.0
C      1  0.5386890000000  0.4314020000000  0.4386850000000 1.0
C      1  0.4302510000000  0.5701200000000  0.5645720000000 1.0
C      1  0.4831740000000  0.5972310000000  0.4519730000000 1.0
C      1  0.4686510000000  0.5271140000000  0.4751820000000 1.0
C      1  0.4687000000000  0.5190190000000  0.5799980000000 1.0
C      1  0.4413770000000  0.4760750000000  0.5037030000000 1.0
C      1  0.4890320000000  0.4783600000000  0.5850560000000 1.0
C      1  0.5381400000000  0.4330990000000  0.5140590000000 1.0
C      1  0.6690390000000  0.4544450000000  0.4209140000000 1.0
C      1  0.5965500000000  0.4588600000000  0.4519990000000 1.0
C      1  0.3847420000000  0.4564610000000  0.5056140000000 1.0
C      1  0.6020940000000  0.5157360000000  0.4198930000000 1.0
C      1  0.5545820000000  0.4341490000000  0.4616990000000 1.0
C      1  0.6208630000000  0.4559340000000  0.4419000000000 1.0
C      1  0.6451410000000  0.4548670000000  0.4313210000000 1.0
C      1  0.5053760000000  0.5877450000000  0.5570240000000 1.0
C      1  0.4617070000000  0.4452200000000  0.4287680000000 1.0
C      1  0.4604560000000  0.4719300000000  0.4339720000000 1.0
C      1  0.5332300000000  0.5287530000000  0.5991000000000 1.0
C      1  0.4820680000000  0.3901750000000  0.4941580000000 1.0
C      1  0.4509810000000  0.5780980000000  0.5801970000000 1.0
C      1  0.5610240000000  0.5712520000000  0.4511990000000 1.0
C      1  0.4604720000000  0.5970100000000  0.4691430000000 1.0
C      1  0.4271110000000  0.5668660000000  0.4897520000000 1.0
C      1  0.5226240000000  0.4999590000000  0.5461950000000 1.0
C      1  0.5366770000000  0.6042060000000  0.5186700000000 1.0
C      1  0.5712130000000  0.4572950000000  0.4629270000000 1.0
C      1  0.4749840000000  0.5662830000000  0.5902280000000 1.0
C      1  0.4993660000000  0.5767700000000  0.4441420000000 1.0
C      1  0.5220180000000  0.5524120000000  0.5912500000000 1.0
C      1  0.4512230000000  0.4240060000000  0.4460060000000 1.0
C      1  0.4932120000000  0.4312430000000  0.4246930000000 1.0
C      1  0.5169940000000  0.5048360000000  0.4747970000000 1.0
C      1  0.4190740000000  0.4554810000000  0.5427130000000 1.0
C      1  0.4172900000000  0.4907090000000  0.4969940000000 1.0
C      1  0.4622460000000  0.4692360000000  0.4858230000000 1.0
C      1  0.4390050000000  0.5114030000000  0.4180270000000 1.0
C      1  0.5593700000000  0.5523490000000  0.4310200000000 1.0
C      1  0.5134440000000  0.5281720000000  0.4589250000000 1.0
C      1  0.5011860000000  0.3786070000000  0.5111200000000 1.0
C      1  0.5680630000000  0.5018140000000  0.5539510000000 1.0
C      1  0.5353080000000  0.4097730000000  0.5301000000000 1.0
C      1  0.5604050000000  0.5725670000000  0.4803430000000 1.0
C      1  0.5769410000000  0.5106970000000  0.4086300000000 1.0
C      1  0.5213040000000  0.3870490000000  0.5267540000000 1.0
C      1  0.5228270000000  0.4867750000000  0.5194380000000 1.0
C      1  0.5094320000000  0.5407530000000  0.4136750000000 1.0
C      1  0.5581610000000  0.5444090000000  0.4874930000000 1.0
C      1  0.4135100000000  0.4497540000000  0.4681070000000 1.0
C      1  0.5076270000000  0.4630240000000  0.6024330000000 1.0
C      1  0.5261400000000  0.4673450000000  0.4078090000000 1.0
C      1  0.4587820000000  0.4423590000000  0.5831890000000 1.0
C      1  0.4691070000000  0.5107380000000  0.5529800000000 1.0
C      1  0.5292570000000  0.4790390000000  0.4724570000000 1.0
C      1  0.4146850000000  0.5405340000000  0.4885060000000 1.0
C      1  0.5183010000000  0.4433010000000  0.4226190000000 1.0
C      1  0.5460820000000  0.4266970000000  0.4875400000000 1.0
C      1  0.4604280000000  0.4817220000000  0.4605040000000 1.0
C      1  0.4005440000000  0.4690020000000  0.4856050000000 1.0
C      1  0.4755240000000  0.4077150000000  0.4458820000000 1.0
C      1  0.5807330000000  0.5288490000000  0.4827540000000 1.0
C      1  0.4536190000000  0.5088540000000  0.4616600000000 1.0
END
