TITL C-627111-6168-849 16.469427483862 125000 -110.321415633895 0 0 21 (C1) n - 1
REM
REM in /home/nfs/bkarasulu/CARBON/AIRSS/Generating-Clusters/LCBOP/Only-C1/SD-CG/FIRE-CG
REM
REM
REM
REM
REM
REM ./C.cell (11c1c37f851c82e70ff6c80c92926a4b)
REM AIRSS Version 0.9.1 bugfix July 2018 build 013d7b7c2542+ Fri, 06 Jul 2018 19:26:36 +0100
REM compiler GCC version 9.2.1 20190827 (Red Hat 9.2.1-1)
REM options -cpp -mtune=generic -march=x86-64 -g -O0 -fpre-include=/usr/include/finclude/math-vector-fortran.h
REM seed 1394868513 1050094906 144756326 -145910611 403660021 -1101718065 692940890 1027402749 -1624576037 -2116858404 -550956056 -1898247019 -2073009245 -2129702643 780235342 -1922504801 1016478302 -892188523 2039962496 309091641 -2106190035 -1890702137 -1098813211 7591809 1314613204 -2033172342 694273091 -1997781797 639073573 2062774175 2005388036 169669899 -929121620
REM
CELL 1.54180   50.00000   50.00000   50.00000   90.00000   90.00000   90.00000
LATT -1
SFAC C  
C      1  0.5622620000000  0.5168730000000  0.4858650000000 1.0
C      1  0.5045630000000  0.5462480000000  0.5349640000000 1.0
C      1  0.4944220000000  0.5206050000000  0.5395520000000 1.0
C      1  0.4865730000000  0.5745970000000  0.4995800000000 1.0
C      1  0.4683850000000  0.5921820000000  0.4917160000000 1.0
C      1  0.4803650000000  0.4697260000000  0.5372790000000 1.0
C      1  0.5055480000000  0.5560670000000  0.5083040000000 1.0
C      1  0.4944720000000  0.4032970000000  0.4691580000000 1.0
C      1  0.5135710000000  0.5616480000000  0.5557000000000 1.0
C      1  0.4865470000000  0.4953220000000  0.5401480000000 1.0
C      1  0.4629640000000  0.4261080000000  0.5473310000000 1.0
C      1  0.4759360000000  0.4430340000000  0.5302160000000 1.0
C      1  0.5171210000000  0.4701330000000  0.4524850000000 1.0
C      1  0.4504620000000  0.6094840000000  0.4840330000000 1.0
C      1  0.5253960000000  0.5469410000000  0.4909330000000 1.0
C      1  0.4849740000000  0.4339200000000  0.5053880000000 1.0
C      1  0.5447290000000  0.5347570000000  0.4747970000000 1.0
C      1  0.4954280000000  0.4290340000000  0.4799670000000 1.0
C      1  0.4935660000000  0.3792720000000  0.4590970000000 1.0
C      1  0.5458730000000  0.5408110000000  0.4481200000000 1.0
C      1  0.5068440000000  0.4499410000000  0.4653650000000 1.0
END
