TITL C-627110-360-1185 6.15412582147415e-08 125000 -1037.43985609092 0 0 170 (C1) n - 1
REM
REM in /home/nfs/bkarasulu/CARBON/AIRSS/Generating-Clusters/LCBOP/Only-C1/SD-CG/FIRE-CG
REM
REM
REM
REM
REM
REM ./C.cell (11c1c37f851c82e70ff6c80c92926a4b)
REM AIRSS Version 0.9.1 bugfix July 2018 build 013d7b7c2542+ Fri, 06 Jul 2018 19:26:36 +0100
REM compiler GCC version 9.2.1 20190827 (Red Hat 9.2.1-1)
REM options -cpp -mtune=generic -march=x86-64 -g -O0 -fpre-include=/usr/include/finclude/math-vector-fortran.h
REM seed 1445390549 1519191315 -518750815 -1890132805 -982470222 -1935308524 -2069864405 2059027424 -383526539 412663238 -1533691391 613769372 290335244 1397822262 140525770 -747042906 -320513778 627437829 1399801941 -2086799283 347425824 -1160875956 -1329795105 -1730945967 1677920762 -1403360610 -992052826 766602777 -695082332 1932394788 -1734048812 1119888449 -1100382478
REM
CELL 1.54180   50.00000   50.00000   50.00000   90.00000   90.00000   90.00000
LATT -1
SFAC C  
C      1  0.6491510000000  0.4792460000000  0.4671110000000 1.0
C      1  0.5097430000000  0.4294970000000  0.4920780000000 1.0
C      1  0.5972300000000  0.5625140000000  0.4881120000000 1.0
C      1  0.4785380000000  0.4537570000000  0.4343190000000 1.0
C      1  0.5203060000000  0.4657080000000  0.3762000000000 1.0
C      1  0.5613910000000  0.4636250000000  0.4836700000000 1.0
C      1  0.4093690000000  0.4782030000000  0.5782170000000 1.0
C      1  0.4410710000000  0.5755400000000  0.5045260000000 1.0
C      1  0.3931740000000  0.4479060000000  0.4563680000000 1.0
C      1  0.5351440000000  0.5564680000000  0.4961740000000 1.0
C      1  0.5767230000000  0.5633900000000  0.4471030000000 1.0
C      1  0.4737240000000  0.4653350000000  0.4961300000000 1.0
C      1  0.4601070000000  0.4335220000000  0.4424300000000 1.0
C      1  0.4873470000000  0.4769110000000  0.5823260000000 1.0
C      1  0.4054560000000  0.5550770000000  0.5277590000000 1.0
C      1  0.6268010000000  0.4950430000000  0.4692840000000 1.0
C      1  0.4714440000000  0.4737190000000  0.3773260000000 1.0
C      1  0.4737130000000  0.5924440000000  0.4660760000000 1.0
C      1  0.4848260000000  0.6013870000000  0.5568050000000 1.0
C      1  0.4602900000000  0.5421150000000  0.4738250000000 1.0
C      1  0.4354640000000  0.5049420000000  0.3974550000000 1.0
C      1  0.5168950000000  0.3850990000000  0.5048430000000 1.0
C      1  0.4709280000000  0.5240240000000  0.4937500000000 1.0
C      1  0.4568060000000  0.5300690000000  0.5747090000000 1.0
C      1  0.4676560000000  0.5037400000000  0.4445080000000 1.0
C      1  0.5227710000000  0.5431600000000  0.5929250000000 1.0
C      1  0.5214640000000  0.5143190000000  0.5896120000000 1.0
C      1  0.4798560000000  0.5024930000000  0.6390860000000 1.0
C      1  0.5181190000000  0.4268260000000  0.4202350000000 1.0
C      1  0.5715380000000  0.4040240000000  0.4828790000000 1.0
C      1  0.5821930000000  0.4831320000000  0.4922360000000 1.0
C      1  0.5436810000000  0.5031620000000  0.5777290000000 1.0
C      1  0.4340640000000  0.5004980000000  0.5356970000000 1.0
C      1  0.5786470000000  0.4203420000000  0.5286960000000 1.0
C      1  0.4621620000000  0.5704160000000  0.4829830000000 1.0
C      1  0.5322250000000  0.4560410000000  0.5367670000000 1.0
C      1  0.3516880000000  0.5125540000000  0.4932630000000 1.0
C      1  0.5390350000000  0.4857460000000  0.3821710000000 1.0
C      1  0.4353320000000  0.4916320000000  0.4868890000000 1.0
C      1  0.4160330000000  0.5422560000000  0.5491050000000 1.0
C      1  0.4819430000000  0.5428600000000  0.5686600000000 1.0
C      1  0.4851950000000  0.6136220000000  0.4837790000000 1.0
C      1  0.5197580000000  0.4288400000000  0.6064820000000 1.0
C      1  0.6541340000000  0.5333880000000  0.4808960000000 1.0
C      1  0.4890950000000  0.4778040000000  0.4751480000000 1.0
C      1  0.4573420000000  0.4856610000000  0.3987620000000 1.0
C      1  0.5450260000000  0.5106950000000  0.4462330000000 1.0
C      1  0.5172680000000  0.5335890000000  0.3773250000000 1.0
C      1  0.5907670000000  0.5137660000000  0.5591030000000 1.0
C      1  0.4335160000000  0.5210070000000  0.3745690000000 1.0
C      1  0.5176400000000  0.4412430000000  0.4668290000000 1.0
C      1  0.4341460000000  0.4816210000000  0.5883150000000 1.0
C      1  0.4868620000000  0.5531130000000  0.4357770000000 1.0
C      1  0.5907530000000  0.4744920000000  0.5202190000000 1.0
C      1  0.4592450000000  0.4701180000000  0.5827090000000 1.0
C      1  0.4544250000000  0.5749420000000  0.5308620000000 1.0
C      1  0.5493180000000  0.5529620000000  0.5923400000000 1.0
C      1  0.4882400000000  0.5119130000000  0.5104490000000 1.0
C      1  0.4033250000000  0.4313980000000  0.5241850000000 1.0
C      1  0.5148750000000  0.4417370000000  0.6317020000000 1.0
C      1  0.4912260000000  0.4646960000000  0.5179960000000 1.0
C      1  0.4462900000000  0.4687470000000  0.5013980000000 1.0
C      1  0.5424490000000  0.4537220000000  0.4685240000000 1.0
C      1  0.4041680000000  0.4182310000000  0.4989790000000 1.0
C      1  0.5891160000000  0.4463230000000  0.5250150000000 1.0
C      1  0.5707490000000  0.5865750000000  0.5666830000000 1.0
C      1  0.5459690000000  0.4272990000000  0.4175390000000 1.0
C      1  0.3718670000000  0.5571860000000  0.4814860000000 1.0
C      1  0.4969480000000  0.4294640000000  0.5887110000000 1.0
C      1  0.4015510000000  0.4698330000000  0.4437710000000 1.0
C      1  0.5523310000000  0.5358770000000  0.4074710000000 1.0
C      1  0.5029470000000  0.4544130000000  0.5736940000000 1.0
C      1  0.4011940000000  0.4618620000000  0.5298500000000 1.0
C      1  0.5805690000000  0.4074560000000  0.5540360000000 1.0
C      1  0.4940060000000  0.5444710000000  0.5429830000000 1.0
C      1  0.4188740000000  0.4914610000000  0.4410470000000 1.0
C      1  0.5892940000000  0.5512540000000  0.5130250000000 1.0
C      1  0.4665060000000  0.5353800000000  0.4469320000000 1.0
C      1  0.5216510000000  0.5385600000000  0.5373020000000 1.0
C      1  0.5701360000000  0.5108040000000  0.4912550000000 1.0
C      1  0.4472950000000  0.5372400000000  0.3585670000000 1.0
C      1  0.5575070000000  0.4863940000000  0.4050590000000 1.0
C      1  0.4972690000000  0.5450830000000  0.3619510000000 1.0
C      1  0.5848760000000  0.5365490000000  0.4531670000000 1.0
C      1  0.4232950000000  0.3973730000000  0.4970000000000 1.0
C      1  0.4702170000000  0.4229850000000  0.5837940000000 1.0
C      1  0.4096900000000  0.5529020000000  0.4526710000000 1.0
C      1  0.4987020000000  0.4031630000000  0.4929170000000 1.0
C      1  0.5092210000000  0.5377040000000  0.4272950000000 1.0
C      1  0.5119770000000  0.6050090000000  0.5971560000000 1.0
C      1  0.5052960000000  0.4425740000000  0.4405850000000 1.0
C      1  0.6297050000000  0.5232870000000  0.4735380000000 1.0
C      1  0.4127570000000  0.5373040000000  0.4307270000000 1.0
C      1  0.3933870000000  0.4298010000000  0.4759090000000 1.0
C      1  0.5121860000000  0.4444440000000  0.5170370000000 1.0
C      1  0.4222710000000  0.3981650000000  0.5561700000000 1.0
C      1  0.4607260000000  0.5172650000000  0.6267000000000 1.0
C      1  0.5740540000000  0.4667560000000  0.4186540000000 1.0
C      1  0.4648950000000  0.4119850000000  0.4578130000000 1.0
C      1  0.4936530000000  0.4564360000000  0.3739780000000 1.0
C      1  0.5458910000000  0.3768830000000  0.5442950000000 1.0
C      1  0.5559510000000  0.5106620000000  0.4195860000000 1.0
C      1  0.5024100000000  0.4912180000000  0.5230050000000 1.0
C      1  0.5609220000000  0.4572030000000  0.6053020000000 1.0
C      1  0.5634030000000  0.4050220000000  0.5090720000000 1.0
C      1  0.5424280000000  0.5405770000000  0.5180410000000 1.0
C      1  0.4687570000000  0.4799720000000  0.4244320000000 1.0
C      1  0.6079920000000  0.5408770000000  0.4705760000000 1.0
C      1  0.4990770000000  0.5883800000000  0.5792400000000 1.0
C      1  0.4230060000000  0.4220590000000  0.5432610000000 1.0
C      1  0.4718690000000  0.5465520000000  0.3542520000000 1.0
C      1  0.5711460000000  0.5597520000000  0.5758990000000 1.0
C      1  0.5912860000000  0.4248800000000  0.4012030000000 1.0
C      1  0.4522900000000  0.5261280000000  0.6026620000000 1.0
C      1  0.3997460000000  0.5604040000000  0.4783580000000 1.0
C      1  0.5905210000000  0.4739360000000  0.4414780000000 1.0
C      1  0.4575990000000  0.5925640000000  0.5525760000000 1.0
C      1  0.5611220000000  0.6046080000000  0.5496250000000 1.0
C      1  0.4362580000000  0.5226150000000  0.5546770000000 1.0
C      1  0.4906240000000  0.4288060000000  0.3790420000000 1.0
C      1  0.4872440000000  0.5662520000000  0.5003980000000 1.0
C      1  0.5148670000000  0.6142290000000  0.4889680000000 1.0
C      1  0.3840920000000  0.4757560000000  0.5104010000000 1.0
C      1  0.4952010000000  0.4991970000000  0.4572680000000 1.0
C      1  0.5211930000000  0.4697290000000  0.6339950000000 1.0
C      1  0.5018110000000  0.4957130000000  0.5983240000000 1.0
C      1  0.5708170000000  0.4391870000000  0.4122950000000 1.0
C      1  0.5302990000000  0.4503860000000  0.5646530000000 1.0
C      1  0.5197600000000  0.6152980000000  0.5180350000000 1.0
C      1  0.5647690000000  0.5191870000000  0.4643820000000 1.0
C      1  0.5319340000000  0.5104790000000  0.3694940000000 1.0
C      1  0.4402630000000  0.4953620000000  0.4595900000000 1.0
C      1  0.5291750000000  0.4848660000000  0.5312850000000 1.0
C      1  0.5319080000000  0.6046270000000  0.4680730000000 1.0
C      1  0.5425100000000  0.4410350000000  0.5901980000000 1.0
C      1  0.4792890000000  0.5608750000000  0.5261420000000 1.0
C      1  0.5417560000000  0.3876230000000  0.5183020000000 1.0
C      1  0.5646760000000  0.3866600000000  0.5613010000000 1.0
C      1  0.4277190000000  0.5096350000000  0.5078550000000 1.0
C      1  0.3915760000000  0.4677150000000  0.5587340000000 1.0
C      1  0.5878280000000  0.4570080000000  0.6009580000000 1.0
C      1  0.4193100000000  0.5113410000000  0.4206470000000 1.0
C      1  0.4749440000000  0.6206140000000  0.5104650000000 1.0
C      1  0.4553240000000  0.4437610000000  0.5715860000000 1.0
C      1  0.4943270000000  0.6153010000000  0.5327330000000 1.0
C      1  0.4145380000000  0.5653720000000  0.5026680000000 1.0
C      1  0.6003240000000  0.5549430000000  0.5384200000000 1.0
C      1  0.5247760000000  0.5420530000000  0.4034510000000 1.0
C      1  0.3655500000000  0.4621580000000  0.5652210000000 1.0
C      1  0.5022490000000  0.4158760000000  0.3996490000000 1.0
C      1  0.5593780000000  0.5995370000000  0.4731440000000 1.0
C      1  0.6011240000000  0.4826260000000  0.4672080000000 1.0
C      1  0.5889600000000  0.5421830000000  0.5613570000000 1.0
C      1  0.5165910000000  0.5152620000000  0.4458620000000 1.0
C      1  0.3538240000000  0.5382220000000  0.4865490000000 1.0
C      1  0.4494020000000  0.3908360000000  0.4965490000000 1.0
C      1  0.4720850000000  0.3997620000000  0.4823700000000 1.0
C      1  0.4998270000000  0.5591890000000  0.5847820000000 1.0
C      1  0.4910610000000  0.5811390000000  0.4449860000000 1.0
C      1  0.5795100000000  0.5800750000000  0.4709160000000 1.0
C      1  0.5016850000000  0.4895670000000  0.6266360000000 1.0
C      1  0.4333930000000  0.4685870000000  0.5306310000000 1.0
C      1  0.5113180000000  0.5634090000000  0.4880590000000 1.0
C      1  0.3641280000000  0.4903310000000  0.5008000000000 1.0
C      1  0.5933220000000  0.4928480000000  0.5420090000000 1.0
C      1  0.5174460000000  0.5930000000000  0.4458640000000 1.0
C      1  0.5485370000000  0.4731980000000  0.6257010000000 1.0
C      1  0.4417370000000  0.4435400000000  0.5473760000000 1.0
C      1  0.5684320000000  0.5308410000000  0.5116350000000 1.0
C      1  0.5441130000000  0.6138220000000  0.5313910000000 1.0
END
