TITL C-627106-156-1119 100949.074515964 125000 -666.884641852271 0 0 112 (C1) n - 1
REM
REM in /home/nfs/bkarasulu/CARBON/AIRSS/Generating-Clusters/LCBOP/Only-C1/SD-CG/FIRE-CG
REM
REM
REM
REM
REM
REM ./C.cell (11c1c37f851c82e70ff6c80c92926a4b)
REM AIRSS Version 0.9.1 bugfix July 2018 build 013d7b7c2542+ Fri, 06 Jul 2018 19:26:36 +0100
REM compiler GCC version 9.2.1 20190827 (Red Hat 9.2.1-1)
REM options -cpp -mtune=generic -march=x86-64 -g -O0 -fpre-include=/usr/include/finclude/math-vector-fortran.h
REM seed -1901905598 968047157 2073988003 267988040 -595934850 1873811912 -1061636314 1133333258 -299122130 -461632876 144542365 1146937286 -1226110017 223519622 242323485 799975676 565179566 394944769 -1536652486 -1375946789 1767486910 402249521 -1572347965 -9124865 361365928 -471647602 2068168886 855710821 1057757470 137773702 1047603988 1600788682 -1088729810
REM
CELL 1.54180   50.00000   50.00000   50.00000   90.00000   90.00000   90.00000
LATT -1
SFAC C  
C      1  0.6482880000000  0.4914270000000  0.4632360000000 1.0
C      1  0.4950590000000  0.4139630000000  0.4821490000000 1.0
C      1  0.6328830000000  0.4369950000000  0.5553710000000 1.0
C      1  0.5456110000000  0.4394910000000  0.5128380000000 1.0
C      1  0.6873470000000  0.4544050000000  0.4994440000000 1.0
C      1  0.4441590000000  0.4508270000000  0.5262590000000 1.0
C      1  0.4572480000000  0.4681830000000  0.4160880000000 1.0
C      1  0.4110210000000  0.4637050000000  0.4411750000000 1.0
C      1  0.4247740000000  0.3900960000000  0.4954640000000 1.0
C      1  0.4743840000000  0.5763990000000  0.5601050000000 1.0
C      1  0.4832970000000  0.4688390000000  0.4288780000000 1.0
C      1  0.5328310000000  0.4361450000000  0.4631570000000 1.0
C      1  0.4031210000000  0.4041990000000  0.4855990000000 1.0
C      1  0.4729710000000  0.5283670000000  0.6158620000000 1.0
C      1  0.4207870000000  0.4715230000000  0.5647500000000 1.0
C      1  0.4085080000000  0.5362620000000  0.4604410000000 1.0
C      1  0.3884160000000  0.4968250000000  0.4882080000000 1.0
C      1  0.3926100000000  0.5280840000000  0.5296890000000 1.0
C      1  0.5051770000000  0.4817710000000  0.5183060000000 1.0
C      1  0.5511280000000  0.5304870000000  0.5560690000000 1.0
C      1  0.4492910000000  0.5158090000000  0.6101430000000 1.0
C      1  0.4073000000000  0.5108110000000  0.4729220000000 1.0
C      1  0.5769690000000  0.5253870000000  0.5125840000000 1.0
C      1  0.4415670000000  0.4224150000000  0.4661010000000 1.0
C      1  0.6232640000000  0.5187600000000  0.5043980000000 1.0
C      1  0.4524590000000  0.5051990000000  0.4566090000000 1.0
C      1  0.4172570000000  0.5007240000000  0.5702150000000 1.0
C      1  0.5575570000000  0.4871750000000  0.5329920000000 1.0
C      1  0.4968900000000  0.5779640000000  0.3771170000000 1.0
C      1  0.6500380000000  0.5109000000000  0.5060050000000 1.0
C      1  0.4676750000000  0.4611030000000  0.5803760000000 1.0
C      1  0.4994450000000  0.4636940000000  0.5395640000000 1.0
C      1  0.5125060000000  0.4990460000000  0.4570160000000 1.0
C      1  0.4542880000000  0.5317350000000  0.5659170000000 1.0
C      1  0.4170410000000  0.6545300000000  0.5337040000000 1.0
C      1  0.4435460000000  0.5904190000000  0.5101250000000 1.0
C      1  0.4285690000000  0.5654120000000  0.5115620000000 1.0
C      1  0.6527270000000  0.4409970000000  0.5389420000000 1.0
C      1  0.6037220000000  0.5282370000000  0.5229860000000 1.0
C      1  0.3799590000000  0.5072420000000  0.5142260000000 1.0
C      1  0.4918260000000  0.5864090000000  0.5141410000000 1.0
C      1  0.5054410000000  0.4306150000000  0.4608960000000 1.0
C      1  0.4718930000000  0.5225560000000  0.4695120000000 1.0
C      1  0.5234540000000  0.4260980000000  0.5249220000000 1.0
C      1  0.4700600000000  0.5892110000000  0.4956810000000 1.0
C      1  0.4415300000000  0.6065910000000  0.5338190000000 1.0
C      1  0.4946800000000  0.5644570000000  0.3998010000000 1.0
C      1  0.6082170000000  0.5120150000000  0.4798320000000 1.0
C      1  0.4966240000000  0.5105760000000  0.4782410000000 1.0
C      1  0.4532400000000  0.5951110000000  0.5570660000000 1.0
C      1  0.4470930000000  0.5457960000000  0.5031510000000 1.0
C      1  0.4333490000000  0.4993020000000  0.4769480000000 1.0
C      1  0.4405260000000  0.4594020000000  0.5820520000000 1.0
C      1  0.4176750000000  0.4565750000000  0.5382860000000 1.0
C      1  0.4851990000000  0.4456860000000  0.4471330000000 1.0
C      1  0.5156980000000  0.5423090000000  0.5930280000000 1.0
C      1  0.5075840000000  0.5061010000000  0.5042530000000 1.0
C      1  0.7352950000000  0.5072490000000  0.4883590000000 1.0
C      1  0.3762600000000  0.4822510000000  0.5294100000000 1.0
C      1  0.6093240000000  0.4944000000000  0.4337040000000 1.0
C      1  0.4975950000000  0.4947920000000  0.4326590000000 1.0
C      1  0.4602230000000  0.4620920000000  0.4817070000000 1.0
C      1  0.4728120000000  0.4103550000000  0.4997240000000 1.0
C      1  0.4599850000000  0.5181910000000  0.5424240000000 1.0
C      1  0.4941990000000  0.5790190000000  0.5399780000000 1.0
C      1  0.7156630000000  0.4177920000000  0.4716690000000 1.0
C      1  0.6714100000000  0.4462720000000  0.5209070000000 1.0
C      1  0.4769670000000  0.5830530000000  0.4680510000000 1.0
C      1  0.5638930000000  0.5628820000000  0.4297420000000 1.0
C      1  0.4380430000000  0.5159200000000  0.5840900000000 1.0
C      1  0.4309570000000  0.4651820000000  0.4227580000000 1.0
C      1  0.4856890000000  0.5674720000000  0.4471400000000 1.0
C      1  0.4699510000000  0.4253120000000  0.5261940000000 1.0
C      1  0.5614000000000  0.5204480000000  0.4631790000000 1.0
C      1  0.4290570000000  0.6314050000000  0.5338810000000 1.0
C      1  0.4980670000000  0.4363800000000  0.5324130000000 1.0
C      1  0.3946510000000  0.4673460000000  0.4900720000000 1.0
C      1  0.6878350000000  0.4818270000000  0.4918920000000 1.0
C      1  0.4490470000000  0.5224450000000  0.5170640000000 1.0
C      1  0.4030570000000  0.4527230000000  0.4665180000000 1.0
C      1  0.7121050000000  0.4954610000000  0.4898890000000 1.0
C      1  0.5572720000000  0.4613690000000  0.5262020000000 1.0
C      1  0.5977700000000  0.4898020000000  0.4108000000000 1.0
C      1  0.5370590000000  0.5378400000000  0.5775780000000 1.0
C      1  0.5281010000000  0.5224800000000  0.5142380000000 1.0
C      1  0.4545040000000  0.5449520000000  0.4761740000000 1.0
C      1  0.4429190000000  0.4975100000000  0.5036770000000 1.0
C      1  0.4985010000000  0.5913650000000  0.3548130000000 1.0
C      1  0.4717250000000  0.5524430000000  0.5749230000000 1.0
C      1  0.5800960000000  0.5180530000000  0.4841640000000 1.0
C      1  0.5533850000000  0.5172630000000  0.5293570000000 1.0
C      1  0.4908030000000  0.5505410000000  0.4239920000000 1.0
C      1  0.4317810000000  0.5508080000000  0.4591680000000 1.0
C      1  0.4923980000000  0.5215380000000  0.4217920000000 1.0
C      1  0.6635120000000  0.4950630000000  0.4867940000000 1.0
C      1  0.4815430000000  0.4735630000000  0.5592630000000 1.0
C      1  0.4123630000000  0.4262730000000  0.4696420000000 1.0
C      1  0.4491420000000  0.4023730000000  0.4866080000000 1.0
C      1  0.4450000000000  0.5102380000000  0.4307140000000 1.0
C      1  0.4000900000000  0.5177920000000  0.5553020000000 1.0
C      1  0.5486370000000  0.4373150000000  0.4848830000000 1.0
C      1  0.4653340000000  0.4906000000000  0.5436620000000 1.0
C      1  0.4879820000000  0.5438580000000  0.5970700000000 1.0
C      1  0.5633990000000  0.5426330000000  0.4461380000000 1.0
C      1  0.4605220000000  0.4431850000000  0.4620970000000 1.0
C      1  0.4531780000000  0.4770760000000  0.5207310000000 1.0
C      1  0.4602910000000  0.4070550000000  0.5481710000000 1.0
C      1  0.4041320000000  0.5533100000000  0.5210350000000 1.0
C      1  0.7022760000000  0.4356560000000  0.4851150000000 1.0
C      1  0.3952140000000  0.4618520000000  0.5202000000000 1.0
C      1  0.6214800000000  0.4992120000000  0.4582460000000 1.0
C      1  0.5403230000000  0.5023490000000  0.4586750000000 1.0
END
