TITL C-627106-156-1258 2.20683569059247e-07 125000 -1183.28808438283 0 0 190 (C1) n - 1
REM
REM in /home/nfs/bkarasulu/CARBON/AIRSS/Generating-Clusters/LCBOP/Only-C1/SD-CG/FIRE-CG
REM
REM
REM
REM
REM
REM ./C.cell (11c1c37f851c82e70ff6c80c92926a4b)
REM AIRSS Version 0.9.1 bugfix July 2018 build 013d7b7c2542+ Fri, 06 Jul 2018 19:26:36 +0100
REM compiler GCC version 9.2.1 20190827 (Red Hat 9.2.1-1)
REM options -cpp -mtune=generic -march=x86-64 -g -O0 -fpre-include=/usr/include/finclude/math-vector-fortran.h
REM seed 1992076261 2001797318 1012206673 -24450782 1342108054 -2111598254 -524399791 847110743 627231500 1850685930 1717476228 551075311 392389732 -625598339 -1885033073 1700333251 1057383661 -1447117039 -2117024502 417940718 -50414971 -2020293092 -580544323 -820365124 -1800125408 89125797 -463403708 1193484939 -1732840869 1158949419 -618491765 1056168793 -2138375127
REM
CELL 1.54180   50.00000   50.00000   50.00000   90.00000   90.00000   90.00000
LATT -1
SFAC C  
C      1  0.4750060000000  0.3923600000000  0.5120180000000 1.0
C      1  0.5353380000000  0.3980740000000  0.4900750000000 1.0
C      1  0.5233320000000  0.4303370000000  0.5685340000000 1.0
C      1  0.5761660000000  0.3951990000000  0.4390010000000 1.0
C      1  0.5290660000000  0.5249790000000  0.3475910000000 1.0
C      1  0.5656250000000  0.4809910000000  0.5076950000000 1.0
C      1  0.5744950000000  0.4608480000000  0.5520270000000 1.0
C      1  0.5409000000000  0.5692100000000  0.4821620000000 1.0
C      1  0.4488460000000  0.4871590000000  0.6147850000000 1.0
C      1  0.5128100000000  0.5637090000000  0.6017890000000 1.0
C      1  0.4586670000000  0.5362440000000  0.6038400000000 1.0
C      1  0.5164340000000  0.4495150000000  0.5477510000000 1.0
C      1  0.4302730000000  0.4371960000000  0.5529670000000 1.0
C      1  0.5060870000000  0.4387010000000  0.6141570000000 1.0
C      1  0.5823290000000  0.4163080000000  0.5043040000000 1.0
C      1  0.4601790000000  0.4978440000000  0.5433250000000 1.0
C      1  0.4542540000000  0.3771030000000  0.5000290000000 1.0
C      1  0.4466640000000  0.3655200000000  0.4513680000000 1.0
C      1  0.5628620000000  0.4074120000000  0.4855250000000 1.0
C      1  0.5044370000000  0.5406070000000  0.5311220000000 1.0
C      1  0.4229110000000  0.4785900000000  0.6062250000000 1.0
C      1  0.5225530000000  0.5166360000000  0.5834330000000 1.0
C      1  0.4842130000000  0.5841390000000  0.4252030000000 1.0
C      1  0.5435530000000  0.3263450000000  0.5037630000000 1.0
C      1  0.4755080000000  0.6073950000000  0.4109190000000 1.0
C      1  0.5298770000000  0.6276900000000  0.4830950000000 1.0
C      1  0.4853390000000  0.4149580000000  0.4983060000000 1.0
C      1  0.6237330000000  0.4830010000000  0.5016040000000 1.0
C      1  0.4614400000000  0.4001310000000  0.5604350000000 1.0
C      1  0.5524960000000  0.6342490000000  0.4991390000000 1.0
C      1  0.4147480000000  0.5449480000000  0.3879920000000 1.0
C      1  0.4703450000000  0.5200120000000  0.5583940000000 1.0
C      1  0.4212160000000  0.4641050000000  0.4556080000000 1.0
C      1  0.5228410000000  0.5914570000000  0.5250500000000 1.0
C      1  0.5677000000000  0.4412490000000  0.4521740000000 1.0
C      1  0.5625860000000  0.5548160000000  0.4708440000000 1.0
C      1  0.4228640000000  0.5909490000000  0.4938080000000 1.0
C      1  0.4181380000000  0.5952000000000  0.4409490000000 1.0
C      1  0.4762460000000  0.5212580000000  0.5867110000000 1.0
C      1  0.4711360000000  0.4703180000000  0.6042970000000 1.0
C      1  0.4688130000000  0.5706180000000  0.4750950000000 1.0
C      1  0.4491720000000  0.5975130000000  0.5396290000000 1.0
C      1  0.5295090000000  0.4036600000000  0.5648720000000 1.0
C      1  0.4191570000000  0.5997700000000  0.4673320000000 1.0
C      1  0.5437830000000  0.5825600000000  0.5072460000000 1.0
C      1  0.5380600000000  0.5598960000000  0.5610000000000 1.0
C      1  0.5280760000000  0.5457520000000  0.5850520000000 1.0
C      1  0.5377940000000  0.5324410000000  0.4171870000000 1.0
C      1  0.4326240000000  0.5793350000000  0.5566310000000 1.0
C      1  0.4016150000000  0.5480990000000  0.4816300000000 1.0
C      1  0.5253810000000  0.4434250000000  0.5941260000000 1.0
C      1  0.5830180000000  0.5100180000000  0.4272410000000 1.0
C      1  0.5213890000000  0.5002030000000  0.4974280000000 1.0
C      1  0.6144970000000  0.5302290000000  0.4935720000000 1.0
C      1  0.4591840000000  0.5506140000000  0.5212660000000 1.0
C      1  0.6025770000000  0.4336590000000  0.5089240000000 1.0
C      1  0.5623360000000  0.5944200000000  0.4171020000000 1.0
C      1  0.5599610000000  0.4608120000000  0.5273280000000 1.0
C      1  0.5714800000000  0.5362920000000  0.3687310000000 1.0
C      1  0.5518970000000  0.5165830000000  0.3619370000000 1.0
C      1  0.5341270000000  0.4817180000000  0.3997850000000 1.0
C      1  0.3913540000000  0.5311810000000  0.4334240000000 1.0
C      1  0.4968550000000  0.5218700000000  0.4621250000000 1.0
C      1  0.5802150000000  0.4684230000000  0.5776830000000 1.0
C      1  0.4887700000000  0.5750030000000  0.5893880000000 1.0
C      1  0.5521810000000  0.5220510000000  0.5316630000000 1.0
C      1  0.4581710000000  0.4269920000000  0.6215530000000 1.0
C      1  0.4570510000000  0.4751940000000  0.5590180000000 1.0
C      1  0.5751920000000  0.5478020000000  0.3944060000000 1.0
C      1  0.4371790000000  0.4445550000000  0.5002050000000 1.0
C      1  0.5034200000000  0.5312830000000  0.3525490000000 1.0
C      1  0.4784060000000  0.6006520000000  0.5410200000000 1.0
C      1  0.4215780000000  0.5835640000000  0.4171030000000 1.0
C      1  0.5248720000000  0.4889880000000  0.5747110000000 1.0
C      1  0.4643690000000  0.5640250000000  0.6004960000000 1.0
C      1  0.5889170000000  0.5640360000000  0.4725200000000 1.0
C      1  0.6197550000000  0.5167760000000  0.4671530000000 1.0
C      1  0.4154110000000  0.4816450000000  0.5789200000000 1.0
C      1  0.5407240000000  0.4514960000000  0.4453480000000 1.0
C      1  0.5312710000000  0.5394550000000  0.5397490000000 1.0
C      1  0.4864880000000  0.5299710000000  0.3751600000000 1.0
C      1  0.5198640000000  0.3595800000000  0.4640870000000 1.0
C      1  0.6309340000000  0.4909420000000  0.4746840000000 1.0
C      1  0.5452470000000  0.5017650000000  0.5138710000000 1.0
C      1  0.4312920000000  0.5518780000000  0.5210970000000 1.0
C      1  0.6028320000000  0.5565790000000  0.4961760000000 1.0
C      1  0.5366980000000  0.3522810000000  0.5091500000000 1.0
C      1  0.5261720000000  0.3534610000000  0.4388700000000 1.0
C      1  0.3631490000000  0.4053250000000  0.5156480000000 1.0
C      1  0.4789660000000  0.4459980000000  0.6172810000000 1.0
C      1  0.4775830000000  0.5413040000000  0.5420630000000 1.0
C      1  0.5274220000000  0.4592450000000  0.4703300000000 1.0
C      1  0.3991980000000  0.5330530000000  0.4080930000000 1.0
C      1  0.3895670000000  0.5028360000000  0.5144920000000 1.0
C      1  0.4427140000000  0.4181580000000  0.5710190000000 1.0
C      1  0.5583300000000  0.5277980000000  0.4655120000000 1.0
C      1  0.4938150000000  0.5879970000000  0.5637910000000 1.0
C      1  0.6169300000000  0.4565160000000  0.5084340000000 1.0
C      1  0.5063920000000  0.4877600000000  0.3990170000000 1.0
C      1  0.4571500000000  0.3633570000000  0.4758960000000 1.0
C      1  0.4239550000000  0.4808870000000  0.4358660000000 1.0
C      1  0.5208630000000  0.5708660000000  0.6269100000000 1.0
C      1  0.5794500000000  0.5280260000000  0.5386200000000 1.0
C      1  0.5082270000000  0.5447590000000  0.4507600000000 1.0
C      1  0.4024900000000  0.4211360000000  0.4640440000000 1.0
C      1  0.5727420000000  0.6195420000000  0.5098080000000 1.0
C      1  0.5701820000000  0.4141680000000  0.4585540000000 1.0
C      1  0.4728620000000  0.4470640000000  0.4645020000000 1.0
C      1  0.5207330000000  0.5830570000000  0.5525570000000 1.0
C      1  0.6154890000000  0.5049310000000  0.5617190000000 1.0
C      1  0.4535340000000  0.4926590000000  0.5164560000000 1.0
C      1  0.4729680000000  0.6305210000000  0.4266800000000 1.0
C      1  0.5371890000000  0.5015640000000  0.6336910000000 1.0
C      1  0.4039080000000  0.5306230000000  0.5540290000000 1.0
C      1  0.5710600000000  0.5915160000000  0.5130310000000 1.0
C      1  0.3584300000000  0.4143250000000  0.4907920000000 1.0
C      1  0.4125920000000  0.4020470000000  0.4462260000000 1.0
C      1  0.6152220000000  0.5084990000000  0.5136210000000 1.0
C      1  0.5667170000000  0.5669070000000  0.5617690000000 1.0
C      1  0.5546450000000  0.5005600000000  0.4680260000000 1.0
C      1  0.5733000000000  0.5751200000000  0.4017950000000 1.0
C      1  0.5473370000000  0.4714520000000  0.4230470000000 1.0
C      1  0.5841200000000  0.5559730000000  0.5424650000000 1.0
C      1  0.4285220000000  0.3816080000000  0.4401180000000 1.0
C      1  0.3753370000000  0.4206490000000  0.4710480000000 1.0
C      1  0.4788880000000  0.4708720000000  0.5759250000000 1.0
C      1  0.5639250000000  0.4757990000000  0.6000270000000 1.0
C      1  0.4075380000000  0.4855780000000  0.5048300000000 1.0
C      1  0.5359980000000  0.6200700000000  0.4561870000000 1.0
C      1  0.4173450000000  0.5631250000000  0.4990510000000 1.0
C      1  0.4202510000000  0.5539050000000  0.5478140000000 1.0
C      1  0.4987510000000  0.6073940000000  0.5180240000000 1.0
C      1  0.5821290000000  0.4665390000000  0.4558580000000 1.0
C      1  0.5296290000000  0.3701740000000  0.4881770000000 1.0
C      1  0.4565370000000  0.5724900000000  0.3845700000000 1.0
C      1  0.5672030000000  0.3756260000000  0.4232450000000 1.0
C      1  0.5905530000000  0.5705940000000  0.5189170000000 1.0
C      1  0.5028750000000  0.6239520000000  0.4943220000000 1.0
C      1  0.5297180000000  0.4870670000000  0.4736710000000 1.0
C      1  0.4733530000000  0.5800700000000  0.4507310000000 1.0
C      1  0.4761340000000  0.3916170000000  0.5399720000000 1.0
C      1  0.5177550000000  0.5656940000000  0.4671750000000 1.0
C      1  0.4662210000000  0.4354580000000  0.4894380000000 1.0
C      1  0.5375300000000  0.4692250000000  0.5919830000000 1.0
C      1  0.4492880000000  0.5154980000000  0.6214040000000 1.0
C      1  0.5743870000000  0.4825330000000  0.4308510000000 1.0
C      1  0.4285890000000  0.3825850000000  0.5102440000000 1.0
C      1  0.5745450000000  0.4818140000000  0.4797300000000 1.0
C      1  0.5139960000000  0.4175250000000  0.4937660000000 1.0
C      1  0.5140650000000  0.5458610000000  0.4235080000000 1.0
C      1  0.4143620000000  0.5357480000000  0.3622920000000 1.0
C      1  0.5019510000000  0.5183120000000  0.4894890000000 1.0
C      1  0.4495050000000  0.4051420000000  0.6700220000000 1.0
C      1  0.5607970000000  0.4918130000000  0.6235280000000 1.0
C      1  0.5659040000000  0.5296420000000  0.4146130000000 1.0
C      1  0.4361220000000  0.6046310000000  0.5149570000000 1.0
C      1  0.4741330000000  0.6380570000000  0.4524490000000 1.0
C      1  0.4643600000000  0.6005310000000  0.3855050000000 1.0
C      1  0.5240590000000  0.4442600000000  0.4959070000000 1.0
C      1  0.4306450000000  0.5672000000000  0.3956990000000 1.0
C      1  0.5490710000000  0.4930420000000  0.3780070000000 1.0
C      1  0.4424220000000  0.4206290000000  0.5990210000000 1.0
C      1  0.4192960000000  0.4421120000000  0.4732130000000 1.0
C      1  0.4999260000000  0.5141630000000  0.6014440000000 1.0
C      1  0.4822630000000  0.6337330000000  0.4776500000000 1.0
C      1  0.5369660000000  0.3617920000000  0.5353630000000 1.0
C      1  0.5486860000000  0.6088630000000  0.4352530000000 1.0
C      1  0.5044810000000  0.4727650000000  0.5616120000000 1.0
C      1  0.4090900000000  0.5086900000000  0.5714700000000 1.0
C      1  0.4785920000000  0.5539960000000  0.3881650000000 1.0
C      1  0.3925680000000  0.5368900000000  0.4593360000000 1.0
C      1  0.5348630000000  0.3799600000000  0.5544670000000 1.0
C      1  0.4311150000000  0.4643720000000  0.5617150000000 1.0
C      1  0.5462370000000  0.3590190000000  0.4220190000000 1.0
C      1  0.3867080000000  0.5223910000000  0.5327340000000 1.0
C      1  0.4137980000000  0.4036080000000  0.5214310000000 1.0
C      1  0.6055290000000  0.5185560000000  0.4427870000000 1.0
C      1  0.3866320000000  0.4007130000000  0.5277250000000 1.0
C      1  0.5326230000000  0.4508230000000  0.5236960000000 1.0
C      1  0.4777490000000  0.4511060000000  0.4392120000000 1.0
C      1  0.5112460000000  0.5075910000000  0.6270310000000 1.0
C      1  0.4952330000000  0.5620960000000  0.4100930000000 1.0
C      1  0.6027960000000  0.5120010000000  0.5386070000000 1.0
C      1  0.4267140000000  0.4290940000000  0.5251030000000 1.0
C      1  0.4615350000000  0.6176950000000  0.3645730000000 1.0
C      1  0.4744290000000  0.5562620000000  0.4979340000000 1.0
C      1  0.4984500000000  0.5416210000000  0.5035360000000 1.0
C      1  0.4535820000000  0.4156120000000  0.6465080000000 1.0
C      1  0.4339960000000  0.4751830000000  0.5056800000000 1.0
C      1  0.4883940000000  0.5055820000000  0.3897660000000 1.0
END
