TITL C-627107-135-1740 1.57405084810769e-05 125000 -1205.29531170857 0 0 195 (C1) n - 1
REM
REM in /home/nfs/bkarasulu/CARBON/AIRSS/Generating-Clusters/LCBOP/Only-C1/SD-CG/FIRE-CG
REM
REM
REM
REM
REM
REM ./C.cell (11c1c37f851c82e70ff6c80c92926a4b)
REM AIRSS Version 0.9.1 bugfix July 2018 build 013d7b7c2542+ Fri, 06 Jul 2018 19:26:36 +0100
REM compiler GCC version 9.2.1 20190827 (Red Hat 9.2.1-1)
REM options -cpp -mtune=generic -march=x86-64 -g -O0 -fpre-include=/usr/include/finclude/math-vector-fortran.h
REM seed 157739490 -1669039614 1337114420 819221007 -194831576 -949483933 1947240743 -1903162337 -179513869 1331633039 -1656650296 1774251976 2125902927 800287544 -472284080 1135410450 -2060630389 911536759 -2105013996 -2107862722 2096921551 760609912 201919066 -575586951 1878402184 1942863342 -2020506273 -181089575 1153573340 1548745925 -1461250232 922294640 847924831
REM
CELL 1.54180   50.00000   50.00000   50.00000   90.00000   90.00000   90.00000
LATT -1
SFAC C  
C      1  0.4030050000000  0.5939040000000  0.4585340000000 1.0
C      1  0.5440020000000  0.4465790000000  0.4531920000000 1.0
C      1  0.4773130000000  0.4464500000000  0.5906630000000 1.0
C      1  0.5542530000000  0.5587020000000  0.5883550000000 1.0
C      1  0.5723780000000  0.4057870000000  0.5115220000000 1.0
C      1  0.3992950000000  0.4500360000000  0.5062090000000 1.0
C      1  0.5163790000000  0.5133200000000  0.4073120000000 1.0
C      1  0.4190160000000  0.5816410000000  0.4785330000000 1.0
C      1  0.3912980000000  0.5237010000000  0.3753180000000 1.0
C      1  0.5288790000000  0.5764730000000  0.4175860000000 1.0
C      1  0.4445990000000  0.4584090000000  0.5203130000000 1.0
C      1  0.5436890000000  0.4629760000000  0.4768540000000 1.0
C      1  0.5787710000000  0.5595260000000  0.5354420000000 1.0
C      1  0.4943150000000  0.5864270000000  0.4485630000000 1.0
C      1  0.5801070000000  0.4833180000000  0.3706000000000 1.0
C      1  0.4582480000000  0.5885760000000  0.5722920000000 1.0
C      1  0.4493920000000  0.5441340000000  0.4670510000000 1.0
C      1  0.5411700000000  0.5980270000000  0.5297240000000 1.0
C      1  0.4772520000000  0.3944700000000  0.5258390000000 1.0
C      1  0.5393460000000  0.5355050000000  0.5936090000000 1.0
C      1  0.6190100000000  0.4285440000000  0.5077110000000 1.0
C      1  0.4625900000000  0.4662130000000  0.3827150000000 1.0
C      1  0.5686260000000  0.4218380000000  0.3873220000000 1.0
C      1  0.5665680000000  0.4797250000000  0.5358160000000 1.0
C      1  0.5189700000000  0.4330800000000  0.4569520000000 1.0
C      1  0.3990000000000  0.5801020000000  0.4114980000000 1.0
C      1  0.4014740000000  0.5371700000000  0.4641610000000 1.0
C      1  0.5604870000000  0.4310630000000  0.4347800000000 1.0
C      1  0.4743820000000  0.3894410000000  0.5753490000000 1.0
C      1  0.3926030000000  0.5184950000000  0.5689190000000 1.0
C      1  0.4623620000000  0.4161420000000  0.5176650000000 1.0
C      1  0.4696590000000  0.5187300000000  0.5559020000000 1.0
C      1  0.4407550000000  0.4725170000000  0.6127610000000 1.0
C      1  0.5140580000000  0.5214670000000  0.4922040000000 1.0
C      1  0.5659820000000  0.4801070000000  0.3922750000000 1.0
C      1  0.5431860000000  0.5518660000000  0.4718390000000 1.0
C      1  0.4981340000000  0.5142930000000  0.4318820000000 1.0
C      1  0.5513530000000  0.4806160000000  0.4144340000000 1.0
C      1  0.5115380000000  0.4956590000000  0.5043180000000 1.0
C      1  0.5404750000000  0.5306540000000  0.4901170000000 1.0
C      1  0.5972260000000  0.4331770000000  0.4637350000000 1.0
C      1  0.5458700000000  0.5232330000000  0.5440360000000 1.0
C      1  0.4323210000000  0.5818890000000  0.5824740000000 1.0
C      1  0.5852870000000  0.4778160000000  0.5569490000000 1.0
C      1  0.5258910000000  0.4374670000000  0.6023830000000 1.0
C      1  0.4236030000000  0.5534560000000  0.4734480000000 1.0
C      1  0.4918780000000  0.4891890000000  0.5229100000000 1.0
C      1  0.5235520000000  0.4357030000000  0.5486550000000 1.0
C      1  0.5624910000000  0.6309900000000  0.4876800000000 1.0
C      1  0.4024400000000  0.5479540000000  0.3756620000000 1.0
C      1  0.4554660000000  0.5383320000000  0.3904550000000 1.0
C      1  0.4728050000000  0.5081870000000  0.5303620000000 1.0
C      1  0.4441180000000  0.5218230000000  0.6018090000000 1.0
C      1  0.5596320000000  0.4576940000000  0.5201120000000 1.0
C      1  0.5406170000000  0.5298610000000  0.4190780000000 1.0
C      1  0.5414940000000  0.4119410000000  0.5087730000000 1.0
C      1  0.3834380000000  0.5521870000000  0.4479290000000 1.0
C      1  0.4431480000000  0.5628900000000  0.3984230000000 1.0
C      1  0.4990700000000  0.4258250000000  0.5951990000000 1.0
C      1  0.4465870000000  0.5058800000000  0.5168850000000 1.0
C      1  0.5285700000000  0.4039130000000  0.4079010000000 1.0
C      1  0.4281410000000  0.4551970000000  0.5700580000000 1.0
C      1  0.5078380000000  0.5783830000000  0.5733800000000 1.0
C      1  0.4150700000000  0.5658390000000  0.3932420000000 1.0
C      1  0.4216000000000  0.3879940000000  0.4988570000000 1.0
C      1  0.3856980000000  0.4928510000000  0.4154550000000 1.0
C      1  0.3978710000000  0.4790380000000  0.5040830000000 1.0
C      1  0.4986110000000  0.4039620000000  0.5758100000000 1.0
C      1  0.4643230000000  0.5124400000000  0.3979080000000 1.0
C      1  0.4382360000000  0.5844000000000  0.5268950000000 1.0
C      1  0.6244340000000  0.5388260000000  0.5366190000000 1.0
C      1  0.4943590000000  0.4673250000000  0.5789920000000 1.0
C      1  0.4959140000000  0.5360470000000  0.6116710000000 1.0
C      1  0.5265680000000  0.3875900000000  0.4639960000000 1.0
C      1  0.5336420000000  0.5774940000000  0.4826130000000 1.0
C      1  0.5101960000000  0.5905770000000  0.4719600000000 1.0
C      1  0.6189270000000  0.5226410000000  0.4690320000000 1.0
C      1  0.3971350000000  0.5433990000000  0.5775840000000 1.0
C      1  0.4169920000000  0.4320720000000  0.5564580000000 1.0
C      1  0.5662440000000  0.4590510000000  0.4928430000000 1.0
C      1  0.5628440000000  0.4983530000000  0.4561470000000 1.0
C      1  0.4720880000000  0.5460680000000  0.4835630000000 1.0
C      1  0.5965600000000  0.4177250000000  0.5228280000000 1.0
C      1  0.4483960000000  0.4545300000000  0.5917230000000 1.0
C      1  0.5802150000000  0.5971560000000  0.5616670000000 1.0
C      1  0.4681560000000  0.4438040000000  0.5222030000000 1.0
C      1  0.5611420000000  0.5140910000000  0.5000960000000 1.0
C      1  0.6262560000000  0.4572120000000  0.5088100000000 1.0
C      1  0.5814730000000  0.5517940000000  0.5805760000000 1.0
C      1  0.4557170000000  0.5818830000000  0.4154720000000 1.0
C      1  0.5520550000000  0.5977960000000  0.5571040000000 1.0
C      1  0.5914170000000  0.4551240000000  0.4802420000000 1.0
C      1  0.5231240000000  0.5372240000000  0.6161200000000 1.0
C      1  0.4885280000000  0.5122990000000  0.5976580000000 1.0
C      1  0.5754290000000  0.3892800000000  0.4521750000000 1.0
C      1  0.4979590000000  0.6217510000000  0.5229030000000 1.0
C      1  0.4147690000000  0.4926730000000  0.4838750000000 1.0
C      1  0.5724980000000  0.6039660000000  0.4904700000000 1.0
C      1  0.5381050000000  0.6417470000000  0.4945100000000 1.0
C      1  0.5180100000000  0.4743000000000  0.4864440000000 1.0
C      1  0.4542230000000  0.4478260000000  0.4022390000000 1.0
C      1  0.5130000000000  0.5995590000000  0.5313110000000 1.0
C      1  0.4342920000000  0.4987590000000  0.6147930000000 1.0
C      1  0.5813160000000  0.4166230000000  0.4480680000000 1.0
C      1  0.5053020000000  0.4866140000000  0.3956830000000 1.0
C      1  0.4268090000000  0.4068910000000  0.5644200000000 1.0
C      1  0.3852780000000  0.5028280000000  0.3907730000000 1.0
C      1  0.6127790000000  0.5767200000000  0.5012650000000 1.0
C      1  0.4969430000000  0.4784030000000  0.4668060000000 1.0
C      1  0.6125640000000  0.4732640000000  0.4885800000000 1.0
C      1  0.5220120000000  0.3937010000000  0.5263150000000 1.0
C      1  0.5159810000000  0.4076520000000  0.5528150000000 1.0
C      1  0.5408000000000  0.4379760000000  0.5262650000000 1.0
C      1  0.5937930000000  0.5860860000000  0.4816180000000 1.0
C      1  0.6113930000000  0.5465830000000  0.4585150000000 1.0
C      1  0.4478780000000  0.3920810000000  0.5718770000000 1.0
C      1  0.5919130000000  0.5232780000000  0.5768080000000 1.0
C      1  0.3907520000000  0.5781060000000  0.4382210000000 1.0
C      1  0.4876840000000  0.5597660000000  0.5311350000000 1.0
C      1  0.5020770000000  0.5396560000000  0.4463820000000 1.0
C      1  0.4387280000000  0.4073580000000  0.5051500000000 1.0
C      1  0.4242200000000  0.4311780000000  0.4633050000000 1.0
C      1  0.4061920000000  0.4369120000000  0.4821850000000 1.0
C      1  0.4448390000000  0.4943310000000  0.4876100000000 1.0
C      1  0.4963120000000  0.5354160000000  0.4743050000000 1.0
C      1  0.4916040000000  0.3720420000000  0.4868810000000 1.0
C      1  0.4316400000000  0.5313830000000  0.5223640000000 1.0
C      1  0.5773180000000  0.5040870000000  0.4795830000000 1.0
C      1  0.5043340000000  0.4101820000000  0.4208150000000 1.0
C      1  0.6237830000000  0.5582020000000  0.5176920000000 1.0
C      1  0.4890730000000  0.4619530000000  0.5313250000000 1.0
C      1  0.4314960000000  0.5568850000000  0.5310770000000 1.0
C      1  0.5524210000000  0.5452680000000  0.4441020000000 1.0
C      1  0.5932580000000  0.5691480000000  0.4572890000000 1.0
C      1  0.4819620000000  0.5775590000000  0.5874300000000 1.0
C      1  0.5465760000000  0.4560550000000  0.6011130000000 1.0
C      1  0.4506710000000  0.4569700000000  0.4301060000000 1.0
C      1  0.3976100000000  0.4956500000000  0.5534590000000 1.0
C      1  0.5270250000000  0.4129470000000  0.4778560000000 1.0
C      1  0.5058350000000  0.4375700000000  0.4304560000000 1.0
C      1  0.4502000000000  0.5474900000000  0.6133180000000 1.0
C      1  0.5374400000000  0.5808250000000  0.5772640000000 1.0
C      1  0.4594920000000  0.4093770000000  0.4322480000000 1.0
C      1  0.6269210000000  0.4659630000000  0.5359120000000 1.0
C      1  0.4050010000000  0.3680090000000  0.4936260000000 1.0
C      1  0.5965040000000  0.4307200000000  0.5488010000000 1.0
C      1  0.6052370000000  0.4580740000000  0.5529950000000 1.0
C      1  0.6058300000000  0.5003180000000  0.4807550000000 1.0
C      1  0.5715510000000  0.5672830000000  0.4382310000000 1.0
C      1  0.5048690000000  0.4565230000000  0.5540980000000 1.0
C      1  0.4769550000000  0.5575920000000  0.6082540000000 1.0
C      1  0.4777520000000  0.4901400000000  0.3853490000000 1.0
C      1  0.4107370000000  0.5659610000000  0.5823600000000 1.0
C      1  0.5121420000000  0.4919510000000  0.4463720000000 1.0
C      1  0.4699560000000  0.5925450000000  0.4358710000000 1.0
C      1  0.4020500000000  0.4370730000000  0.5320550000000 1.0
C      1  0.4579220000000  0.6467170000000  0.5345520000000 1.0
C      1  0.4710100000000  0.6224880000000  0.5337860000000 1.0
C      1  0.5022100000000  0.5781020000000  0.5453620000000 1.0
C      1  0.5898720000000  0.5705570000000  0.5595100000000 1.0
C      1  0.5080010000000  0.5654160000000  0.4341510000000 1.0
C      1  0.4289270000000  0.5938340000000  0.5018670000000 1.0
C      1  0.4648880000000  0.5156650000000  0.5827560000000 1.0
C      1  0.4362810000000  0.4820910000000  0.5320880000000 1.0
C      1  0.5005780000000  0.4871620000000  0.5987280000000 1.0
C      1  0.5415470000000  0.4896680000000  0.4395600000000 1.0
C      1  0.5806950000000  0.4947810000000  0.5803030000000 1.0
C      1  0.5515660000000  0.3772220000000  0.4565770000000 1.0
C      1  0.5628280000000  0.4782910000000  0.5974510000000 1.0
C      1  0.5108260000000  0.4803190000000  0.6233660000000 1.0
C      1  0.4522640000000  0.5300630000000  0.4429090000000 1.0
C      1  0.3914530000000  0.4954110000000  0.4412800000000 1.0
C      1  0.4568410000000  0.5990060000000  0.5444470000000 1.0
C      1  0.4216420000000  0.4800500000000  0.5562260000000 1.0
C      1  0.4987900000000  0.3818790000000  0.5129940000000 1.0
C      1  0.6142120000000  0.5251320000000  0.5577080000000 1.0
C      1  0.5554850000000  0.5831280000000  0.4204840000000 1.0
C      1  0.5356700000000  0.5199200000000  0.5700740000000 1.0
C      1  0.5134770000000  0.6393090000000  0.5061970000000 1.0
C      1  0.4464170000000  0.4322560000000  0.4462610000000 1.0
C      1  0.4674300000000  0.5091790000000  0.4278310000000 1.0
C      1  0.4020570000000  0.5085360000000  0.4637280000000 1.0
C      1  0.5525460000000  0.4195280000000  0.4093690000000 1.0
C      1  0.4585680000000  0.4823140000000  0.4405610000000 1.0
C      1  0.4667600000000  0.4832560000000  0.4690590000000 1.0
C      1  0.3868920000000  0.4926830000000  0.5268620000000 1.0
C      1  0.3884810000000  0.3485360000000  0.4883850000000 1.0
C      1  0.4983760000000  0.3806150000000  0.4601520000000 1.0
C      1  0.5541280000000  0.5486250000000  0.5353430000000 1.0
C      1  0.5077270000000  0.4603030000000  0.4113340000000 1.0
C      1  0.4564760000000  0.4188670000000  0.4040190000000 1.0
C      1  0.4740720000000  0.5567330000000  0.5087540000000 1.0
C      1  0.5576320000000  0.5044100000000  0.5267310000000 1.0
C      1  0.4850980000000  0.3953110000000  0.4378180000000 1.0
C      1  0.5500710000000  0.5903320000000  0.5028990000000 1.0
END
