TITL C-627113-6568-712 0.00125397467628392 125000 -322.569665629435 0 0 54 (C1) n - 1
REM
REM in /home/nfs/bkarasulu/CARBON/AIRSS/Generating-Clusters/LCBOP/Only-C1/SD-CG/FIRE-CG
REM
REM
REM
REM
REM
REM ./C.cell (11c1c37f851c82e70ff6c80c92926a4b)
REM AIRSS Version 0.9.1 bugfix July 2018 build 013d7b7c2542+ Fri, 06 Jul 2018 19:26:36 +0100
REM compiler GCC version 9.2.1 20190827 (Red Hat 9.2.1-1)
REM options -cpp -mtune=generic -march=x86-64 -g -O0 -fpre-include=/usr/include/finclude/math-vector-fortran.h
REM seed -1369111321 -991137986 631975828 -246236904 308991211 1233897381 -513392124 1512645852 907344734 -1945494558 1353959058 547013873 -1487732086 -44068307 271031851 -595258134 -1559331109 576306827 -663279254 -2098657020 -2024713089 943296197 240780201 -1761994564 -1888586962 -1332917477 -1491065401 345859520 -931452185 -1731474146 -1889872149 902392828 1402403631
REM
CELL 1.54180   50.00000   50.00000   50.00000   90.00000   90.00000   90.00000
LATT -1
SFAC C  
C      1  0.4988970000000  0.5479550000000  0.4096860000000 1.0
C      1  0.5298260000000  0.5218700000000  0.4453340000000 1.0
C      1  0.5908610000000  0.4486770000000  0.4147060000000 1.0
C      1  0.5177590000000  0.4734480000000  0.4457020000000 1.0
C      1  0.5457480000000  0.3948240000000  0.4143320000000 1.0
C      1  0.5428830000000  0.5852640000000  0.4832200000000 1.0
C      1  0.4694010000000  0.5975300000000  0.5136380000000 1.0
C      1  0.4786040000000  0.5153650000000  0.5474230000000 1.0
C      1  0.5114690000000  0.4267640000000  0.4356110000000 1.0
C      1  0.5337280000000  0.5977270000000  0.5049240000000 1.0
C      1  0.5430360000000  0.5188480000000  0.4912720000000 1.0
C      1  0.5400040000000  0.5348370000000  0.4684860000000 1.0
C      1  0.5343020000000  0.4980330000000  0.5051970000000 1.0
C      1  0.5011340000000  0.4952770000000  0.5848520000000 1.0
C      1  0.4581460000000  0.4421740000000  0.5090140000000 1.0
C      1  0.4259670000000  0.5201620000000  0.5303600000000 1.0
C      1  0.4886300000000  0.4147010000000  0.4794930000000 1.0
C      1  0.5186870000000  0.5935950000000  0.5279620000000 1.0
C      1  0.4415190000000  0.5440950000000  0.5338060000000 1.0
C      1  0.5062750000000  0.4602240000000  0.4693250000000 1.0
C      1  0.5139240000000  0.5353480000000  0.4268420000000 1.0
C      1  0.4690320000000  0.5417800000000  0.5431130000000 1.0
C      1  0.5874780000000  0.4229550000000  0.4086650000000 1.0
C      1  0.5362120000000  0.4944240000000  0.4418480000000 1.0
C      1  0.4700510000000  0.4191690000000  0.4981830000000 1.0
C      1  0.4609710000000  0.4947990000000  0.5427000000000 1.0
C      1  0.4385600000000  0.4403640000000  0.5279600000000 1.0
C      1  0.5019230000000  0.4578100000000  0.5598880000000 1.0
C      1  0.4958760000000  0.4703960000000  0.4939190000000 1.0
C      1  0.5030400000000  0.5044920000000  0.5571920000000 1.0
C      1  0.5030080000000  0.4316110000000  0.4627340000000 1.0
C      1  0.5447580000000  0.5623000000000  0.4699030000000 1.0
C      1  0.5531830000000  0.5907440000000  0.5647560000000 1.0
C      1  0.5297120000000  0.5838800000000  0.5531150000000 1.0
C      1  0.5160160000000  0.4531400000000  0.4249030000000 1.0
C      1  0.4211520000000  0.4902680000000  0.5735770000000 1.0
C      1  0.4485400000000  0.4880750000000  0.4955450000000 1.0
C      1  0.4310700000000  0.5052550000000  0.5066650000000 1.0
C      1  0.4631320000000  0.4651120000000  0.5916930000000 1.0
C      1  0.4434550000000  0.5905670000000  0.5134230000000 1.0
C      1  0.5621650000000  0.4875520000000  0.4334530000000 1.0
C      1  0.5099150000000  0.4793620000000  0.5418580000000 1.0
C      1  0.5706580000000  0.4022600000000  0.4082750000000 1.0
C      1  0.4902650000000  0.4680530000000  0.5848470000000 1.0
C      1  0.4866730000000  0.5635640000000  0.5456950000000 1.0
C      1  0.5229070000000  0.4040150000000  0.4246450000000 1.0
C      1  0.4675550000000  0.4674370000000  0.4989780000000 1.0
C      1  0.4321020000000  0.5684790000000  0.5235660000000 1.0
C      1  0.5812550000000  0.4717390000000  0.4238600000000 1.0
C      1  0.4154840000000  0.5069810000000  0.5532400000000 1.0
C      1  0.5137840000000  0.4809840000000  0.5138480000000 1.0
C      1  0.4384340000000  0.4747580000000  0.5871180000000 1.0
C      1  0.4909690000000  0.5855940000000  0.5266500000000 1.0
C      1  0.5098650000000  0.5653610000000  0.5630030000000 1.0
END
