TITL C-627110-360-1066 9971.39218693553 125000 -1203.5612647737 0 0 197 (C1) n - 1
REM
REM in /home/nfs/bkarasulu/CARBON/AIRSS/Generating-Clusters/LCBOP/Only-C1/SD-CG/FIRE-CG
REM
REM
REM
REM
REM
REM ./C.cell (11c1c37f851c82e70ff6c80c92926a4b)
REM AIRSS Version 0.9.1 bugfix July 2018 build 013d7b7c2542+ Fri, 06 Jul 2018 19:26:36 +0100
REM compiler GCC version 9.2.1 20190827 (Red Hat 9.2.1-1)
REM options -cpp -mtune=generic -march=x86-64 -g -O0 -fpre-include=/usr/include/finclude/math-vector-fortran.h
REM seed 92203498 -1734766546 -514345097 -460994828 -1027336654 -139434114 934738918 -1471789423 -1013803749 -1899237999 415653563 1957467039 -1215554921 -540322390 -2027976521 -314992995 -1033119547 405191975 213785252 1425027556 -405587830 1908113876 -240915219 -156235751 -1022207383 1134037459 -207917166 -1615258684 -425388334 1534959147 -1531406953 2038474929 -743729287
REM
CELL 1.54180   50.00000   50.00000   50.00000   90.00000   90.00000   90.00000
LATT -1
SFAC C  
C      1  0.5683110000000  0.5048020000000  0.5907480000000 1.0
C      1  0.5505680000000  0.5624690000000  0.3917600000000 1.0
C      1  0.5583360000000  0.4959410000000  0.4241400000000 1.0
C      1  0.5651690000000  0.4368010000000  0.5805510000000 1.0
C      1  0.5450320000000  0.4566790000000  0.5759810000000 1.0
C      1  0.5572380000000  0.4404470000000  0.5077290000000 1.0
C      1  0.4916540000000  0.3981480000000  0.4135900000000 1.0
C      1  0.3815510000000  0.5375930000000  0.4572060000000 1.0
C      1  0.5828800000000  0.4489510000000  0.4331020000000 1.0
C      1  0.5470120000000  0.4832910000000  0.4813530000000 1.0
C      1  0.4642900000000  0.4706830000000  0.5956010000000 1.0
C      1  0.3976740000000  0.4861580000000  0.4816290000000 1.0
C      1  0.5480100000000  0.6156510000000  0.6048490000000 1.0
C      1  0.4571620000000  0.5304550000000  0.5062500000000 1.0
C      1  0.4060880000000  0.5709920000000  0.5655130000000 1.0
C      1  0.4300700000000  0.5343520000000  0.5204220000000 1.0
C      1  0.5081430000000  0.5135240000000  0.5692450000000 1.0
C      1  0.4699660000000  0.3904550000000  0.4724670000000 1.0
C      1  0.6259640000000  0.6302850000000  0.5128180000000 1.0
C      1  0.4301530000000  0.4542860000000  0.5638840000000 1.0
C      1  0.4915410000000  0.4088820000000  0.4664890000000 1.0
C      1  0.4862910000000  0.5321390000000  0.5660040000000 1.0
C      1  0.5529730000000  0.4082590000000  0.4480690000000 1.0
C      1  0.4935260000000  0.4334320000000  0.5778720000000 1.0
C      1  0.5270220000000  0.4661540000000  0.4710640000000 1.0
C      1  0.4798330000000  0.4736180000000  0.4744040000000 1.0
C      1  0.4320860000000  0.4423860000000  0.4169960000000 1.0
C      1  0.4105410000000  0.4291730000000  0.5185440000000 1.0
C      1  0.3561100000000  0.4558200000000  0.5491050000000 1.0
C      1  0.6020090000000  0.5175530000000  0.4556730000000 1.0
C      1  0.4698910000000  0.4584040000000  0.3631370000000 1.0
C      1  0.6266250000000  0.4625470000000  0.4625360000000 1.0
C      1  0.6031110000000  0.4634360000000  0.5112620000000 1.0
C      1  0.4030390000000  0.5623600000000  0.4945680000000 1.0
C      1  0.5386430000000  0.4574560000000  0.5475270000000 1.0
C      1  0.5228030000000  0.5641940000000  0.4523300000000 1.0
C      1  0.4857400000000  0.3948210000000  0.5460420000000 1.0
C      1  0.6644110000000  0.4918080000000  0.4837210000000 1.0
C      1  0.4202770000000  0.3837400000000  0.5015660000000 1.0
C      1  0.4573670000000  0.4603440000000  0.4835800000000 1.0
C      1  0.4445520000000  0.3912870000000  0.4335820000000 1.0
C      1  0.3950430000000  0.5109440000000  0.4971640000000 1.0
C      1  0.4078830000000  0.4959050000000  0.5438970000000 1.0
C      1  0.5610180000000  0.4556240000000  0.5309950000000 1.0
C      1  0.4738680000000  0.4527000000000  0.4358200000000 1.0
C      1  0.4969860000000  0.6131340000000  0.3998520000000 1.0
C      1  0.5833830000000  0.4730360000000  0.5316100000000 1.0
C      1  0.5009650000000  0.5801530000000  0.4617700000000 1.0
C      1  0.5580600000000  0.4110300000000  0.5684630000000 1.0
C      1  0.4606430000000  0.3612180000000  0.5106720000000 1.0
C      1  0.3830350000000  0.5814940000000  0.5757590000000 1.0
C      1  0.5628700000000  0.5194200000000  0.5381890000000 1.0
C      1  0.5355180000000  0.5969780000000  0.5873790000000 1.0
C      1  0.4388870000000  0.5327990000000  0.5825800000000 1.0
C      1  0.4381110000000  0.4593670000000  0.5927190000000 1.0
C      1  0.4784710000000  0.3707600000000  0.4912810000000 1.0
C      1  0.4600020000000  0.4489890000000  0.4115330000000 1.0
C      1  0.5085580000000  0.5156310000000  0.4690760000000 1.0
C      1  0.5158860000000  0.5190870000000  0.5152430000000 1.0
C      1  0.4336300000000  0.4263260000000  0.5026970000000 1.0
C      1  0.5138750000000  0.6046490000000  0.5713940000000 1.0
C      1  0.4400400000000  0.4207440000000  0.5559120000000 1.0
C      1  0.5455390000000  0.5699340000000  0.5897800000000 1.0
C      1  0.4246910000000  0.4075100000000  0.4813980000000 1.0
C      1  0.6059980000000  0.5600250000000  0.5129120000000 1.0
C      1  0.4753330000000  0.5713300000000  0.4543330000000 1.0
C      1  0.5476780000000  0.5525230000000  0.5677670000000 1.0
C      1  0.6119190000000  0.4386820000000  0.5237230000000 1.0
C      1  0.5420500000000  0.5280380000000  0.5175320000000 1.0
C      1  0.4171280000000  0.5593820000000  0.5191780000000 1.0
C      1  0.4658880000000  0.3906780000000  0.4167480000000 1.0
C      1  0.5961040000000  0.5545680000000  0.5390030000000 1.0
C      1  0.5770280000000  0.4060710000000  0.5450490000000 1.0
C      1  0.5054180000000  0.4738880000000  0.5148990000000 1.0
C      1  0.4488190000000  0.5308550000000  0.4746540000000 1.0
C      1  0.5939020000000  0.4906720000000  0.4598440000000 1.0
C      1  0.5756550000000  0.4987310000000  0.5230550000000 1.0
C      1  0.5313870000000  0.4021070000000  0.5623430000000 1.0
C      1  0.5167530000000  0.4439330000000  0.4207830000000 1.0
C      1  0.3910220000000  0.5630560000000  0.4136540000000 1.0
C      1  0.5503490000000  0.5417550000000  0.4939520000000 1.0
C      1  0.5707180000000  0.5476700000000  0.5486660000000 1.0
C      1  0.4110770000000  0.5125420000000  0.5214540000000 1.0
C      1  0.5010390000000  0.5292300000000  0.4263690000000 1.0
C      1  0.4810210000000  0.6162770000000  0.4877340000000 1.0
C      1  0.5344090000000  0.3894410000000  0.5352900000000 1.0
C      1  0.5929750000000  0.4792380000000  0.4864150000000 1.0
C      1  0.3916290000000  0.5969660000000  0.4601810000000 1.0
C      1  0.3911150000000  0.5373760000000  0.4837990000000 1.0
C      1  0.5855020000000  0.5353340000000  0.4410550000000 1.0
C      1  0.6235360000000  0.5196880000000  0.4754200000000 1.0
C      1  0.5552140000000  0.5086010000000  0.5654060000000 1.0
C      1  0.5289320000000  0.4745450000000  0.5909300000000 1.0
C      1  0.4215840000000  0.4534630000000  0.6135700000000 1.0
C      1  0.5963190000000  0.5859610000000  0.5047040000000 1.0
C      1  0.5083550000000  0.4560180000000  0.3954490000000 1.0
C      1  0.3829070000000  0.5447810000000  0.4315140000000 1.0
C      1  0.5382680000000  0.5850420000000  0.3840040000000 1.0
C      1  0.3896090000000  0.4472490000000  0.5132420000000 1.0
C      1  0.4975120000000  0.4992850000000  0.5228580000000 1.0
C      1  0.4787210000000  0.4541370000000  0.3895290000000 1.0
C      1  0.5330470000000  0.5266590000000  0.5702780000000 1.0
C      1  0.4496440000000  0.6096270000000  0.5241500000000 1.0
C      1  0.5607760000000  0.3966700000000  0.5221480000000 1.0
C      1  0.5158360000000  0.3988760000000  0.4798070000000 1.0
C      1  0.3319150000000  0.4551530000000  0.5587640000000 1.0
C      1  0.5028690000000  0.4089740000000  0.5666480000000 1.0
C      1  0.5211860000000  0.5500170000000  0.4270720000000 1.0
C      1  0.4235870000000  0.6052760000000  0.5345410000000 1.0
C      1  0.4082010000000  0.5869610000000  0.4814090000000 1.0
C      1  0.4443260000000  0.3956720000000  0.4616190000000 1.0
C      1  0.5521390000000  0.5349750000000  0.6277700000000 1.0
C      1  0.4907080000000  0.5557620000000  0.5498820000000 1.0
C      1  0.5703600000000  0.5876300000000  0.4921860000000 1.0
C      1  0.4829660000000  0.5475700000000  0.5036890000000 1.0
C      1  0.4758300000000  0.6182710000000  0.4152140000000 1.0
C      1  0.6193740000000  0.5402900000000  0.4958820000000 1.0
C      1  0.4958490000000  0.5654670000000  0.5229370000000 1.0
C      1  0.5715970000000  0.4708410000000  0.4154900000000 1.0
C      1  0.4707320000000  0.6142440000000  0.5422940000000 1.0
C      1  0.4207560000000  0.5518560000000  0.5796330000000 1.0
C      1  0.5931120000000  0.4400270000000  0.5714930000000 1.0
C      1  0.5459110000000  0.5444150000000  0.4128460000000 1.0
C      1  0.4731530000000  0.5282580000000  0.4326460000000 1.0
C      1  0.4017410000000  0.5877870000000  0.4142350000000 1.0
C      1  0.5686470000000  0.4927330000000  0.4958010000000 1.0
C      1  0.4340570000000  0.6090650000000  0.4481180000000 1.0
C      1  0.4697700000000  0.5073550000000  0.5256090000000 1.0
C      1  0.5736030000000  0.5821230000000  0.4642110000000 1.0
C      1  0.5648150000000  0.5245780000000  0.4235710000000 1.0
C      1  0.5432670000000  0.4051920000000  0.4746040000000 1.0
C      1  0.4920000000000  0.6124510000000  0.5582880000000 1.0
C      1  0.4418010000000  0.3797000000000  0.5222330000000 1.0
C      1  0.4385190000000  0.5085670000000  0.4590720000000 1.0
C      1  0.5316450000000  0.4899280000000  0.4329050000000 1.0
C      1  0.5577160000000  0.4625760000000  0.3911260000000 1.0
C      1  0.5992930000000  0.4254490000000  0.5462110000000 1.0
C      1  0.5028340000000  0.5301110000000  0.4918720000000 1.0
C      1  0.5405130000000  0.5528880000000  0.4714940000000 1.0
C      1  0.4575040000000  0.4976560000000  0.5502030000000 1.0
C      1  0.4867600000000  0.4610300000000  0.5800910000000 1.0
C      1  0.6021620000000  0.4449350000000  0.4566190000000 1.0
C      1  0.5074190000000  0.3836710000000  0.5268030000000 1.0
C      1  0.5673640000000  0.5817170000000  0.6311460000000 1.0
C      1  0.4752560000000  0.4791420000000  0.4464740000000 1.0
C      1  0.5184740000000  0.6024720000000  0.3882220000000 1.0
C      1  0.4076600000000  0.6032050000000  0.4368790000000 1.0
C      1  0.4840330000000  0.4315250000000  0.4518740000000 1.0
C      1  0.5113970000000  0.4157970000000  0.4193010000000 1.0
C      1  0.5278620000000  0.4696050000000  0.3520640000000 1.0
C      1  0.5149140000000  0.4542350000000  0.5322090000000 1.0
C      1  0.5038810000000  0.4683350000000  0.4869640000000 1.0
C      1  0.3910280000000  0.4569860000000  0.4859970000000 1.0
C      1  0.5046690000000  0.3794760000000  0.4992410000000 1.0
C      1  0.4631640000000  0.4538430000000  0.5292150000000 1.0
C      1  0.4976930000000  0.5021940000000  0.6159920000000 1.0
C      1  0.4870080000000  0.6425240000000  0.4827360000000 1.0
C      1  0.5147390000000  0.5847470000000  0.5086180000000 1.0
C      1  0.5060150000000  0.4832700000000  0.5743970000000 1.0
C      1  0.5071990000000  0.4707240000000  0.3349230000000 1.0
C      1  0.4044520000000  0.4323620000000  0.4638880000000 1.0
C      1  0.4352970000000  0.4638080000000  0.4673910000000 1.0
C      1  0.5067700000000  0.4295170000000  0.5246480000000 1.0
C      1  0.5315510000000  0.4630600000000  0.3791220000000 1.0
C      1  0.4041660000000  0.4688540000000  0.5529000000000 1.0
C      1  0.4155820000000  0.5785250000000  0.5397980000000 1.0
C      1  0.5139180000000  0.5092350000000  0.4423910000000 1.0
C      1  0.4132450000000  0.4369730000000  0.4366580000000 1.0
C      1  0.4631880000000  0.5464490000000  0.4536140000000 1.0
C      1  0.3818290000000  0.4571700000000  0.5388780000000 1.0
C      1  0.5671050000000  0.4245360000000  0.4319530000000 1.0
C      1  0.6388480000000  0.4928380000000  0.4745100000000 1.0
C      1  0.5502860000000  0.5106290000000  0.6131620000000 1.0
C      1  0.4715850000000  0.4988380000000  0.6009110000000 1.0
C      1  0.4544260000000  0.6086790000000  0.4958510000000 1.0
C      1  0.5945360000000  0.4981570000000  0.5939160000000 1.0
C      1  0.5554870000000  0.5608200000000  0.6157280000000 1.0
C      1  0.4621970000000  0.5160320000000  0.5759340000000 1.0
C      1  0.4066030000000  0.6263060000000  0.5387140000000 1.0
C      1  0.5010920000000  0.5961710000000  0.4854180000000 1.0
C      1  0.6116680000000  0.6088700000000  0.5088030000000 1.0
C      1  0.4605590000000  0.5027380000000  0.4398520000000 1.0
C      1  0.4513010000000  0.4698460000000  0.5486820000000 1.0
C      1  0.5836880000000  0.5628150000000  0.4481850000000 1.0
C      1  0.5632230000000  0.4139950000000  0.4958280000000 1.0
C      1  0.5913270000000  0.4248420000000  0.4761840000000 1.0
C      1  0.4548220000000  0.3983400000000  0.5427690000000 1.0
C      1  0.5504690000000  0.5335260000000  0.6551940000000 1.0
C      1  0.5258350000000  0.4627210000000  0.4418020000000 1.0
C      1  0.4343650000000  0.6010520000000  0.4768220000000 1.0
C      1  0.4212060000000  0.4876130000000  0.4654340000000 1.0
C      1  0.5265950000000  0.4940180000000  0.6126970000000 1.0
C      1  0.5633860000000  0.6080440000000  0.6258790000000 1.0
C      1  0.4547290000000  0.4437540000000  0.5050570000000 1.0
C      1  0.5442460000000  0.5882360000000  0.5064610000000 1.0
C      1  0.4812240000000  0.4655760000000  0.3398490000000 1.0
C      1  0.4553970000000  0.6176290000000  0.4323010000000 1.0
END
