TITL C-627110-360-83 1046.50846685034 125000 -926.647342588069 0 0 152 (C1) n - 1
REM
REM in /home/nfs/bkarasulu/CARBON/AIRSS/Generating-Clusters/LCBOP/Only-C1/SD-CG/FIRE-CG
REM
REM
REM
REM
REM
REM ./C.cell (11c1c37f851c82e70ff6c80c92926a4b)
REM AIRSS Version 0.9.1 bugfix July 2018 build 013d7b7c2542+ Fri, 06 Jul 2018 19:26:36 +0100
REM compiler GCC version 9.2.1 20190827 (Red Hat 9.2.1-1)
REM options -cpp -mtune=generic -march=x86-64 -g -O0 -fpre-include=/usr/include/finclude/math-vector-fortran.h
REM seed -724752115 1356407857 11803477 1914696945 1251527699 2013801822 449073285 568047694 -43355 817740243 -348195527 -106399692 -621707501 -508417879 1676512988 -2069128673 1788366563 -412150753 -1146094617 -2043344661 -1340459454 -1603104354 585301834 804697951 806789436 -804159936 -1421162953 -725559361 -402526583 -1151910067 1927932329 34802867 -1031576725
REM
CELL 1.54180   50.00000   50.00000   50.00000   90.00000   90.00000   90.00000
LATT -1
SFAC C  
C      1  0.5212970000000  0.5583720000000  0.5110610000000 1.0
C      1  0.5813770000000  0.5480890000000  0.5502230000000 1.0
C      1  0.4502410000000  0.5753500000000  0.4855900000000 1.0
C      1  0.5430810000000  0.5775710000000  0.4424550000000 1.0
C      1  0.3995600000000  0.4901200000000  0.4808910000000 1.0
C      1  0.5210060000000  0.5039780000000  0.4365280000000 1.0
C      1  0.4306620000000  0.5070350000000  0.4192660000000 1.0
C      1  0.5249490000000  0.4106500000000  0.5678030000000 1.0
C      1  0.4068370000000  0.4666680000000  0.4662730000000 1.0
C      1  0.5528890000000  0.4365670000000  0.4733770000000 1.0
C      1  0.5720640000000  0.5342270000000  0.4400080000000 1.0
C      1  0.4487690000000  0.5528400000000  0.4436920000000 1.0
C      1  0.5256570000000  0.4597050000000  0.5791450000000 1.0
C      1  0.5675350000000  0.4700900000000  0.3543820000000 1.0
C      1  0.4517480000000  0.5189890000000  0.4942420000000 1.0
C      1  0.4139300000000  0.4884960000000  0.5756560000000 1.0
C      1  0.4388320000000  0.5019620000000  0.5763350000000 1.0
C      1  0.5849300000000  0.5000230000000  0.4978870000000 1.0
C      1  0.4920010000000  0.5994290000000  0.5110820000000 1.0
C      1  0.5397120000000  0.5039380000000  0.4568360000000 1.0
C      1  0.5291200000000  0.5539240000000  0.4526760000000 1.0
C      1  0.4656710000000  0.4136980000000  0.4891130000000 1.0
C      1  0.4768770000000  0.6318300000000  0.4385810000000 1.0
C      1  0.6075690000000  0.4911090000000  0.5495590000000 1.0
C      1  0.4848030000000  0.4187900000000  0.4284710000000 1.0
C      1  0.5427840000000  0.5151640000000  0.5274700000000 1.0
C      1  0.4100740000000  0.3149650000000  0.5497260000000 1.0
C      1  0.4347750000000  0.5538330000000  0.5536210000000 1.0
C      1  0.6233020000000  0.4386030000000  0.4990300000000 1.0
C      1  0.4772280000000  0.4285820000000  0.5580640000000 1.0
C      1  0.5330980000000  0.5176820000000  0.5981110000000 1.0
C      1  0.6134140000000  0.4550260000000  0.4370100000000 1.0
C      1  0.4641620000000  0.4384890000000  0.4263770000000 1.0
C      1  0.5361080000000  0.4936670000000  0.3916960000000 1.0
C      1  0.4360320000000  0.4785670000000  0.4222920000000 1.0
C      1  0.4077300000000  0.5542270000000  0.4740600000000 1.0
C      1  0.4916770000000  0.4622180000000  0.4699240000000 1.0
C      1  0.5681300000000  0.4448950000000  0.4512080000000 1.0
C      1  0.5088850000000  0.4677060000000  0.5577230000000 1.0
C      1  0.5610870000000  0.5406570000000  0.4130480000000 1.0
C      1  0.5391810000000  0.4573080000000  0.4872200000000 1.0
C      1  0.4151770000000  0.3659750000000  0.5381080000000 1.0
C      1  0.4640180000000  0.4927590000000  0.5756860000000 1.0
C      1  0.5204200000000  0.4674770000000  0.5318440000000 1.0
C      1  0.5484540000000  0.4237080000000  0.5572980000000 1.0
C      1  0.6034600000000  0.4540510000000  0.4844400000000 1.0
C      1  0.5434310000000  0.4100550000000  0.4789490000000 1.0
C      1  0.5787690000000  0.5767700000000  0.5519440000000 1.0
C      1  0.4125640000000  0.3402770000000  0.5440050000000 1.0
C      1  0.5362990000000  0.4845550000000  0.4770490000000 1.0
C      1  0.5144170000000  0.4768130000000  0.4046140000000 1.0
C      1  0.5567240000000  0.5324280000000  0.5909200000000 1.0
C      1  0.5247430000000  0.4003850000000  0.4591920000000 1.0
C      1  0.5924930000000  0.5361450000000  0.4600010000000 1.0
C      1  0.4619960000000  0.5786250000000  0.5925810000000 1.0
C      1  0.5087520000000  0.5298380000000  0.5905190000000 1.0
C      1  0.5068430000000  0.4568480000000  0.4483160000000 1.0
C      1  0.3949720000000  0.5367310000000  0.4898400000000 1.0
C      1  0.5544060000000  0.5695960000000  0.4165870000000 1.0
C      1  0.4366220000000  0.4096310000000  0.5446810000000 1.0
C      1  0.6123070000000  0.4730150000000  0.5286390000000 1.0
C      1  0.4449730000000  0.5952230000000  0.5049300000000 1.0
C      1  0.5191570000000  0.4979580000000  0.4951680000000 1.0
C      1  0.5024090000000  0.5477880000000  0.4433120000000 1.0
C      1  0.4443140000000  0.5649700000000  0.5778960000000 1.0
C      1  0.4042570000000  0.4326900000000  0.5044150000000 1.0
C      1  0.5515300000000  0.4505790000000  0.5699400000000 1.0
C      1  0.4775310000000  0.5571980000000  0.4525360000000 1.0
C      1  0.5816230000000  0.5405890000000  0.5225480000000 1.0
C      1  0.4888880000000  0.5363830000000  0.5741070000000 1.0
C      1  0.5243560000000  0.4590820000000  0.4256020000000 1.0
C      1  0.4788150000000  0.5063320000000  0.4239460000000 1.0
C      1  0.4262320000000  0.4622970000000  0.4452900000000 1.0
C      1  0.4880400000000  0.4130570000000  0.5036780000000 1.0
C      1  0.4133650000000  0.4508080000000  0.5244320000000 1.0
C      1  0.5755440000000  0.5255990000000  0.5696840000000 1.0
C      1  0.4440590000000  0.4388810000000  0.4477380000000 1.0
C      1  0.4936360000000  0.5755430000000  0.3870160000000 1.0
C      1  0.4493440000000  0.5323060000000  0.5416010000000 1.0
C      1  0.5512300000000  0.5979370000000  0.4606930000000 1.0
C      1  0.4958300000000  0.5396530000000  0.3551410000000 1.0
C      1  0.5304390000000  0.4932170000000  0.6119340000000 1.0
C      1  0.5134790000000  0.4217530000000  0.5108470000000 1.0
C      1  0.4767520000000  0.5327370000000  0.4919750000000 1.0
C      1  0.5953130000000  0.4513430000000  0.4572150000000 1.0
C      1  0.4369230000000  0.5329990000000  0.4262540000000 1.0
C      1  0.5555070000000  0.5593170000000  0.6001040000000 1.0
C      1  0.3942140000000  0.4616810000000  0.5418760000000 1.0
C      1  0.5386660000000  0.4069970000000  0.5079460000000 1.0
C      1  0.5553950000000  0.4125020000000  0.5312140000000 1.0
C      1  0.5521750000000  0.4817320000000  0.3719200000000 1.0
C      1  0.4847210000000  0.4794880000000  0.5654890000000 1.0
C      1  0.4844360000000  0.4717230000000  0.4940730000000 1.0
C      1  0.4845890000000  0.4821660000000  0.4080780000000 1.0
C      1  0.5697720000000  0.5156270000000  0.5171080000000 1.0
C      1  0.5750350000000  0.5588420000000  0.5014590000000 1.0
C      1  0.5702000000000  0.4722890000000  0.5707060000000 1.0
C      1  0.3936300000000  0.5064260000000  0.5293530000000 1.0
C      1  0.4858740000000  0.5871800000000  0.6009750000000 1.0
C      1  0.5290320000000  0.4916330000000  0.5215140000000 1.0
C      1  0.5736580000000  0.5975650000000  0.5348710000000 1.0
C      1  0.5198260000000  0.5338260000000  0.5265570000000 1.0
C      1  0.3977180000000  0.4880810000000  0.5514730000000 1.0
C      1  0.4819130000000  0.6162570000000  0.4182870000000 1.0
C      1  0.5374610000000  0.5786570000000  0.6045750000000 1.0
C      1  0.4037660000000  0.4055100000000  0.5112630000000 1.0
C      1  0.4983850000000  0.4146170000000  0.5666700000000 1.0
C      1  0.4179320000000  0.5704380000000  0.5385460000000 1.0
C      1  0.4389520000000  0.4580350000000  0.6089230000000 1.0
C      1  0.4988150000000  0.5737480000000  0.5012970000000 1.0
C      1  0.5843280000000  0.4970280000000  0.5651670000000 1.0
C      1  0.4769420000000  0.5307410000000  0.5494780000000 1.0
C      1  0.5959770000000  0.5122950000000  0.4747210000000 1.0
C      1  0.5517290000000  0.4515280000000  0.4288680000000 1.0
C      1  0.4229240000000  0.5906180000000  0.5216070000000 1.0
C      1  0.5175650000000  0.4689310000000  0.6049340000000 1.0
C      1  0.4527870000000  0.4331320000000  0.5451400000000 1.0
C      1  0.4796210000000  0.4869590000000  0.5177960000000 1.0
C      1  0.4772830000000  0.5615460000000  0.4836690000000 1.0
C      1  0.5123160000000  0.5877280000000  0.6047340000000 1.0
C      1  0.4643840000000  0.5028130000000  0.4483540000000 1.0
C      1  0.5045950000000  0.4054300000000  0.4415840000000 1.0
C      1  0.5019890000000  0.5241670000000  0.4251720000000 1.0
C      1  0.4920940000000  0.4609340000000  0.6153030000000 1.0
C      1  0.5472170000000  0.5649180000000  0.5017910000000 1.0
C      1  0.4410580000000  0.4566190000000  0.5315850000000 1.0
C      1  0.4941470000000  0.5180020000000  0.5309800000000 1.0
C      1  0.5673470000000  0.6084020000000  0.5106360000000 1.0
C      1  0.4617110000000  0.4644530000000  0.4124060000000 1.0
C      1  0.3982000000000  0.4429980000000  0.4792290000000 1.0
C      1  0.5011550000000  0.5495040000000  0.3800860000000 1.0
C      1  0.5596210000000  0.6082820000000  0.4844620000000 1.0
C      1  0.3946020000000  0.5105330000000  0.5005640000000 1.0
C      1  0.4491150000000  0.4231500000000  0.4704010000000 1.0
C      1  0.4635800000000  0.6381980000000  0.5195430000000 1.0
C      1  0.4873850000000  0.5976690000000  0.4001910000000 1.0
C      1  0.4171020000000  0.4673570000000  0.5953630000000 1.0
C      1  0.4652530000000  0.4570590000000  0.6155240000000 1.0
C      1  0.6284260000000  0.4495830000000  0.5239850000000 1.0
C      1  0.4429190000000  0.5121190000000  0.5212130000000 1.0
C      1  0.4183930000000  0.3927740000000  0.5316400000000 1.0
C      1  0.5411850000000  0.5227720000000  0.3983400000000 1.0
C      1  0.5000540000000  0.5171010000000  0.4877430000000 1.0
C      1  0.4667510000000  0.6121390000000  0.5122930000000 1.0
C      1  0.5479320000000  0.5313660000000  0.4566620000000 1.0
C      1  0.5964650000000  0.4752810000000  0.5038710000000 1.0
C      1  0.4520010000000  0.4840100000000  0.5264780000000 1.0
C      1  0.4326220000000  0.5640790000000  0.4656780000000 1.0
C      1  0.5227340000000  0.4487670000000  0.5106900000000 1.0
C      1  0.5140280000000  0.5335290000000  0.3993020000000 1.0
C      1  0.5906760000000  0.5586600000000  0.4776650000000 1.0
C      1  0.4484240000000  0.5048470000000  0.4700520000000 1.0
END
