TITL C-627107-135-1073 0.0343492406413985 125000 -564.222058495905 0 0 93 (C1) n - 1
REM
REM in /home/nfs/bkarasulu/CARBON/AIRSS/Generating-Clusters/LCBOP/Only-C1/SD-CG/FIRE-CG
REM
REM
REM
REM
REM
REM ./C.cell (11c1c37f851c82e70ff6c80c92926a4b)
REM AIRSS Version 0.9.1 bugfix July 2018 build 013d7b7c2542+ Fri, 06 Jul 2018 19:26:36 +0100
REM compiler GCC version 9.2.1 20190827 (Red Hat 9.2.1-1)
REM options -cpp -mtune=generic -march=x86-64 -g -O0 -fpre-include=/usr/include/finclude/math-vector-fortran.h
REM seed 595085277 -50403192 -1704030974 -1697739065 1756769294 -1839810122 1079717859 -413626639 -1801798895 -1883953568 970076732 -1637061274 1585944511 -461402888 -1068986858 367476936 182209935 -216845086 1779764129 799914892 -1215845414 -717286541 -276074413 1249621844 868932631 1548881234 -524948658 1337685703 -1308042840 -174058674 1978479656 -373131233 -1357815201
REM
CELL 1.54180   50.00000   50.00000   50.00000   90.00000   90.00000   90.00000
LATT -1
SFAC C  
C      1  0.5118810000000  0.5783970000000  0.4267560000000 1.0
C      1  0.5404550000000  0.3521160000000  0.4848170000000 1.0
C      1  0.4564260000000  0.4189670000000  0.5705470000000 1.0
C      1  0.4447230000000  0.4391500000000  0.5833800000000 1.0
C      1  0.3389180000000  0.4708350000000  0.5984990000000 1.0
C      1  0.4796480000000  0.5246180000000  0.5111860000000 1.0
C      1  0.4357580000000  0.4432000000000  0.4661080000000 1.0
C      1  0.5067180000000  0.5315770000000  0.5117210000000 1.0
C      1  0.5099260000000  0.4752390000000  0.4462170000000 1.0
C      1  0.5576700000000  0.4996240000000  0.4372520000000 1.0
C      1  0.4728600000000  0.5769820000000  0.3648110000000 1.0
C      1  0.5384900000000  0.6051600000000  0.5233740000000 1.0
C      1  0.4805760000000  0.4161600000000  0.5234600000000 1.0
C      1  0.5025110000000  0.5066260000000  0.5854950000000 1.0
C      1  0.4737260000000  0.4781990000000  0.4062580000000 1.0
C      1  0.5137220000000  0.4497170000000  0.5384880000000 1.0
C      1  0.4766110000000  0.3975620000000  0.5023590000000 1.0
C      1  0.4517680000000  0.5509350000000  0.3996990000000 1.0
C      1  0.4150890000000  0.5355950000000  0.4846580000000 1.0
C      1  0.4415590000000  0.4868530000000  0.5641520000000 1.0
C      1  0.5431690000000  0.4147550000000  0.5569600000000 1.0
C      1  0.5591650000000  0.4470130000000  0.5235380000000 1.0
C      1  0.4311140000000  0.4686480000000  0.4603150000000 1.0
C      1  0.4732560000000  0.5855490000000  0.3402010000000 1.0
C      1  0.4956140000000  0.4398140000000  0.5187860000000 1.0
C      1  0.6160040000000  0.5252050000000  0.4779990000000 1.0
C      1  0.5920220000000  0.5129300000000  0.5295670000000 1.0
C      1  0.5277470000000  0.4956650000000  0.5338990000000 1.0
C      1  0.4123060000000  0.5238960000000  0.5095310000000 1.0
C      1  0.6071340000000  0.5514750000000  0.4870840000000 1.0
C      1  0.5906090000000  0.5284230000000  0.5530730000000 1.0
C      1  0.4226350000000  0.5219640000000  0.4597790000000 1.0
C      1  0.5189590000000  0.5230450000000  0.5360920000000 1.0
C      1  0.4165010000000  0.5667120000000  0.4502450000000 1.0
C      1  0.5358270000000  0.5659570000000  0.4942070000000 1.0
C      1  0.5390610000000  0.4365510000000  0.5402220000000 1.0
C      1  0.5188920000000  0.3660270000000  0.4894120000000 1.0
C      1  0.5005820000000  0.5345900000000  0.5773460000000 1.0
C      1  0.4156800000000  0.5189780000000  0.3957890000000 1.0
C      1  0.5252400000000  0.6197650000000  0.5046810000000 1.0
C      1  0.4276540000000  0.4947830000000  0.4576550000000 1.0
C      1  0.5033570000000  0.4640230000000  0.4710400000000 1.0
C      1  0.4923050000000  0.4888080000000  0.5649190000000 1.0
C      1  0.5283470000000  0.5831690000000  0.4724120000000 1.0
C      1  0.5289240000000  0.5049450000000  0.5975700000000 1.0
C      1  0.6082920000000  0.4944530000000  0.5153680000000 1.0
C      1  0.4236760000000  0.5415310000000  0.4379540000000 1.0
C      1  0.5570250000000  0.5647650000000  0.4378800000000 1.0
C      1  0.4425750000000  0.4192680000000  0.4752260000000 1.0
C      1  0.5443160000000  0.3927860000000  0.5717220000000 1.0
C      1  0.5477280000000  0.5790050000000  0.5179390000000 1.0
C      1  0.4616870000000  0.5115720000000  0.5285920000000 1.0
C      1  0.5651800000000  0.4708100000000  0.5099520000000 1.0
C      1  0.5211810000000  0.5404100000000  0.5582550000000 1.0
C      1  0.5299360000000  0.5379050000000  0.4956910000000 1.0
C      1  0.6276820000000  0.5086430000000  0.4990300000000 1.0
C      1  0.4206900000000  0.4992080000000  0.5492770000000 1.0
C      1  0.4023910000000  0.5009370000000  0.3824820000000 1.0
C      1  0.4723580000000  0.5677450000000  0.3911650000000 1.0
C      1  0.5913510000000  0.4766660000000  0.4993500000000 1.0
C      1  0.5477480000000  0.5422220000000  0.5695310000000 1.0
C      1  0.5785630000000  0.5176320000000  0.4432240000000 1.0
C      1  0.4693330000000  0.4113630000000  0.5486000000000 1.0
C      1  0.4924530000000  0.5752990000000  0.4090350000000 1.0
C      1  0.5324840000000  0.5759470000000  0.4454190000000 1.0
C      1  0.4515190000000  0.3966290000000  0.4890120000000 1.0
C      1  0.5949990000000  0.4819580000000  0.4715010000000 1.0
C      1  0.3731000000000  0.4915350000000  0.5643530000000 1.0
C      1  0.3557960000000  0.4811560000000  0.5815210000000 1.0
C      1  0.5355180000000  0.4854460000000  0.4411050000000 1.0
C      1  0.5117930000000  0.4765360000000  0.5475940000000 1.0
C      1  0.4331810000000  0.5136830000000  0.5263470000000 1.0
C      1  0.5862040000000  0.5536530000000  0.5066070000000 1.0
C      1  0.4390000000000  0.4650710000000  0.5811510000000 1.0
C      1  0.5456630000000  0.4921390000000  0.5118740000000 1.0
C      1  0.5513760000000  0.5178890000000  0.4996440000000 1.0
C      1  0.4671180000000  0.4951500000000  0.5529040000000 1.0
C      1  0.4115810000000  0.5632600000000  0.4772200000000 1.0
C      1  0.5709010000000  0.5662500000000  0.5284850000000 1.0
C      1  0.4957230000000  0.4522600000000  0.4936070000000 1.0
C      1  0.3921930000000  0.5015480000000  0.5471530000000 1.0
C      1  0.4973910000000  0.3805680000000  0.4947100000000 1.0
C      1  0.4905410000000  0.4764080000000  0.4260900000000 1.0
C      1  0.3876460000000  0.5167120000000  0.5229010000000 1.0
C      1  0.5763850000000  0.5266820000000  0.5089180000000 1.0
C      1  0.5202490000000  0.6093290000000  0.4800940000000 1.0
C      1  0.5490470000000  0.5229930000000  0.5914090000000 1.0
C      1  0.4362140000000  0.3739690000000  0.4899700000000 1.0
C      1  0.5742770000000  0.5445470000000  0.4370940000000 1.0
C      1  0.5706350000000  0.5496060000000  0.5536130000000 1.0
C      1  0.5989560000000  0.5086350000000  0.4608060000000 1.0
C      1  0.5448130000000  0.3709270000000  0.5859160000000 1.0
C      1  0.4303890000000  0.5370930000000  0.4111500000000 1.0
END
