TITL C-627110-360-444 -19232.4662160498 125000 -1016.93865020361 0 0 167 (C1) n - 1
REM
REM in /home/nfs/bkarasulu/CARBON/AIRSS/Generating-Clusters/LCBOP/Only-C1/SD-CG/FIRE-CG
REM
REM
REM
REM
REM
REM ./C.cell (11c1c37f851c82e70ff6c80c92926a4b)
REM AIRSS Version 0.9.1 bugfix July 2018 build 013d7b7c2542+ Fri, 06 Jul 2018 19:26:36 +0100
REM compiler GCC version 9.2.1 20190827 (Red Hat 9.2.1-1)
REM options -cpp -mtune=generic -march=x86-64 -g -O0 -fpre-include=/usr/include/finclude/math-vector-fortran.h
REM seed 426881035 -632591044 1849401632 -1594483051 -1674187505 811443456 -248442575 -1531599597 -808642462 1121984033 1293042822 -752385247 1328907532 1072224385 905619855 -596663116 -738035642 -692261912 125499909 202419791 -1720913960 809565925 -1869939503 -247941890 2039647269 -1836722651 677022387 -1631986050 765842819 602811797 125629675 1468768888 1732641362
REM
CELL 1.54180   50.00000   50.00000   50.00000   90.00000   90.00000   90.00000
LATT -1
SFAC C  
C      1  0.5200460000000  0.4863880000000  0.4905660000000 1.0
C      1  0.4471050000000  0.5082460000000  0.5950130000000 1.0
C      1  0.4907520000000  0.5887580000000  0.4368410000000 1.0
C      1  0.5368000000000  0.5301960000000  0.5003180000000 1.0
C      1  0.4953640000000  0.5327570000000  0.5319400000000 1.0
C      1  0.5163470000000  0.4773610000000  0.6038400000000 1.0
C      1  0.4751040000000  0.4107190000000  0.6299140000000 1.0
C      1  0.5243720000000  0.5789410000000  0.5870920000000 1.0
C      1  0.4104790000000  0.5507610000000  0.4563310000000 1.0
C      1  0.5287400000000  0.4319760000000  0.4947820000000 1.0
C      1  0.4307200000000  0.5006420000000  0.4665040000000 1.0
C      1  0.5917440000000  0.4226820000000  0.4651170000000 1.0
C      1  0.4608320000000  0.3947290000000  0.4581490000000 1.0
C      1  0.4833670000000  0.4970800000000  0.4287250000000 1.0
C      1  0.4786490000000  0.5369410000000  0.5107790000000 1.0
C      1  0.5769860000000  0.4224500000000  0.4430460000000 1.0
C      1  0.4871230000000  0.3859460000000  0.4959560000000 1.0
C      1  0.5693780000000  0.5559310000000  0.5840700000000 1.0
C      1  0.6148590000000  0.5728280000000  0.5126630000000 1.0
C      1  0.4010440000000  0.4927430000000  0.4272400000000 1.0
C      1  0.5583730000000  0.4260070000000  0.5602850000000 1.0
C      1  0.4554820000000  0.6227050000000  0.4889230000000 1.0
C      1  0.4808890000000  0.5239900000000  0.5545610000000 1.0
C      1  0.6133970000000  0.5671940000000  0.4841260000000 1.0
C      1  0.5474290000000  0.5837770000000  0.5478510000000 1.0
C      1  0.4724290000000  0.4297100000000  0.4866470000000 1.0
C      1  0.4235750000000  0.4055190000000  0.4966180000000 1.0
C      1  0.5369590000000  0.4051250000000  0.4852490000000 1.0
C      1  0.4577270000000  0.4369810000000  0.4242560000000 1.0
C      1  0.6219190000000  0.4925430000000  0.4905170000000 1.0
C      1  0.4476250000000  0.5277030000000  0.3901460000000 1.0
C      1  0.5949610000000  0.4815320000000  0.4871260000000 1.0
C      1  0.5021320000000  0.4586110000000  0.3915670000000 1.0
C      1  0.4237500000000  0.4574110000000  0.5438350000000 1.0
C      1  0.5136720000000  0.5241850000000  0.5994490000000 1.0
C      1  0.5450660000000  0.4249850000000  0.6430380000000 1.0
C      1  0.5556350000000  0.3955170000000  0.5057640000000 1.0
C      1  0.4724830000000  0.5194820000000  0.3824540000000 1.0
C      1  0.6077640000000  0.5036110000000  0.5499580000000 1.0
C      1  0.4895890000000  0.5398320000000  0.4840750000000 1.0
C      1  0.5184960000000  0.5304640000000  0.4476250000000 1.0
C      1  0.5459560000000  0.4990480000000  0.4971410000000 1.0
C      1  0.6273350000000  0.5178510000000  0.4788060000000 1.0
C      1  0.5959490000000  0.4563540000000  0.5309840000000 1.0
C      1  0.4701960000000  0.5075090000000  0.6124860000000 1.0
C      1  0.5417460000000  0.4645560000000  0.5349610000000 1.0
C      1  0.5281640000000  0.5161810000000  0.5761990000000 1.0
C      1  0.4952610000000  0.5677230000000  0.4149150000000 1.0
C      1  0.5045070000000  0.4894550000000  0.4670750000000 1.0
C      1  0.4552220000000  0.5150340000000  0.4668190000000 1.0
C      1  0.5737520000000  0.5008030000000  0.4828250000000 1.0
C      1  0.5204460000000  0.3966160000000  0.4609060000000 1.0
C      1  0.5807160000000  0.5316620000000  0.5803720000000 1.0
C      1  0.4614520000000  0.5897240000000  0.4428910000000 1.0
C      1  0.5098560000000  0.5887840000000  0.5124330000000 1.0
C      1  0.4701030000000  0.4749220000000  0.5735930000000 1.0
C      1  0.4490830000000  0.5935440000000  0.5354930000000 1.0
C      1  0.5441930000000  0.4539520000000  0.4244470000000 1.0
C      1  0.4704020000000  0.4069660000000  0.5051720000000 1.0
C      1  0.4691120000000  0.4433390000000  0.5394370000000 1.0
C      1  0.3820160000000  0.5069150000000  0.4647500000000 1.0
C      1  0.5001700000000  0.4823540000000  0.5115780000000 1.0
C      1  0.3824090000000  0.4721810000000  0.4965110000000 1.0
C      1  0.4995550000000  0.4196260000000  0.6284980000000 1.0
C      1  0.5007500000000  0.5180420000000  0.3875020000000 1.0
C      1  0.3657960000000  0.5991880000000  0.5126560000000 1.0
C      1  0.5891580000000  0.4300950000000  0.4916200000000 1.0
C      1  0.3920200000000  0.4941030000000  0.5141640000000 1.0
C      1  0.5410480000000  0.3913410000000  0.5301470000000 1.0
C      1  0.5817310000000  0.5292420000000  0.4821100000000 1.0
C      1  0.5503970000000  0.5751480000000  0.5759760000000 1.0
C      1  0.4911020000000  0.3883440000000  0.4667920000000 1.0
C      1  0.6059050000000  0.5490220000000  0.5272870000000 1.0
C      1  0.5920470000000  0.4566570000000  0.5010740000000 1.0
C      1  0.4322380000000  0.5856830000000  0.4791600000000 1.0
C      1  0.4181830000000  0.4524130000000  0.4787960000000 1.0
C      1  0.5141660000000  0.4859080000000  0.3944430000000 1.0
C      1  0.5007900000000  0.5853630000000  0.4639380000000 1.0
C      1  0.4297480000000  0.5385210000000  0.4077590000000 1.0
C      1  0.5501490000000  0.5019220000000  0.4265720000000 1.0
C      1  0.5291450000000  0.4497410000000  0.6048110000000 1.0
C      1  0.5142840000000  0.4114480000000  0.4120140000000 1.0
C      1  0.5563010000000  0.6037850000000  0.4871700000000 1.0
C      1  0.4450380000000  0.4012710000000  0.5165280000000 1.0
C      1  0.4138340000000  0.4299240000000  0.5393330000000 1.0
C      1  0.4921840000000  0.5245840000000  0.4337860000000 1.0
C      1  0.5326760000000  0.4393060000000  0.5229150000000 1.0
C      1  0.6084270000000  0.5390710000000  0.4776700000000 1.0
C      1  0.5004730000000  0.4842610000000  0.5389370000000 1.0
C      1  0.4761260000000  0.4487680000000  0.5650330000000 1.0
C      1  0.5461290000000  0.4438830000000  0.5801170000000 1.0
C      1  0.5606740000000  0.5075720000000  0.5440720000000 1.0
C      1  0.5231520000000  0.5322220000000  0.5284100000000 1.0
C      1  0.5436720000000  0.5280710000000  0.4338370000000 1.0
C      1  0.5533790000000  0.5485370000000  0.4170830000000 1.0
C      1  0.4746210000000  0.4857400000000  0.5000690000000 1.0
C      1  0.4559730000000  0.5585510000000  0.4423450000000 1.0
C      1  0.4496210000000  0.5643920000000  0.5388410000000 1.0
C      1  0.4631620000000  0.5449230000000  0.4686130000000 1.0
C      1  0.4855740000000  0.5851810000000  0.4911830000000 1.0
C      1  0.4491680000000  0.6053460000000  0.4646840000000 1.0
C      1  0.4285290000000  0.5507850000000  0.4336900000000 1.0
C      1  0.4227090000000  0.5348840000000  0.5078540000000 1.0
C      1  0.5248300000000  0.4312610000000  0.6257500000000 1.0
C      1  0.5792170000000  0.6026850000000  0.4732020000000 1.0
C      1  0.3911430000000  0.5997620000000  0.5066450000000 1.0
C      1  0.3938070000000  0.4671890000000  0.4372060000000 1.0
C      1  0.5512020000000  0.4280650000000  0.4342920000000 1.0
C      1  0.4111080000000  0.5139740000000  0.5251680000000 1.0
C      1  0.4335980000000  0.4081530000000  0.4679130000000 1.0
C      1  0.4836620000000  0.4955530000000  0.5586250000000 1.0
C      1  0.4162120000000  0.4496600000000  0.4349230000000 1.0
C      1  0.5765730000000  0.5528200000000  0.5243260000000 1.0
C      1  0.3967240000000  0.4475060000000  0.4971340000000 1.0
C      1  0.4789600000000  0.5667660000000  0.5749160000000 1.0
C      1  0.5389230000000  0.5565000000000  0.3956560000000 1.0
C      1  0.4221480000000  0.4333830000000  0.4579220000000 1.0
C      1  0.4777610000000  0.5471420000000  0.4253140000000 1.0
C      1  0.4578860000000  0.4839650000000  0.4231280000000 1.0
C      1  0.5303610000000  0.4077350000000  0.4353390000000 1.0
C      1  0.4534820000000  0.5670230000000  0.4885820000000 1.0
C      1  0.4039090000000  0.4243690000000  0.5116190000000 1.0
C      1  0.5303630000000  0.4808350000000  0.4212890000000 1.0
C      1  0.6142970000000  0.4785380000000  0.5372970000000 1.0
C      1  0.5032320000000  0.5796190000000  0.5670820000000 1.0
C      1  0.4094790000000  0.5439180000000  0.4831430000000 1.0
C      1  0.4233780000000  0.4806850000000  0.5611460000000 1.0
C      1  0.5814590000000  0.4303060000000  0.5401410000000 1.0
C      1  0.5247730000000  0.5712000000000  0.4720670000000 1.0
C      1  0.5002720000000  0.4361930000000  0.4105900000000 1.0
C      1  0.4437940000000  0.4819500000000  0.5821150000000 1.0
C      1  0.5065520000000  0.4828600000000  0.4400290000000 1.0
C      1  0.4179110000000  0.5986420000000  0.5003750000000 1.0
C      1  0.5397740000000  0.4669830000000  0.5635480000000 1.0
C      1  0.4985850000000  0.5017220000000  0.6116350000000 1.0
C      1  0.5960800000000  0.5932820000000  0.5242330000000 1.0
C      1  0.5828670000000  0.5102770000000  0.5614500000000 1.0
C      1  0.5536480000000  0.4880390000000  0.5243520000000 1.0
C      1  0.6192540000000  0.5274280000000  0.5389390000000 1.0
C      1  0.5339800000000  0.5882830000000  0.4937040000000 1.0
C      1  0.5644980000000  0.5425960000000  0.5008840000000 1.0
C      1  0.4501240000000  0.4744520000000  0.5050500000000 1.0
C      1  0.5112860000000  0.5517230000000  0.3952080000000 1.0
C      1  0.4210700000000  0.5096260000000  0.5524110000000 1.0
C      1  0.5189720000000  0.5415420000000  0.4766040000000 1.0
C      1  0.4596710000000  0.5463100000000  0.5626120000000 1.0
C      1  0.5367970000000  0.4166210000000  0.5422320000000 1.0
C      1  0.6012550000000  0.5877900000000  0.4690380000000 1.0
C      1  0.4882420000000  0.4389040000000  0.4638510000000 1.0
C      1  0.4320650000000  0.4763180000000  0.4830070000000 1.0
C      1  0.4075270000000  0.5078930000000  0.4509130000000 1.0
C      1  0.4773450000000  0.4977470000000  0.4745160000000 1.0
C      1  0.5786200000000  0.4134510000000  0.5127180000000 1.0
C      1  0.4501270000000  0.5494360000000  0.5129460000000 1.0
C      1  0.5173510000000  0.5857560000000  0.5407200000000 1.0
C      1  0.4409890000000  0.6115930000000  0.5140320000000 1.0
C      1  0.5138470000000  0.4447950000000  0.4747250000000 1.0
C      1  0.4340040000000  0.4086900000000  0.5421560000000 1.0
C      1  0.6329900000000  0.4831760000000  0.5152290000000 1.0
C      1  0.5295240000000  0.4876630000000  0.5793420000000 1.0
C      1  0.4477800000000  0.4577760000000  0.5273160000000 1.0
C      1  0.4375480000000  0.5268240000000  0.5728120000000 1.0
C      1  0.5707270000000  0.5804860000000  0.5322040000000 1.0
C      1  0.5382120000000  0.5238310000000  0.5510790000000 1.0
C      1  0.4836550000000  0.4377420000000  0.4348390000000 1.0
C      1  0.3764080000000  0.4797930000000  0.4691760000000 1.0
C      1  0.4413190000000  0.4599010000000  0.4233450000000 1.0
END
