TITL C-627109-622-1596 0.0165134402447423 125000 -640.069916444963 0 0 105 (C1) n - 1
REM
REM in /home/nfs/bkarasulu/CARBON/AIRSS/Generating-Clusters/LCBOP/Only-C1/SD-CG/FIRE-CG
REM
REM
REM
REM
REM
REM ./C.cell (11c1c37f851c82e70ff6c80c92926a4b)
REM AIRSS Version 0.9.1 bugfix July 2018 build 013d7b7c2542+ Fri, 06 Jul 2018 19:26:36 +0100
REM compiler GCC version 9.2.1 20190827 (Red Hat 9.2.1-1)
REM options -cpp -mtune=generic -march=x86-64 -g -O0 -fpre-include=/usr/include/finclude/math-vector-fortran.h
REM seed 1749617223 867157032 -709677174 1368143294 930060694 -2112027524 -2128747247 1699190321 1370071309 -1057976280 -1825007449 -1562194454 345769844 -431181011 1753119018 -1375538486 1162025292 -1175644438 2110164393 -341430137 1050503582 -1741725658 2017435452 184416876 -19967261 1169179299 -935405993 1882721896 1149823741 540515524 -12358766 -738852790 -1097080714
REM
CELL 1.54180   50.00000   50.00000   50.00000   90.00000   90.00000   90.00000
LATT -1
SFAC C  
C      1  0.5874830000000  0.5153190000000  0.4813960000000 1.0
C      1  0.5087250000000  0.5194940000000  0.4351070000000 1.0
C      1  0.4453870000000  0.5563060000000  0.5605370000000 1.0
C      1  0.4428970000000  0.5319900000000  0.4760340000000 1.0
C      1  0.5384960000000  0.4703920000000  0.4409390000000 1.0
C      1  0.4588140000000  0.4516120000000  0.4906340000000 1.0
C      1  0.4451220000000  0.5260070000000  0.4220580000000 1.0
C      1  0.5394720000000  0.4985940000000  0.5903810000000 1.0
C      1  0.4699580000000  0.5355060000000  0.4116860000000 1.0
C      1  0.4142030000000  0.5203060000000  0.5468140000000 1.0
C      1  0.4329530000000  0.5539480000000  0.4606410000000 1.0
C      1  0.5644130000000  0.4108180000000  0.5277290000000 1.0
C      1  0.5098360000000  0.4658290000000  0.4912810000000 1.0
C      1  0.5150200000000  0.4059780000000  0.4892490000000 1.0
C      1  0.5234610000000  0.5238920000000  0.5058420000000 1.0
C      1  0.5550460000000  0.5640900000000  0.5274240000000 1.0
C      1  0.5601250000000  0.4785190000000  0.4592290000000 1.0
C      1  0.5978630000000  0.5027760000000  0.5039900000000 1.0
C      1  0.5343750000000  0.4759110000000  0.5727840000000 1.0
C      1  0.4662610000000  0.4596370000000  0.5174910000000 1.0
C      1  0.5936220000000  0.4950640000000  0.5292920000000 1.0
C      1  0.4932080000000  0.4179230000000  0.5356860000000 1.0
C      1  0.5653190000000  0.5286880000000  0.4141540000000 1.0
C      1  0.5488100000000  0.4209890000000  0.4551860000000 1.0
C      1  0.4423870000000  0.4995580000000  0.4332250000000 1.0
C      1  0.4955650000000  0.5421640000000  0.4221880000000 1.0
C      1  0.4669250000000  0.5169740000000  0.6206240000000 1.0
C      1  0.5041590000000  0.4362130000000  0.5557430000000 1.0
C      1  0.5326290000000  0.5535770000000  0.4681910000000 1.0
C      1  0.4382530000000  0.4210250000000  0.5241370000000 1.0
C      1  0.5231140000000  0.4939000000000  0.4303600000000 1.0
C      1  0.5631450000000  0.5315560000000  0.3879140000000 1.0
C      1  0.4925910000000  0.5794730000000  0.5394910000000 1.0
C      1  0.5594810000000  0.4655000000000  0.4847160000000 1.0
C      1  0.4571290000000  0.5178060000000  0.5183600000000 1.0
C      1  0.4683380000000  0.5879910000000  0.4786510000000 1.0
C      1  0.5010880000000  0.5674760000000  0.4353420000000 1.0
C      1  0.4247980000000  0.4782740000000  0.4260590000000 1.0
C      1  0.4724270000000  0.5064860000000  0.5387900000000 1.0
C      1  0.4253940000000  0.5020810000000  0.5653000000000 1.0
C      1  0.4506650000000  0.4654030000000  0.5401500000000 1.0
C      1  0.4285600000000  0.5462470000000  0.4337630000000 1.0
C      1  0.5510540000000  0.4789930000000  0.5489130000000 1.0
C      1  0.5798100000000  0.5433580000000  0.4807950000000 1.0
C      1  0.5096230000000  0.4592350000000  0.5724690000000 1.0
C      1  0.4116320000000  0.4485920000000  0.4637280000000 1.0
C      1  0.5292370000000  0.5715640000000  0.5789730000000 1.0
C      1  0.5675130000000  0.5455310000000  0.5422970000000 1.0
C      1  0.4947060000000  0.4160530000000  0.4720900000000 1.0
C      1  0.4960530000000  0.4700020000000  0.4662500000000 1.0
C      1  0.4847350000000  0.4511830000000  0.4463270000000 1.0
C      1  0.5039860000000  0.4304100000000  0.4476920000000 1.0
C      1  0.5679280000000  0.5230130000000  0.5595660000000 1.0
C      1  0.4252160000000  0.4842700000000  0.4923270000000 1.0
C      1  0.5513890000000  0.5398300000000  0.3101590000000 1.0
C      1  0.4571330000000  0.4920740000000  0.4567190000000 1.0
C      1  0.4698010000000  0.4264860000000  0.4820070000000 1.0
C      1  0.4104130000000  0.4576780000000  0.4928550000000 1.0
C      1  0.4510220000000  0.4979170000000  0.6063560000000 1.0
C      1  0.5391610000000  0.4021740000000  0.5303600000000 1.0
C      1  0.5059720000000  0.5809990000000  0.5128430000000 1.0
C      1  0.4449630000000  0.5787730000000  0.4683160000000 1.0
C      1  0.5137580000000  0.4063680000000  0.5181710000000 1.0
C      1  0.4476190000000  0.5427350000000  0.5861810000000 1.0
C      1  0.4748580000000  0.5372310000000  0.5060060000000 1.0
C      1  0.5363600000000  0.4704810000000  0.5000280000000 1.0
C      1  0.4641590000000  0.4145600000000  0.5320200000000 1.0
C      1  0.4186190000000  0.4368140000000  0.5122250000000 1.0
C      1  0.4597340000000  0.4772580000000  0.5878960000000 1.0
C      1  0.5196470000000  0.5307410000000  0.4795390000000 1.0
C      1  0.4348630000000  0.5122020000000  0.4985620000000 1.0
C      1  0.4478190000000  0.4745480000000  0.4770760000000 1.0
C      1  0.4572240000000  0.4457420000000  0.4388920000000 1.0
C      1  0.5362800000000  0.4832640000000  0.5254010000000 1.0
C      1  0.4289340000000  0.4533780000000  0.4402660000000 1.0
C      1  0.5740350000000  0.4967860000000  0.5494260000000 1.0
C      1  0.4841510000000  0.4945340000000  0.4628600000000 1.0
C      1  0.5313430000000  0.4405980000000  0.4433030000000 1.0
C      1  0.5594640000000  0.5485430000000  0.4606620000000 1.0
C      1  0.5404350000000  0.4048600000000  0.4757140000000 1.0
C      1  0.4727070000000  0.5354610000000  0.4776810000000 1.0
C      1  0.5123350000000  0.5730560000000  0.4616070000000 1.0
C      1  0.5795380000000  0.4276090000000  0.5133600000000 1.0
C      1  0.4708550000000  0.5402350000000  0.6038960000000 1.0
C      1  0.4341530000000  0.5160120000000  0.5892360000000 1.0
C      1  0.5424390000000  0.5503590000000  0.5895100000000 1.0
C      1  0.5553520000000  0.5371020000000  0.3357820000000 1.0
C      1  0.4864180000000  0.4680840000000  0.5866740000000 1.0
C      1  0.5197300000000  0.5064820000000  0.5268940000000 1.0
C      1  0.5780960000000  0.4474130000000  0.4953680000000 1.0
C      1  0.5738550000000  0.5034830000000  0.4578110000000 1.0
C      1  0.5593770000000  0.5343280000000  0.3618330000000 1.0
C      1  0.5646990000000  0.5263600000000  0.4417490000000 1.0
C      1  0.4934790000000  0.4643140000000  0.5144880000000 1.0
C      1  0.4962200000000  0.5208280000000  0.4636650000000 1.0
C      1  0.5033070000000  0.5264020000000  0.5687100000000 1.0
C      1  0.5515000000000  0.5240910000000  0.5832940000000 1.0
C      1  0.4950430000000  0.5398510000000  0.5901910000000 1.0
C      1  0.4959920000000  0.5831030000000  0.4846990000000 1.0
C      1  0.5343560000000  0.5767060000000  0.5157720000000 1.0
C      1  0.4992620000000  0.5112770000000  0.5458210000000 1.0
C      1  0.4231710000000  0.5461730000000  0.5453640000000 1.0
C      1  0.5111540000000  0.5816460000000  0.5616190000000 1.0
C      1  0.4661430000000  0.5712600000000  0.5473490000000 1.0
C      1  0.4426490000000  0.4782950000000  0.5637880000000 1.0
END
