TITL C-627110-360-1796 0.845637941595054 125000 -554.430410541167 0 0 92 (C1) n - 1
REM
REM in /home/nfs/bkarasulu/CARBON/AIRSS/Generating-Clusters/LCBOP/Only-C1/SD-CG/FIRE-CG
REM
REM
REM
REM
REM
REM ./C.cell (11c1c37f851c82e70ff6c80c92926a4b)
REM AIRSS Version 0.9.1 bugfix July 2018 build 013d7b7c2542+ Fri, 06 Jul 2018 19:26:36 +0100
REM compiler GCC version 9.2.1 20190827 (Red Hat 9.2.1-1)
REM options -cpp -mtune=generic -march=x86-64 -g -O0 -fpre-include=/usr/include/finclude/math-vector-fortran.h
REM seed 689562416 -1256089052 783646076 -1296859666 -1545682383 1415919545 1078237227 1570504655 1212667061 -1963021519 1503251242 59756140 586309019 -1418287812 1136810812 -1005362324 -954502869 -815037880 -62200801 -1384013584 558868291 -221198332 -621090541 534024572 1606115056 458571152 -1145872036 884848275 1638243140 -35814740 -152916924 1282359920 2072652243
REM
CELL 1.54180   50.00000   50.00000   50.00000   90.00000   90.00000   90.00000
LATT -1
SFAC C  
C      1  0.4514880000000  0.5107260000000  0.4346840000000 1.0
C      1  0.5258090000000  0.4621990000000  0.5664010000000 1.0
C      1  0.4713910000000  0.4768420000000  0.5363600000000 1.0
C      1  0.3578940000000  0.5185820000000  0.4851900000000 1.0
C      1  0.4487970000000  0.5268110000000  0.5080220000000 1.0
C      1  0.4688310000000  0.5015010000000  0.5456000000000 1.0
C      1  0.4045220000000  0.5285440000000  0.5036720000000 1.0
C      1  0.5501950000000  0.4798900000000  0.3993750000000 1.0
C      1  0.5305400000000  0.4685890000000  0.4866130000000 1.0
C      1  0.3687550000000  0.4705790000000  0.4866530000000 1.0
C      1  0.5246450000000  0.4458180000000  0.4160930000000 1.0
C      1  0.4538590000000  0.4533200000000  0.4917520000000 1.0
C      1  0.5014340000000  0.4702370000000  0.5800610000000 1.0
C      1  0.4599490000000  0.4448480000000  0.5665950000000 1.0
C      1  0.5535400000000  0.5120380000000  0.4907690000000 1.0
C      1  0.5333060000000  0.4940730000000  0.4972260000000 1.0
C      1  0.5149240000000  0.5117750000000  0.5383500000000 1.0
C      1  0.5761090000000  0.4596400000000  0.4990010000000 1.0
C      1  0.5373450000000  0.5799870000000  0.4289400000000 1.0
C      1  0.5638700000000  0.4397810000000  0.5171550000000 1.0
C      1  0.5292280000000  0.4156410000000  0.4891110000000 1.0
C      1  0.5148500000000  0.4899950000000  0.4491180000000 1.0
C      1  0.4462620000000  0.5529470000000  0.4721870000000 1.0
C      1  0.5320610000000  0.5632470000000  0.4505570000000 1.0
C      1  0.5676630000000  0.5712580000000  0.4829190000000 1.0
C      1  0.4155130000000  0.5025390000000  0.5505010000000 1.0
C      1  0.5367750000000  0.4485060000000  0.4421230000000 1.0
C      1  0.5791480000000  0.4661600000000  0.4700790000000 1.0
C      1  0.5291230000000  0.5607100000000  0.5271590000000 1.0
C      1  0.5401400000000  0.5700550000000  0.4769560000000 1.0
C      1  0.5630820000000  0.4827340000000  0.4245560000000 1.0
C      1  0.5591250000000  0.5083770000000  0.4377450000000 1.0
C      1  0.5241640000000  0.4172430000000  0.5366130000000 1.0
C      1  0.4947470000000  0.4430170000000  0.4665720000000 1.0
C      1  0.4418850000000  0.4785310000000  0.4975750000000 1.0
C      1  0.4260800000000  0.4870880000000  0.5730630000000 1.0
C      1  0.5234430000000  0.4694660000000  0.3995920000000 1.0
C      1  0.4821060000000  0.5609440000000  0.5211290000000 1.0
C      1  0.4722950000000  0.4666910000000  0.5827220000000 1.0
C      1  0.5173160000000  0.4615840000000  0.4611330000000 1.0
C      1  0.5604940000000  0.5628550000000  0.5654090000000 1.0
C      1  0.3785020000000  0.5332050000000  0.4942470000000 1.0
C      1  0.4527770000000  0.4896190000000  0.5867450000000 1.0
C      1  0.4289070000000  0.5382900000000  0.4907690000000 1.0
C      1  0.5017870000000  0.4878600000000  0.3997440000000 1.0
C      1  0.4845260000000  0.4174060000000  0.5074650000000 1.0
C      1  0.5031920000000  0.5566770000000  0.5401470000000 1.0
C      1  0.5812970000000  0.4822970000000  0.5179580000000 1.0
C      1  0.4868080000000  0.5005810000000  0.4989300000000 1.0
C      1  0.5938850000000  0.4910440000000  0.4658890000000 1.0
C      1  0.4651570000000  0.4495200000000  0.5387010000000 1.0
C      1  0.5513630000000  0.5495740000000  0.5426150000000 1.0
C      1  0.4924730000000  0.5629620000000  0.4936840000000 1.0
C      1  0.4778280000000  0.5209210000000  0.5645230000000 1.0
C      1  0.4894310000000  0.5314930000000  0.3840310000000 1.0
C      1  0.5312690000000  0.5135150000000  0.4441670000000 1.0
C      1  0.5654830000000  0.4960330000000  0.5400170000000 1.0
C      1  0.4149790000000  0.4812410000000  0.5064150000000 1.0
C      1  0.4093190000000  0.5051970000000  0.5220750000000 1.0
C      1  0.3536130000000  0.4922550000000  0.4818340000000 1.0
C      1  0.5219120000000  0.5661380000000  0.4983660000000 1.0
C      1  0.5659710000000  0.4493810000000  0.5445930000000 1.0
C      1  0.5760990000000  0.5874590000000  0.6091540000000 1.0
C      1  0.5246090000000  0.4342280000000  0.5590100000000 1.0
C      1  0.5632870000000  0.4604150000000  0.4448770000000 1.0
C      1  0.5703820000000  0.5284870000000  0.5059380000000 1.0
C      1  0.4329650000000  0.4392650000000  0.5737810000000 1.0
C      1  0.4643700000000  0.5316220000000  0.6110560000000 1.0
C      1  0.4676890000000  0.4504950000000  0.4672080000000 1.0
C      1  0.5461130000000  0.6086250000000  0.3857490000000 1.0
C      1  0.5421360000000  0.4215160000000  0.5137980000000 1.0
C      1  0.5683910000000  0.5752670000000  0.5874390000000 1.0
C      1  0.5181770000000  0.5387490000000  0.4470540000000 1.0
C      1  0.4763970000000  0.5210410000000  0.4293390000000 1.0
C      1  0.4158070000000  0.4604030000000  0.5760250000000 1.0
C      1  0.4760990000000  0.5534710000000  0.4703750000000 1.0
C      1  0.4589560000000  0.5018250000000  0.4995480000000 1.0
C      1  0.3933370000000  0.4664000000000  0.4965380000000 1.0
C      1  0.4892550000000  0.5131250000000  0.4045470000000 1.0
C      1  0.5816090000000  0.5518730000000  0.4954100000000 1.0
C      1  0.4651180000000  0.5156550000000  0.5891770000000 1.0
C      1  0.5828970000000  0.5126870000000  0.4529750000000 1.0
C      1  0.5513460000000  0.4736010000000  0.5549340000000 1.0
C      1  0.5641740000000  0.5250680000000  0.5339950000000 1.0
C      1  0.4640140000000  0.4365830000000  0.5134080000000 1.0
C      1  0.5114240000000  0.5026630000000  0.5120590000000 1.0
C      1  0.5015270000000  0.5317410000000  0.5538270000000 1.0
C      1  0.5016070000000  0.4214990000000  0.4842560000000 1.0
C      1  0.5418300000000  0.5945440000000  0.4072670000000 1.0
C      1  0.4893150000000  0.5387470000000  0.4484450000000 1.0
C      1  0.4988960000000  0.4062140000000  0.5293370000000 1.0
C      1  0.4589930000000  0.5461530000000  0.5252300000000 1.0
END
