TITL C-627109-622-1569 -1.94429768911891e-06 125000 -792.034329925519 0 0 128 (C1) n - 1
REM
REM in /home/nfs/bkarasulu/CARBON/AIRSS/Generating-Clusters/LCBOP/Only-C1/SD-CG/FIRE-CG
REM
REM
REM
REM
REM
REM ./C.cell (11c1c37f851c82e70ff6c80c92926a4b)
REM AIRSS Version 0.9.1 bugfix July 2018 build 013d7b7c2542+ Fri, 06 Jul 2018 19:26:36 +0100
REM compiler GCC version 9.2.1 20190827 (Red Hat 9.2.1-1)
REM options -cpp -mtune=generic -march=x86-64 -g -O0 -fpre-include=/usr/include/finclude/math-vector-fortran.h
REM seed 1087673855 1506893008 -1069223220 -1868489315 686089230 1797888586 -869206882 -1560481526 -1855012554 -974632492 -2134174961 571261018 1734796128 352503404 1471519714 -917537479 1000980598 952157956 127530197 -1244932906 1255915064 -27539560 2124332944 -1874104018 -425344053 2138219275 411698103 749567845 -297523081 1078910598 501656477 -1331567099 -58485950
REM
CELL 1.54180   50.00000   50.00000   50.00000   90.00000   90.00000   90.00000
LATT -1
SFAC C  
C      1  0.5574020000000  0.5237300000000  0.5743070000000 1.0
C      1  0.6455080000000  0.5222670000000  0.5126770000000 1.0
C      1  0.5094370000000  0.5567900000000  0.4400590000000 1.0
C      1  0.5870440000000  0.4646800000000  0.4704250000000 1.0
C      1  0.6130990000000  0.4365280000000  0.5227640000000 1.0
C      1  0.4567810000000  0.6633560000000  0.6035600000000 1.0
C      1  0.4447790000000  0.4289380000000  0.4256370000000 1.0
C      1  0.3980890000000  0.4391320000000  0.4819770000000 1.0
C      1  0.5322280000000  0.4852240000000  0.4303580000000 1.0
C      1  0.5376360000000  0.4331700000000  0.4405260000000 1.0
C      1  0.6011270000000  0.5453100000000  0.5060970000000 1.0
C      1  0.4004650000000  0.5148660000000  0.5813500000000 1.0
C      1  0.4728320000000  0.4338380000000  0.5000750000000 1.0
C      1  0.4684400000000  0.6194720000000  0.5169110000000 1.0
C      1  0.5066190000000  0.5144370000000  0.4546850000000 1.0
C      1  0.5509030000000  0.5621170000000  0.5249740000000 1.0
C      1  0.3970380000000  0.4927050000000  0.4868370000000 1.0
C      1  0.4254980000000  0.5537950000000  0.5613670000000 1.0
C      1  0.5364060000000  0.5182130000000  0.5928650000000 1.0
C      1  0.4665330000000  0.5893070000000  0.4739180000000 1.0
C      1  0.5965590000000  0.4537690000000  0.5396870000000 1.0
C      1  0.5219540000000  0.5311020000000  0.4355990000000 1.0
C      1  0.5986990000000  0.4817470000000  0.5422820000000 1.0
C      1  0.4580670000000  0.6432110000000  0.5870770000000 1.0
C      1  0.4889810000000  0.4160820000000  0.4882330000000 1.0
C      1  0.4661910000000  0.4909970000000  0.5765640000000 1.0
C      1  0.4587490000000  0.4762070000000  0.4828050000000 1.0
C      1  0.4655540000000  0.6248500000000  0.5427140000000 1.0
C      1  0.5395760000000  0.4116360000000  0.4829380000000 1.0
C      1  0.5471300000000  0.5730480000000  0.4013860000000 1.0
C      1  0.6003970000000  0.4784460000000  0.4500560000000 1.0
C      1  0.5147260000000  0.4458110000000  0.5311620000000 1.0
C      1  0.5049710000000  0.5066200000000  0.5008320000000 1.0
C      1  0.5402820000000  0.4584810000000  0.4285730000000 1.0
C      1  0.5787820000000  0.5356300000000  0.4615990000000 1.0
C      1  0.5798730000000  0.4377400000000  0.4659190000000 1.0
C      1  0.4443660000000  0.5468260000000  0.4658670000000 1.0
C      1  0.4694060000000  0.5528070000000  0.4126380000000 1.0
C      1  0.4660150000000  0.4609360000000  0.5056900000000 1.0
C      1  0.4556690000000  0.4642000000000  0.4568810000000 1.0
C      1  0.4648450000000  0.4102520000000  0.4185420000000 1.0
C      1  0.5082820000000  0.5152320000000  0.5977380000000 1.0
C      1  0.5709410000000  0.5169450000000  0.4411890000000 1.0
C      1  0.4685680000000  0.6070930000000  0.4934610000000 1.0
C      1  0.5190050000000  0.4930890000000  0.5204670000000 1.0
C      1  0.4214280000000  0.4307630000000  0.4689530000000 1.0
C      1  0.4052180000000  0.4458650000000  0.5843220000000 1.0
C      1  0.4344080000000  0.5794160000000  0.5677720000000 1.0
C      1  0.3908620000000  0.4661840000000  0.4795260000000 1.0
C      1  0.4588030000000  0.3880910000000  0.4037450000000 1.0
C      1  0.5512700000000  0.5863530000000  0.4244480000000 1.0
C      1  0.5984880000000  0.4148820000000  0.5130420000000 1.0
C      1  0.5559670000000  0.5081070000000  0.5501380000000 1.0
C      1  0.5224960000000  0.5313570000000  0.3801450000000 1.0
C      1  0.5242790000000  0.4196860000000  0.5276230000000 1.0
C      1  0.5132790000000  0.5320440000000  0.5456490000000 1.0
C      1  0.5484340000000  0.4646380000000  0.4986570000000 1.0
C      1  0.5105400000000  0.5245150000000  0.4806490000000 1.0
C      1  0.5067250000000  0.5077370000000  0.3811070000000 1.0
C      1  0.4825290000000  0.4893860000000  0.4219130000000 1.0
C      1  0.4839310000000  0.5616980000000  0.6080830000000 1.0
C      1  0.3913790000000  0.4260920000000  0.5731190000000 1.0
C      1  0.5362900000000  0.5534660000000  0.3865350000000 1.0
C      1  0.4545650000000  0.5951100000000  0.5792620000000 1.0
C      1  0.5912230000000  0.4984420000000  0.4347160000000 1.0
C      1  0.5447160000000  0.5127480000000  0.4307570000000 1.0
C      1  0.5710060000000  0.4158610000000  0.5222210000000 1.0
C      1  0.4841680000000  0.5067390000000  0.3988350000000 1.0
C      1  0.5774560000000  0.4991250000000  0.5332910000000 1.0
C      1  0.4354300000000  0.4751260000000  0.4146550000000 1.0
C      1  0.5455750000000  0.4113140000000  0.5107740000000 1.0
C      1  0.5929270000000  0.5578440000000  0.4532110000000 1.0
C      1  0.3850370000000  0.4225090000000  0.5002110000000 1.0
C      1  0.4915320000000  0.4526220000000  0.5458610000000 1.0
C      1  0.5273400000000  0.5485470000000  0.4831730000000 1.0
C      1  0.4524300000000  0.5033540000000  0.4849910000000 1.0
C      1  0.4333510000000  0.4476830000000  0.4072120000000 1.0
C      1  0.5501570000000  0.5479840000000  0.5002400000000 1.0
C      1  0.5441110000000  0.5860790000000  0.4506820000000 1.0
C      1  0.4639140000000  0.5659770000000  0.4588060000000 1.0
C      1  0.4594940000000  0.6213670000000  0.5697950000000 1.0
C      1  0.5758980000000  0.5032660000000  0.5040010000000 1.0
C      1  0.5554650000000  0.4246840000000  0.4621380000000 1.0
C      1  0.6243630000000  0.4924580000000  0.5463000000000 1.0
C      1  0.4344580000000  0.5218740000000  0.4739260000000 1.0
C      1  0.5968090000000  0.5596230000000  0.5303180000000 1.0
C      1  0.4139900000000  0.4927530000000  0.4189630000000 1.0
C      1  0.4948910000000  0.5375180000000  0.6082700000000 1.0
C      1  0.4005640000000  0.4907160000000  0.5401060000000 1.0
C      1  0.5721350000000  0.5615300000000  0.5438400000000 1.0
C      1  0.4065410000000  0.5405820000000  0.5772420000000 1.0
C      1  0.4628720000000  0.4450250000000  0.5842150000000 1.0
C      1  0.5726090000000  0.4375160000000  0.5425820000000 1.0
C      1  0.4875110000000  0.5374300000000  0.5413600000000 1.0
C      1  0.6439130000000  0.5053690000000  0.5334150000000 1.0
C      1  0.5051660000000  0.4660790000000  0.5898810000000 1.0
C      1  0.4656730000000  0.4950920000000  0.5475760000000 1.0
C      1  0.5758260000000  0.5323360000000  0.4921620000000 1.0
C      1  0.4929440000000  0.4922850000000  0.5896560000000 1.0
C      1  0.4894530000000  0.4479460000000  0.5739610000000 1.0
C      1  0.4400110000000  0.5378570000000  0.5431980000000 1.0
C      1  0.4062190000000  0.4910450000000  0.5677100000000 1.0
C      1  0.6272770000000  0.5372570000000  0.4999440000000 1.0
C      1  0.5682630000000  0.5495120000000  0.5692810000000 1.0
C      1  0.4198040000000  0.4695650000000  0.5805870000000 1.0
C      1  0.5046540000000  0.4901790000000  0.4395350000000 1.0
C      1  0.3973240000000  0.4976230000000  0.5145440000000 1.0
C      1  0.5711840000000  0.4787360000000  0.4896280000000 1.0
C      1  0.5273400000000  0.4667450000000  0.5166780000000 1.0
C      1  0.4584000000000  0.4788240000000  0.4318710000000 1.0
C      1  0.4724490000000  0.4706520000000  0.5322780000000 1.0
C      1  0.5277110000000  0.4589600000000  0.6033090000000 1.0
C      1  0.5252520000000  0.5680010000000  0.4615380000000 1.0
C      1  0.4679830000000  0.5298220000000  0.3990060000000 1.0
C      1  0.4634990000000  0.5228190000000  0.5405700000000 1.0
C      1  0.5296570000000  0.5097910000000  0.5399050000000 1.0
C      1  0.5122260000000  0.4197930000000  0.4448310000000 1.0
C      1  0.4090320000000  0.5101970000000  0.4673440000000 1.0
C      1  0.5127480000000  0.4863300000000  0.3651690000000 1.0
C      1  0.3795780000000  0.4136330000000  0.5246520000000 1.0
C      1  0.4479170000000  0.4695570000000  0.5845390000000 1.0
C      1  0.4911550000000  0.4150380000000  0.4273680000000 1.0
C      1  0.4037170000000  0.5062300000000  0.4398560000000 1.0
C      1  0.4428090000000  0.4385290000000  0.4527840000000 1.0
C      1  0.4814290000000  0.5610920000000  0.4366560000000 1.0
C      1  0.4712960000000  0.5827870000000  0.5980240000000 1.0
C      1  0.3818850000000  0.4145290000000  0.5511250000000 1.0
C      1  0.5118930000000  0.4114760000000  0.4727770000000 1.0
END
