TITL C-627109-622-351 22.0171343309314 125000 -864.818660311994 0 0 141 (C1) n - 1
REM
REM in /home/nfs/bkarasulu/CARBON/AIRSS/Generating-Clusters/LCBOP/Only-C1/SD-CG/FIRE-CG
REM
REM
REM
REM
REM
REM ./C.cell (11c1c37f851c82e70ff6c80c92926a4b)
REM AIRSS Version 0.9.1 bugfix July 2018 build 013d7b7c2542+ Fri, 06 Jul 2018 19:26:36 +0100
REM compiler GCC version 9.2.1 20190827 (Red Hat 9.2.1-1)
REM options -cpp -mtune=generic -march=x86-64 -g -O0 -fpre-include=/usr/include/finclude/math-vector-fortran.h
REM seed 1790710025 280223181 -1588008929 516580136 -91521396 -1472927446 1226877499 102641453 808249379 31301502 -1982110573 -1470567458 -986340460 -2135040393 -1648185733 -93223325 884809114 1611556614 -20632078 -718936676 -941923785 -876129344 -808383219 -1977160971 -1127867993 1121869032 1566304097 -2023911177 -1558481743 -162471561 1551145295 -951663246 -1007058361
REM
CELL 1.54180   50.00000   50.00000   50.00000   90.00000   90.00000   90.00000
LATT -1
SFAC C  
C      1  0.4638040000000  0.5241570000000  0.4078030000000 1.0
C      1  0.4007930000000  0.4274990000000  0.5361900000000 1.0
C      1  0.5670470000000  0.5488180000000  0.3354500000000 1.0
C      1  0.5117390000000  0.6331050000000  0.4972970000000 1.0
C      1  0.5712180000000  0.5404530000000  0.4387930000000 1.0
C      1  0.5830000000000  0.4591550000000  0.5029660000000 1.0
C      1  0.5581820000000  0.5493400000000  0.4854580000000 1.0
C      1  0.5082110000000  0.5993800000000  0.4588330000000 1.0
C      1  0.4896350000000  0.4491140000000  0.4947400000000 1.0
C      1  0.4232330000000  0.5751540000000  0.5253960000000 1.0
C      1  0.3938740000000  0.3846250000000  0.5585640000000 1.0
C      1  0.4712750000000  0.5266120000000  0.3818640000000 1.0
C      1  0.4497120000000  0.5936720000000  0.4407520000000 1.0
C      1  0.4320430000000  0.4985940000000  0.5203890000000 1.0
C      1  0.5885840000000  0.4919550000000  0.4661350000000 1.0
C      1  0.4906070000000  0.4474870000000  0.5991150000000 1.0
C      1  0.5137640000000  0.5754310000000  0.4746900000000 1.0
C      1  0.4411900000000  0.4797950000000  0.4092300000000 1.0
C      1  0.4430700000000  0.5063820000000  0.4187410000000 1.0
C      1  0.5002860000000  0.5956050000000  0.4316500000000 1.0
C      1  0.4641310000000  0.4367510000000  0.4998780000000 1.0
C      1  0.4623040000000  0.4109440000000  0.5142480000000 1.0
C      1  0.4615690000000  0.5306350000000  0.4559520000000 1.0
C      1  0.4565090000000  0.6178220000000  0.5665810000000 1.0
C      1  0.4896300000000  0.4707690000000  0.4430530000000 1.0
C      1  0.5619040000000  0.5029670000000  0.4690500000000 1.0
C      1  0.4011440000000  0.6319500000000  0.5242610000000 1.0
C      1  0.4436880000000  0.5837990000000  0.4664290000000 1.0
C      1  0.4119450000000  0.5872530000000  0.5025110000000 1.0
C      1  0.5303740000000  0.4386190000000  0.4287420000000 1.0
C      1  0.4725170000000  0.5974880000000  0.4268390000000 1.0
C      1  0.4995740000000  0.4785960000000  0.5318070000000 1.0
C      1  0.5162950000000  0.4360540000000  0.5925610000000 1.0
C      1  0.4726140000000  0.4360640000000  0.4036100000000 1.0
C      1  0.4853310000000  0.4249440000000  0.4270530000000 1.0
C      1  0.5093940000000  0.5217600000000  0.5829010000000 1.0
C      1  0.6121500000000  0.4912100000000  0.5366570000000 1.0
C      1  0.5441160000000  0.5719470000000  0.4089240000000 1.0
C      1  0.4595880000000  0.5040330000000  0.5245840000000 1.0
C      1  0.5663590000000  0.5770370000000  0.5498070000000 1.0
C      1  0.5481060000000  0.5776230000000  0.5691770000000 1.0
C      1  0.5482810000000  0.4858690000000  0.5289400000000 1.0
C      1  0.5057580000000  0.5482030000000  0.5732710000000 1.0
C      1  0.5322880000000  0.4471440000000  0.5519360000000 1.0
C      1  0.5431260000000  0.5128240000000  0.5214000000000 1.0
C      1  0.5588860000000  0.4419890000000  0.5613100000000 1.0
C      1  0.4952340000000  0.4690480000000  0.6173450000000 1.0
C      1  0.5746160000000  0.4098530000000  0.5072230000000 1.0
C      1  0.4663000000000  0.5782760000000  0.4825670000000 1.0
C      1  0.4875250000000  0.3991470000000  0.5200600000000 1.0
C      1  0.5564580000000  0.5829320000000  0.4542350000000 1.0
C      1  0.5423450000000  0.3887970000000  0.5417380000000 1.0
C      1  0.4515450000000  0.4552280000000  0.4046500000000 1.0
C      1  0.4476380000000  0.4051640000000  0.4687890000000 1.0
C      1  0.5407750000000  0.4853370000000  0.4750840000000 1.0
C      1  0.5201880000000  0.3998430000000  0.4526070000000 1.0
C      1  0.4347080000000  0.6326440000000  0.5625120000000 1.0
C      1  0.5835990000000  0.4756930000000  0.5775970000000 1.0
C      1  0.5617440000000  0.3934580000000  0.5239260000000 1.0
C      1  0.4702430000000  0.4498750000000  0.5788720000000 1.0
C      1  0.4144060000000  0.6389650000000  0.5463820000000 1.0
C      1  0.5421110000000  0.5713710000000  0.4768020000000 1.0
C      1  0.5577160000000  0.4334810000000  0.4677680000000 1.0
C      1  0.5277290000000  0.5042890000000  0.5699300000000 1.0
C      1  0.4919660000000  0.3995980000000  0.4397710000000 1.0
C      1  0.5089230000000  0.6275530000000  0.5231730000000 1.0
C      1  0.5395520000000  0.4533720000000  0.6035070000000 1.0
C      1  0.5102180000000  0.6237920000000  0.4723460000000 1.0
C      1  0.4956240000000  0.5371920000000  0.5277000000000 1.0
C      1  0.4893440000000  0.5615400000000  0.4816850000000 1.0
C      1  0.4023950000000  0.5340730000000  0.4956960000000 1.0
C      1  0.5163890000000  0.4400720000000  0.3805100000000 1.0
C      1  0.5643090000000  0.4551050000000  0.5862870000000 1.0
C      1  0.4219120000000  0.4725580000000  0.5217040000000 1.0
C      1  0.5006580000000  0.4738430000000  0.5034790000000 1.0
C      1  0.4743290000000  0.5384880000000  0.4303800000000 1.0
C      1  0.4707520000000  0.3892200000000  0.4567530000000 1.0
C      1  0.4699330000000  0.5737660000000  0.5499900000000 1.0
C      1  0.4091220000000  0.5487850000000  0.4727800000000 1.0
C      1  0.5336760000000  0.4420410000000  0.4011100000000 1.0
C      1  0.6015420000000  0.5021590000000  0.4429560000000 1.0
C      1  0.4137620000000  0.5185450000000  0.5139190000000 1.0
C      1  0.4991940000000  0.3887270000000  0.4961110000000 1.0
C      1  0.4533780000000  0.4284310000000  0.5734670000000 1.0
C      1  0.5606690000000  0.5660820000000  0.4314290000000 1.0
C      1  0.4070980000000  0.4508620000000  0.5252340000000 1.0
C      1  0.5720380000000  0.4698080000000  0.5280440000000 1.0
C      1  0.5765190000000  0.5668040000000  0.5274730000000 1.0
C      1  0.5982400000000  0.4811880000000  0.4905880000000 1.0
C      1  0.4896210000000  0.4363680000000  0.3808310000000 1.0
C      1  0.4364940000000  0.5189750000000  0.4452670000000 1.0
C      1  0.5140680000000  0.5197530000000  0.4463620000000 1.0
C      1  0.5918710000000  0.4753790000000  0.5494040000000 1.0
C      1  0.5926890000000  0.5243310000000  0.4294400000000 1.0
C      1  0.6074060000000  0.5013370000000  0.5101310000000 1.0
C      1  0.5041880000000  0.5138740000000  0.6097080000000 1.0
C      1  0.4892040000000  0.5529340000000  0.5505700000000 1.0
C      1  0.5611230000000  0.5305230000000  0.4643260000000 1.0
C      1  0.5180520000000  0.4262220000000  0.5658310000000 1.0
C      1  0.5132890000000  0.4076980000000  0.4802320000000 1.0
C      1  0.5539900000000  0.5117200000000  0.5765710000000 1.0
C      1  0.5237720000000  0.4001130000000  0.5575010000000 1.0
C      1  0.5460950000000  0.4594230000000  0.4677460000000 1.0
C      1  0.4121970000000  0.5334570000000  0.4490150000000 1.0
C      1  0.5748490000000  0.4331180000000  0.4914010000000 1.0
C      1  0.3922430000000  0.5327570000000  0.4303200000000 1.0
C      1  0.4188580000000  0.5753260000000  0.4773800000000 1.0
C      1  0.4451020000000  0.4572430000000  0.4605090000000 1.0
C      1  0.4481350000000  0.4336580000000  0.4750370000000 1.0
C      1  0.5033130000000  0.5136820000000  0.4711450000000 1.0
C      1  0.5780910000000  0.5485680000000  0.5062570000000 1.0
C      1  0.5254970000000  0.5674070000000  0.5789730000000 1.0
C      1  0.4796400000000  0.3751270000000  0.4805080000000 1.0
C      1  0.5046080000000  0.4348170000000  0.4761070000000 1.0
C      1  0.5033130000000  0.4450470000000  0.4419660000000 1.0
C      1  0.4981190000000  0.6136610000000  0.5430990000000 1.0
C      1  0.5252560000000  0.4726390000000  0.6208620000000 1.0
C      1  0.4438210000000  0.5687800000000  0.5409590000000 1.0
C      1  0.4477600000000  0.3933800000000  0.4963420000000 1.0
C      1  0.5429490000000  0.4188190000000  0.4465320000000 1.0
C      1  0.5227800000000  0.5304920000000  0.5226800000000 1.0
C      1  0.4325010000000  0.4129170000000  0.5682670000000 1.0
C      1  0.4644060000000  0.4740210000000  0.4521690000000 1.0
C      1  0.4808130000000  0.5311750000000  0.4809160000000 1.0
C      1  0.4661640000000  0.4767540000000  0.5685840000000 1.0
C      1  0.5268890000000  0.5014010000000  0.6232930000000 1.0
C      1  0.4762240000000  0.6011950000000  0.5552970000000 1.0
C      1  0.4742870000000  0.4862430000000  0.5425730000000 1.0
C      1  0.4633430000000  0.4949930000000  0.5903740000000 1.0
C      1  0.4086760000000  0.4078160000000  0.5544750000000 1.0
C      1  0.5195010000000  0.5851980000000  0.4138460000000 1.0
C      1  0.5979840000000  0.5280870000000  0.5069870000000 1.0
C      1  0.5145430000000  0.4914560000000  0.4848380000000 1.0
C      1  0.5517800000000  0.5648720000000  0.3831150000000 1.0
C      1  0.5768600000000  0.5016200000000  0.5861070000000 1.0
C      1  0.3800950000000  0.3628150000000  0.5622640000000 1.0
C      1  0.3998700000000  0.6122490000000  0.5061630000000 1.0
C      1  0.5253890000000  0.4766440000000  0.5465770000000 1.0
C      1  0.5594450000000  0.5568550000000  0.3590560000000 1.0
C      1  0.4822690000000  0.4948110000000  0.6114950000000 1.0
C      1  0.4752960000000  0.5246240000000  0.5108760000000 1.0
END
