TITL C-627110-360-66 5553.95430315677 125000 -592.062809134243 0 0 98 (C1) n - 1
REM
REM in /home/nfs/bkarasulu/CARBON/AIRSS/Generating-Clusters/LCBOP/Only-C1/SD-CG/FIRE-CG
REM
REM
REM
REM
REM
REM ./C.cell (11c1c37f851c82e70ff6c80c92926a4b)
REM AIRSS Version 0.9.1 bugfix July 2018 build 013d7b7c2542+ Fri, 06 Jul 2018 19:26:36 +0100
REM compiler GCC version 9.2.1 20190827 (Red Hat 9.2.1-1)
REM options -cpp -mtune=generic -march=x86-64 -g -O0 -fpre-include=/usr/include/finclude/math-vector-fortran.h
REM seed -2044448618 -1949793616 632534877 -1977967680 -1979555980 -109454926 659674777 -618676583 -2137254735 166008914 -1479769190 -1204290637 1080902375 -1344518972 -284569684 288452898 2116955113 -719823521 -1006445710 -1481264031 -1022297518 -1464204937 1703059792 -1087464218 1379089170 -2027392212 -2146603322 1928384001 1120141873 -2045150359 -2134243336 -159556725 -413118690
REM
CELL 1.54180   50.00000   50.00000   50.00000   90.00000   90.00000   90.00000
LATT -1
SFAC C  
C      1  0.5633940000000  0.4616920000000  0.5411630000000 1.0
C      1  0.4775790000000  0.4819900000000  0.4299070000000 1.0
C      1  0.4160070000000  0.5159210000000  0.5148160000000 1.0
C      1  0.5060810000000  0.5713400000000  0.5709910000000 1.0
C      1  0.5007240000000  0.5189980000000  0.3948570000000 1.0
C      1  0.4785860000000  0.5628630000000  0.5685390000000 1.0
C      1  0.4525090000000  0.4825890000000  0.4862000000000 1.0
C      1  0.5171520000000  0.5037560000000  0.4124390000000 1.0
C      1  0.5912070000000  0.5532980000000  0.4709080000000 1.0
C      1  0.4170290000000  0.5020160000000  0.4570710000000 1.0
C      1  0.5556990000000  0.5522220000000  0.5567210000000 1.0
C      1  0.4342690000000  0.5377370000000  0.5099490000000 1.0
C      1  0.4816800000000  0.4498500000000  0.5584940000000 1.0
C      1  0.4382410000000  0.4996050000000  0.5817540000000 1.0
C      1  0.4834980000000  0.4784990000000  0.5673040000000 1.0
C      1  0.4961370000000  0.4753760000000  0.5935210000000 1.0
C      1  0.5229080000000  0.4652550000000  0.5907610000000 1.0
C      1  0.5006670000000  0.4422750000000  0.4433820000000 1.0
C      1  0.5483880000000  0.4551060000000  0.5149780000000 1.0
C      1  0.5360280000000  0.4786400000000  0.4475570000000 1.0
C      1  0.4906960000000  0.5667610000000  0.4057870000000 1.0
C      1  0.4981300000000  0.5132650000000  0.5020600000000 1.0
C      1  0.4332350000000  0.4766590000000  0.5686520000000 1.0
C      1  0.4348530000000  0.4591560000000  0.5459590000000 1.0
C      1  0.4633660000000  0.5665020000000  0.5450130000000 1.0
C      1  0.4880460000000  0.5024150000000  0.5486120000000 1.0
C      1  0.5789100000000  0.5769860000000  0.4737620000000 1.0
C      1  0.4746360000000  0.4405940000000  0.4565370000000 1.0
C      1  0.5235400000000  0.4339260000000  0.4599940000000 1.0
C      1  0.4878070000000  0.5001880000000  0.4498540000000 1.0
C      1  0.5173250000000  0.4936970000000  0.4891880000000 1.0
C      1  0.5648160000000  0.4967650000000  0.4987810000000 1.0
C      1  0.5427190000000  0.5095720000000  0.5799330000000 1.0
C      1  0.5738050000000  0.4546000000000  0.4611800000000 1.0
C      1  0.4492320000000  0.4479640000000  0.4443630000000 1.0
C      1  0.5715120000000  0.4966670000000  0.5466080000000 1.0
C      1  0.4580520000000  0.4405600000000  0.5448780000000 1.0
C      1  0.4228920000000  0.5286360000000  0.4652250000000 1.0
C      1  0.4178250000000  0.4674460000000  0.5242370000000 1.0
C      1  0.5335580000000  0.4841670000000  0.5716090000000 1.0
C      1  0.5228550000000  0.4769890000000  0.5442980000000 1.0
C      1  0.5338960000000  0.5359650000000  0.4554400000000 1.0
C      1  0.5124370000000  0.5191650000000  0.5485760000000 1.0
C      1  0.5010690000000  0.4012110000000  0.4944500000000 1.0
C      1  0.5133740000000  0.4208490000000  0.5338980000000 1.0
C      1  0.4061230000000  0.4561760000000  0.4685070000000 1.0
C      1  0.4394240000000  0.5175700000000  0.4170940000000 1.0
C      1  0.5010360000000  0.4705200000000  0.4209090000000 1.0
C      1  0.4992780000000  0.5946210000000  0.4489740000000 1.0
C      1  0.5300070000000  0.5557500000000  0.5717500000000 1.0
C      1  0.4636070000000  0.5313270000000  0.4227530000000 1.0
C      1  0.5350580000000  0.5992730000000  0.4813660000000 1.0
C      1  0.5635990000000  0.5861910000000  0.5178360000000 1.0
C      1  0.4239020000000  0.4410530000000  0.4547920000000 1.0
C      1  0.5302320000000  0.5218540000000  0.4320170000000 1.0
C      1  0.4745880000000  0.4426040000000  0.4849980000000 1.0
C      1  0.4905330000000  0.4071230000000  0.5215070000000 1.0
C      1  0.5453340000000  0.4513900000000  0.4559390000000 1.0
C      1  0.4101990000000  0.4888410000000  0.5061650000000 1.0
C      1  0.5608990000000  0.4910550000000  0.4389080000000 1.0
C      1  0.4508450000000  0.5223300000000  0.5885740000000 1.0
C      1  0.5607960000000  0.5913870000000  0.4900190000000 1.0
C      1  0.5342220000000  0.5218580000000  0.5271510000000 1.0
C      1  0.5222520000000  0.4197600000000  0.4855450000000 1.0
C      1  0.5555180000000  0.4436980000000  0.5629530000000 1.0
C      1  0.5291210000000  0.4408420000000  0.5762580000000 1.0
C      1  0.4942350000000  0.5733710000000  0.4929010000000 1.0
C      1  0.5841430000000  0.5009820000000  0.4786610000000 1.0
C      1  0.5384920000000  0.5456590000000  0.5108290000000 1.0
C      1  0.4667600000000  0.5439000000000  0.5862370000000 1.0
C      1  0.5220820000000  0.5283360000000  0.5744530000000 1.0
C      1  0.5603430000000  0.5084710000000  0.5237160000000 1.0
C      1  0.5082970000000  0.5918950000000  0.4755840000000 1.0
C      1  0.4072960000000  0.4832270000000  0.4772820000000 1.0
C      1  0.5070400000000  0.4335440000000  0.5587750000000 1.0
C      1  0.4553810000000  0.4270970000000  0.4990390000000 1.0
C      1  0.4965060000000  0.5426960000000  0.4890060000000 1.0
C      1  0.5275540000000  0.5434360000000  0.4827480000000 1.0
C      1  0.5545830000000  0.5622420000000  0.5292710000000 1.0
C      1  0.5820540000000  0.4826230000000  0.4569400000000 1.0
C      1  0.5664550000000  0.5182980000000  0.5663930000000 1.0
C      1  0.4507810000000  0.4735000000000  0.4318160000000 1.0
C      1  0.4703380000000  0.5385370000000  0.4730780000000 1.0
C      1  0.5943510000000  0.5269640000000  0.4746520000000 1.0
C      1  0.4953020000000  0.5857960000000  0.4240670000000 1.0
C      1  0.4829410000000  0.5397910000000  0.4035110000000 1.0
C      1  0.4429720000000  0.5389180000000  0.4826330000000 1.0
C      1  0.4924180000000  0.4573330000000  0.5024530000000 1.0
C      1  0.4638810000000  0.4197710000000  0.5251280000000 1.0
C      1  0.4748790000000  0.5253050000000  0.4486300000000 1.0
C      1  0.4452960000000  0.5554280000000  0.5286390000000 1.0
C      1  0.4312390000000  0.4947360000000  0.4326690000000 1.0
C      1  0.4580790000000  0.4911150000000  0.5101210000000 1.0
C      1  0.4790990000000  0.5044540000000  0.5215110000000 1.0
C      1  0.5325850000000  0.4305420000000  0.5121980000000 1.0
C      1  0.5421340000000  0.4787730000000  0.4977580000000 1.0
C      1  0.5131240000000  0.4910090000000  0.4611070000000 1.0
C      1  0.5064160000000  0.4672960000000  0.5239740000000 1.0
END
