TITL C-627110-360-1315 0.0160393407326912 125000 -396.786678458418 0 0 65 (C1) n - 1
REM
REM in /home/nfs/bkarasulu/CARBON/AIRSS/Generating-Clusters/LCBOP/Only-C1/SD-CG/FIRE-CG
REM
REM
REM
REM
REM
REM ./C.cell (11c1c37f851c82e70ff6c80c92926a4b)
REM AIRSS Version 0.9.1 bugfix July 2018 build 013d7b7c2542+ Fri, 06 Jul 2018 19:26:36 +0100
REM compiler GCC version 9.2.1 20190827 (Red Hat 9.2.1-1)
REM options -cpp -mtune=generic -march=x86-64 -g -O0 -fpre-include=/usr/include/finclude/math-vector-fortran.h
REM seed -1354064417 152245864 523013359 -1997637080 1076557737 -1456614210 -8179764 -852245494 1737433815 170500847 -900889188 -932041875 -330547654 -184921631 512558480 1522701719 -435262714 1377057805 182580998 1859067282 -97089390 643029269 -1894237436 908459226 669252701 -1781149413 1664547258 -79454655 390161594 -1559319551 1280184149 2013930108 1494934844
REM
CELL 1.54180   50.00000   50.00000   50.00000   90.00000   90.00000   90.00000
LATT -1
SFAC C  
C      1  0.5681050000000  0.4510700000000  0.4980920000000 1.0
C      1  0.4775910000000  0.3944870000000  0.4348210000000 1.0
C      1  0.5467120000000  0.4846890000000  0.5505070000000 1.0
C      1  0.4977810000000  0.5051400000000  0.5900760000000 1.0
C      1  0.4646620000000  0.6057260000000  0.5186090000000 1.0
C      1  0.5628040000000  0.5042830000000  0.5420000000000 1.0
C      1  0.4611770000000  0.4841950000000  0.4520640000000 1.0
C      1  0.4263550000000  0.4972720000000  0.5527850000000 1.0
C      1  0.4486820000000  0.5886940000000  0.5342770000000 1.0
C      1  0.5214700000000  0.4326430000000  0.5290680000000 1.0
C      1  0.4809930000000  0.4976760000000  0.4970340000000 1.0
C      1  0.5139080000000  0.5550570000000  0.4662260000000 1.0
C      1  0.4227600000000  0.5468470000000  0.5354970000000 1.0
C      1  0.4691510000000  0.5726430000000  0.5790800000000 1.0
C      1  0.5748720000000  0.4377660000000  0.4731620000000 1.0
C      1  0.4631790000000  0.4361940000000  0.4560650000000 1.0
C      1  0.4714790000000  0.4596780000000  0.4421210000000 1.0
C      1  0.5130550000000  0.5606300000000  0.5356190000000 1.0
C      1  0.4826140000000  0.4463930000000  0.5548080000000 1.0
C      1  0.4931300000000  0.5173080000000  0.5443770000000 1.0
C      1  0.4385120000000  0.4739340000000  0.5566400000000 1.0
C      1  0.5011230000000  0.4840960000000  0.4133400000000 1.0
C      1  0.5535090000000  0.4748300000000  0.4894820000000 1.0
C      1  0.5284960000000  0.5144900000000  0.4870770000000 1.0
C      1  0.5459950000000  0.4542680000000  0.4323450000000 1.0
C      1  0.5253000000000  0.5292750000000  0.4632590000000 1.0
C      1  0.4903110000000  0.5609770000000  0.4520900000000 1.0
C      1  0.4647370000000  0.4991310000000  0.4741690000000 1.0
C      1  0.5636670000000  0.4805700000000  0.4624270000000 1.0
C      1  0.4795060000000  0.5120070000000  0.5207170000000 1.0
C      1  0.4577450000000  0.4555670000000  0.5574610000000 1.0
C      1  0.5662890000000  0.5275620000000  0.5293500000000 1.0
C      1  0.4906290000000  0.5305170000000  0.5970880000000 1.0
C      1  0.5094480000000  0.4508660000000  0.5472660000000 1.0
C      1  0.4540970000000  0.5864270000000  0.5617660000000 1.0
C      1  0.4871090000000  0.5512720000000  0.5780340000000 1.0
C      1  0.4896650000000  0.4516050000000  0.4953630000000 1.0
C      1  0.5303130000000  0.5136660000000  0.4396820000000 1.0
C      1  0.5672000000000  0.4533550000000  0.4504820000000 1.0
C      1  0.4967830000000  0.4604460000000  0.4284110000000 1.0
C      1  0.4709630000000  0.4366080000000  0.4832150000000 1.0
C      1  0.4310960000000  0.5689890000000  0.4932510000000 1.0
C      1  0.4424130000000  0.5674720000000  0.4692160000000 1.0
C      1  0.4585360000000  0.4119350000000  0.4426700000000 1.0
C      1  0.5281990000000  0.4870640000000  0.4943810000000 1.0
C      1  0.5250680000000  0.4204210000000  0.5052590000000 1.0
C      1  0.5244840000000  0.4173240000000  0.4784620000000 1.0
C      1  0.5023560000000  0.4974210000000  0.5630630000000 1.0
C      1  0.5040730000000  0.3979950000000  0.4385810000000 1.0
C      1  0.4326790000000  0.5688680000000  0.5212700000000 1.0
C      1  0.4211410000000  0.5223870000000  0.5457810000000 1.0
C      1  0.4859450000000  0.6084800000000  0.5027580000000 1.0
C      1  0.5553410000000  0.5487710000000  0.5172080000000 1.0
C      1  0.4975850000000  0.5444640000000  0.5521920000000 1.0
C      1  0.5306100000000  0.5615890000000  0.5135110000000 1.0
C      1  0.5201060000000  0.4765530000000  0.5546160000000 1.0
C      1  0.5068420000000  0.5966870000000  0.4909950000000 1.0
C      1  0.5777570000000  0.4445130000000  0.5225520000000 1.0
C      1  0.5176900000000  0.4195240000000  0.4508930000000 1.0
C      1  0.5496160000000  0.4934470000000  0.4425420000000 1.0
C      1  0.5200270000000  0.5717740000000  0.4889450000000 1.0
C      1  0.5197780000000  0.4443000000000  0.4359160000000 1.0
C      1  0.5114840000000  0.5082550000000  0.4194660000000 1.0
C      1  0.5012890000000  0.4770620000000  0.4966500000000 1.0
C      1  0.4640080000000  0.5648440000000  0.4538680000000 1.0
END
