TITL C-627110-360-671 0.00782480040885049 125000 -607.350293792985 0 0 100 (C1) n - 1
REM
REM in /home/nfs/bkarasulu/CARBON/AIRSS/Generating-Clusters/LCBOP/Only-C1/SD-CG/FIRE-CG
REM
REM
REM
REM
REM
REM ./C.cell (11c1c37f851c82e70ff6c80c92926a4b)
REM AIRSS Version 0.9.1 bugfix July 2018 build 013d7b7c2542+ Fri, 06 Jul 2018 19:26:36 +0100
REM compiler GCC version 9.2.1 20190827 (Red Hat 9.2.1-1)
REM options -cpp -mtune=generic -march=x86-64 -g -O0 -fpre-include=/usr/include/finclude/math-vector-fortran.h
REM seed 870900034 243129565 -2064327144 1872973877 816559965 -901962038 1058764732 -292764025 -490074739 -179540645 1636230159 1698929625 -1152252515 -497214280 1730054984 -119697616 813427971 -1664837336 -351998274 -114498468 -1395247851 770333165 2071107533 582752331 -2002090840 827123854 -657079783 1651298096 -39008183 1616071176 -1994663665 -1821420727 -152493539
REM
CELL 1.54180   50.00000   50.00000   50.00000   90.00000   90.00000   90.00000
LATT -1
SFAC C  
C      1  0.5388620000000  0.5451380000000  0.4305460000000 1.0
C      1  0.5072080000000  0.4765060000000  0.4186680000000 1.0
C      1  0.5910540000000  0.4328690000000  0.4564770000000 1.0
C      1  0.4652330000000  0.4457580000000  0.5852190000000 1.0
C      1  0.4628390000000  0.5908540000000  0.5289580000000 1.0
C      1  0.5233020000000  0.4221620000000  0.5109040000000 1.0
C      1  0.5952940000000  0.4590100000000  0.5395230000000 1.0
C      1  0.5929850000000  0.3836980000000  0.4345330000000 1.0
C      1  0.5783750000000  0.5263910000000  0.4474500000000 1.0
C      1  0.5098830000000  0.5817940000000  0.5175240000000 1.0
C      1  0.4002410000000  0.5930290000000  0.4906810000000 1.0
C      1  0.4534340000000  0.4282280000000  0.4471340000000 1.0
C      1  0.5742230000000  0.4529460000000  0.4462750000000 1.0
C      1  0.5373880000000  0.5461600000000  0.5296760000000 1.0
C      1  0.6045700000000  0.4737460000000  0.5177770000000 1.0
C      1  0.5520320000000  0.4518600000000  0.5672470000000 1.0
C      1  0.3798270000000  0.6275150000000  0.5511800000000 1.0
C      1  0.6125780000000  0.4638250000000  0.4915700000000 1.0
C      1  0.5896880000000  0.5478150000000  0.5200390000000 1.0
C      1  0.4514570000000  0.5016400000000  0.5118910000000 1.0
C      1  0.5922620000000  0.4075240000000  0.4450690000000 1.0
C      1  0.3864180000000  0.6104290000000  0.4731830000000 1.0
C      1  0.4877220000000  0.5804070000000  0.5360860000000 1.0
C      1  0.4470280000000  0.5121710000000  0.4843700000000 1.0
C      1  0.4383200000000  0.4253260000000  0.4710360000000 1.0
C      1  0.5653740000000  0.5154300000000  0.5465970000000 1.0
C      1  0.5145910000000  0.4741830000000  0.5416270000000 1.0
C      1  0.5007650000000  0.5088420000000  0.5702230000000 1.0
C      1  0.5186190000000  0.5667240000000  0.5701140000000 1.0
C      1  0.4729440000000  0.4678360000000  0.4653280000000 1.0
C      1  0.5499350000000  0.5038410000000  0.4094300000000 1.0
C      1  0.4018200000000  0.5661200000000  0.4823010000000 1.0
C      1  0.4384430000000  0.5971460000000  0.5207490000000 1.0
C      1  0.3953490000000  0.5481770000000  0.4614210000000 1.0
C      1  0.5321150000000  0.5040420000000  0.4803330000000 1.0
C      1  0.4782040000000  0.3931670000000  0.5308210000000 1.0
C      1  0.4764870000000  0.4020280000000  0.5566010000000 1.0
C      1  0.4212010000000  0.4489600000000  0.4785120000000 1.0
C      1  0.4823290000000  0.4502980000000  0.5155560000000 1.0
C      1  0.5769610000000  0.4518980000000  0.5575690000000 1.0
C      1  0.5455540000000  0.5190750000000  0.5244940000000 1.0
C      1  0.5779220000000  0.5517060000000  0.4937280000000 1.0
C      1  0.4826900000000  0.4933250000000  0.4572960000000 1.0
C      1  0.4827250000000  0.4410090000000  0.3950620000000 1.0
C      1  0.5294160000000  0.4865250000000  0.4035240000000 1.0
C      1  0.4720690000000  0.5159800000000  0.4706200000000 1.0
C      1  0.4268140000000  0.4525700000000  0.5072270000000 1.0
C      1  0.5074080000000  0.4885460000000  0.4442620000000 1.0
C      1  0.5338500000000  0.5673720000000  0.5116490000000 1.0
C      1  0.4640780000000  0.4380960000000  0.5320160000000 1.0
C      1  0.4053240000000  0.5222060000000  0.4614570000000 1.0
C      1  0.4870590000000  0.4554060000000  0.4180130000000 1.0
C      1  0.4766110000000  0.5084610000000  0.5263340000000 1.0
C      1  0.3706950000000  0.5837580000000  0.4354100000000 1.0
C      1  0.5388490000000  0.5513930000000  0.5583990000000 1.0
C      1  0.5078850000000  0.4283850000000  0.4686080000000 1.0
C      1  0.4769840000000  0.4016230000000  0.5028380000000 1.0
C      1  0.5274630000000  0.5111810000000  0.5800420000000 1.0
C      1  0.4458450000000  0.4742580000000  0.5076110000000 1.0
C      1  0.5020840000000  0.4120330000000  0.4922300000000 1.0
C      1  0.4744240000000  0.5477410000000  0.5746390000000 1.0
C      1  0.6064650000000  0.4397620000000  0.4790120000000 1.0
C      1  0.4114610000000  0.6018130000000  0.5151040000000 1.0
C      1  0.3797580000000  0.5588660000000  0.4404380000000 1.0
C      1  0.5294140000000  0.4734390000000  0.5176090000000 1.0
C      1  0.4594450000000  0.4717490000000  0.5902710000000 1.0
C      1  0.6007130000000  0.5023890000000  0.5155000000000 1.0
C      1  0.4712790000000  0.4497340000000  0.4424530000000 1.0
C      1  0.4503400000000  0.4125400000000  0.4952160000000 1.0
C      1  0.4772280000000  0.5200310000000  0.5815780000000 1.0
C      1  0.5300520000000  0.4494520000000  0.5028740000000 1.0
C      1  0.5240010000000  0.5459730000000  0.4527880000000 1.0
C      1  0.5555440000000  0.5703240000000  0.4926280000000 1.0
C      1  0.6149940000000  0.4873840000000  0.4747590000000 1.0
C      1  0.3737230000000  0.6064160000000  0.4497380000000 1.0
C      1  0.5561620000000  0.4723680000000  0.4491280000000 1.0
C      1  0.5899900000000  0.5219400000000  0.5329940000000 1.0
C      1  0.4703610000000  0.4641360000000  0.4936850000000 1.0
C      1  0.6027670000000  0.5103850000000  0.4867940000000 1.0
C      1  0.3644600000000  0.6399020000000  0.5682110000000 1.0
C      1  0.4954240000000  0.4951920000000  0.5454080000000 1.0
C      1  0.5179280000000  0.5285550000000  0.4737850000000 1.0
C      1  0.4919860000000  0.5306790000000  0.4848720000000 1.0
C      1  0.4234690000000  0.5026460000000  0.4699120000000 1.0
C      1  0.4883810000000  0.5307240000000  0.5127290000000 1.0
C      1  0.5379480000000  0.4985180000000  0.5073670000000 1.0
C      1  0.4914350000000  0.5671080000000  0.5616360000000 1.0
C      1  0.4717420000000  0.4214200000000  0.5751100000000 1.0
C      1  0.5865950000000  0.5308830000000  0.4746310000000 1.0
C      1  0.4178740000000  0.4745260000000  0.4658320000000 1.0
C      1  0.5560040000000  0.5913860000000  0.4750920000000 1.0
C      1  0.5228400000000  0.4527390000000  0.4748610000000 1.0
C      1  0.5493050000000  0.5259220000000  0.5691870000000 1.0
C      1  0.3954090000000  0.6149430000000  0.5338300000000 1.0
C      1  0.4402990000000  0.4294520000000  0.5181270000000 1.0
C      1  0.5267020000000  0.4595390000000  0.5625720000000 1.0
C      1  0.4602740000000  0.4989830000000  0.5908400000000 1.0
C      1  0.5586240000000  0.5252520000000  0.4265940000000 1.0
C      1  0.5363320000000  0.4069810000000  0.5293190000000 1.0
C      1  0.5301670000000  0.4798060000000  0.4618570000000 1.0
END
