TITL C-627112-676-406 1.68054147775239e-07 125000 -903.370235830377 0 0 146 (C1) n - 1
REM
REM in /home/nfs/bkarasulu/CARBON/AIRSS/Generating-Clusters/LCBOP/Only-C1/SD-CG/FIRE-CG
REM
REM
REM
REM
REM
REM ./C.cell (11c1c37f851c82e70ff6c80c92926a4b)
REM AIRSS Version 0.9.1 bugfix July 2018 build 013d7b7c2542+ Fri, 06 Jul 2018 19:26:36 +0100
REM compiler GCC version 9.2.1 20190827 (Red Hat 9.2.1-1)
REM options -cpp -mtune=generic -march=x86-64 -g -O0 -fpre-include=/usr/include/finclude/math-vector-fortran.h
REM seed 1435902113 -766422143 1337161971 41748473 1984903776 881367117 2046665357 -990717639 -1013436717 -1190701384 -928822091 1261614284 1100170244 -1182981108 -120103371 1036404951 391351426 -1531769790 -68162588 -880870750 -783711564 -264695541 -1929934920 781649875 -1362632106 -792507754 -647941592 1616234874 577991191 -847585574 -194176862 -2139444626 -566095473
REM
CELL 1.54180   50.00000   50.00000   50.00000   90.00000   90.00000   90.00000
LATT -1
SFAC C  
C      1  0.4431790000000  0.4412010000000  0.4291270000000 1.0
C      1  0.5746490000000  0.5036640000000  0.5187120000000 1.0
C      1  0.4255690000000  0.4561290000000  0.5113500000000 1.0
C      1  0.5773520000000  0.5176840000000  0.4930140000000 1.0
C      1  0.4704950000000  0.4991970000000  0.5972200000000 1.0
C      1  0.5944090000000  0.5397480000000  0.4093900000000 1.0
C      1  0.4502730000000  0.5369550000000  0.5352640000000 1.0
C      1  0.5906640000000  0.4803320000000  0.5210800000000 1.0
C      1  0.5381050000000  0.5719910000000  0.5111590000000 1.0
C      1  0.4318770000000  0.5429210000000  0.5561700000000 1.0
C      1  0.5117110000000  0.5615850000000  0.5063320000000 1.0
C      1  0.5470150000000  0.5491080000000  0.4697940000000 1.0
C      1  0.3954220000000  0.4857070000000  0.4893190000000 1.0
C      1  0.5198520000000  0.4731170000000  0.5502800000000 1.0
C      1  0.5110970000000  0.4638320000000  0.4151150000000 1.0
C      1  0.4958710000000  0.4455380000000  0.4858520000000 1.0
C      1  0.5356880000000  0.4581900000000  0.4318140000000 1.0
C      1  0.5305420000000  0.5095580000000  0.4016890000000 1.0
C      1  0.4682990000000  0.4400730000000  0.4818820000000 1.0
C      1  0.5510860000000  0.4817260000000  0.4397410000000 1.0
C      1  0.5320180000000  0.5226320000000  0.5362430000000 1.0
C      1  0.5494550000000  0.4213730000000  0.5276910000000 1.0
C      1  0.4705340000000  0.4848250000000  0.4677120000000 1.0
C      1  0.4397750000000  0.5495990000000  0.4248280000000 1.0
C      1  0.3928390000000  0.4989420000000  0.5174080000000 1.0
C      1  0.4142860000000  0.4631580000000  0.5547320000000 1.0
C      1  0.5053320000000  0.4610280000000  0.5718300000000 1.0
C      1  0.4601830000000  0.4454350000000  0.6099100000000 1.0
C      1  0.5343470000000  0.5144320000000  0.6211450000000 1.0
C      1  0.4756100000000  0.5001600000000  0.4452250000000 1.0
C      1  0.4716040000000  0.5928890000000  0.5421950000000 1.0
C      1  0.5062270000000  0.5359670000000  0.4993560000000 1.0
C      1  0.4470270000000  0.5392360000000  0.5808560000000 1.0
C      1  0.5308090000000  0.3940790000000  0.4318980000000 1.0
C      1  0.4582430000000  0.5401900000000  0.4887200000000 1.0
C      1  0.5308300000000  0.4208960000000  0.5501250000000 1.0
C      1  0.4254430000000  0.4076070000000  0.6260900000000 1.0
C      1  0.4944650000000  0.5981750000000  0.5558880000000 1.0
C      1  0.4058510000000  0.5322770000000  0.5511090000000 1.0
C      1  0.4580840000000  0.4578440000000  0.5837370000000 1.0
C      1  0.4843490000000  0.5272930000000  0.4822530000000 1.0
C      1  0.4820360000000  0.4749050000000  0.5833630000000 1.0
C      1  0.3978460000000  0.4863810000000  0.5468500000000 1.0
C      1  0.4907550000000  0.4430280000000  0.4104110000000 1.0
C      1  0.4363950000000  0.5234950000000  0.4828670000000 1.0
C      1  0.4683630000000  0.5149710000000  0.5433840000000 1.0
C      1  0.4356790000000  0.4058580000000  0.4921600000000 1.0
C      1  0.4676870000000  0.5568170000000  0.4217630000000 1.0
C      1  0.5406060000000  0.5570120000000  0.5901270000000 1.0
C      1  0.5755810000000  0.5287850000000  0.3927360000000 1.0
C      1  0.4563660000000  0.4615080000000  0.4698480000000 1.0
C      1  0.4265030000000  0.5270690000000  0.4347150000000 1.0
C      1  0.5454720000000  0.4160350000000  0.4990630000000 1.0
C      1  0.5075940000000  0.4913960000000  0.4022740000000 1.0
C      1  0.4105730000000  0.4412460000000  0.4673430000000 1.0
C      1  0.5554470000000  0.5208250000000  0.4737660000000 1.0
C      1  0.4865320000000  0.4114130000000  0.5122360000000 1.0
C      1  0.5021440000000  0.4732860000000  0.6316150000000 1.0
C      1  0.4548670000000  0.4872050000000  0.5422520000000 1.0
C      1  0.5043230000000  0.5990110000000  0.4825500000000 1.0
C      1  0.5264400000000  0.4012750000000  0.4826730000000 1.0
C      1  0.5429980000000  0.5368020000000  0.6082120000000 1.0
C      1  0.5543620000000  0.5059390000000  0.5394910000000 1.0
C      1  0.4993090000000  0.3955970000000  0.4897530000000 1.0
C      1  0.5590050000000  0.5065540000000  0.4000270000000 1.0
C      1  0.4561710000000  0.5538700000000  0.5138310000000 1.0
C      1  0.4914110000000  0.5809630000000  0.5013830000000 1.0
C      1  0.5560760000000  0.5661910000000  0.4907340000000 1.0
C      1  0.6081150000000  0.5389710000000  0.4583680000000 1.0
C      1  0.4759680000000  0.4076860000000  0.4435530000000 1.0
C      1  0.4598710000000  0.4181890000000  0.4992810000000 1.0
C      1  0.5178160000000  0.4549960000000  0.4729000000000 1.0
C      1  0.5768050000000  0.4644880000000  0.5956240000000 1.0
C      1  0.6693040000000  0.5175100000000  0.5292600000000 1.0
C      1  0.5145060000000  0.4330370000000  0.5691070000000 1.0
C      1  0.5278070000000  0.5630440000000  0.5652430000000 1.0
C      1  0.5869530000000  0.4534480000000  0.5145280000000 1.0
C      1  0.5954400000000  0.4990900000000  0.4322220000000 1.0
C      1  0.5824430000000  0.4472820000000  0.4871940000000 1.0
C      1  0.4176110000000  0.5221810000000  0.4617420000000 1.0
C      1  0.4168800000000  0.5036510000000  0.5896620000000 1.0
C      1  0.4813940000000  0.5072590000000  0.4018150000000 1.0
C      1  0.4834940000000  0.4967820000000  0.4901810000000 1.0
C      1  0.5877930000000  0.6079760000000  0.4498500000000 1.0
C      1  0.4165010000000  0.4145520000000  0.4750270000000 1.0
C      1  0.4800810000000  0.5373880000000  0.4028830000000 1.0
C      1  0.4615320000000  0.4972940000000  0.4207010000000 1.0
C      1  0.4875200000000  0.5418050000000  0.6062800000000 1.0
C      1  0.4821520000000  0.4551390000000  0.6265330000000 1.0
C      1  0.4905400000000  0.5238610000000  0.4525800000000 1.0
C      1  0.4154120000000  0.4814230000000  0.4399350000000 1.0
C      1  0.4425650000000  0.4795760000000  0.5165590000000 1.0
C      1  0.5292850000000  0.4096090000000  0.4540530000000 1.0
C      1  0.4206350000000  0.4531340000000  0.4426850000000 1.0
C      1  0.5742300000000  0.4351930000000  0.5322350000000 1.0
C      1  0.5367770000000  0.4391570000000  0.4561350000000 1.0
C      1  0.5039840000000  0.5820150000000  0.4572510000000 1.0
C      1  0.6256200000000  0.5220300000000  0.5003850000000 1.0
C      1  0.4152730000000  0.4436210000000  0.5344460000000 1.0
C      1  0.4911190000000  0.4323630000000  0.3842320000000 1.0
C      1  0.4829950000000  0.3931390000000  0.4655510000000 1.0
C      1  0.4071760000000  0.4590260000000  0.4897650000000 1.0
C      1  0.4529310000000  0.5849110000000  0.4594540000000 1.0
C      1  0.4690470000000  0.5786980000000  0.5178190000000 1.0
C      1  0.4438360000000  0.5124440000000  0.5927500000000 1.0
C      1  0.3966670000000  0.5290160000000  0.5230280000000 1.0
C      1  0.6025920000000  0.5265540000000  0.4334410000000 1.0
C      1  0.6470560000000  0.5682450000000  0.4613450000000 1.0
C      1  0.6034030000000  0.5261380000000  0.4837840000000 1.0
C      1  0.6475280000000  0.5195890000000  0.5150810000000 1.0
C      1  0.5099050000000  0.5002320000000  0.6249570000000 1.0
C      1  0.4425240000000  0.4257970000000  0.6185750000000 1.0
C      1  0.6030980000000  0.5874700000000  0.4548070000000 1.0
C      1  0.5328070000000  0.5968050000000  0.5252010000000 1.0
C      1  0.5264020000000  0.4808460000000  0.4806410000000 1.0
C      1  0.5180320000000  0.5154050000000  0.5135190000000 1.0
C      1  0.4916910000000  0.4225550000000  0.3600960000000 1.0
C      1  0.4753720000000  0.5455470000000  0.5808350000000 1.0
C      1  0.5164790000000  0.5387560000000  0.5537220000000 1.0
C      1  0.4331550000000  0.4999910000000  0.4244370000000 1.0
C      1  0.5089390000000  0.4661800000000  0.5245870000000 1.0
C      1  0.5097090000000  0.4889610000000  0.5040860000000 1.0
C      1  0.4702720000000  0.4311830000000  0.4278700000000 1.0
C      1  0.5116820000000  0.5379660000000  0.4402270000000 1.0
C      1  0.4993530000000  0.4393130000000  0.5141560000000 1.0
C      1  0.5589350000000  0.4347930000000  0.4787950000000 1.0
C      1  0.5702210000000  0.4914370000000  0.4219260000000 1.0
C      1  0.5625700000000  0.4735650000000  0.5757740000000 1.0
C      1  0.6727900000000  0.5700690000000  0.4650330000000 1.0
C      1  0.5465320000000  0.4831600000000  0.5551220000000 1.0
C      1  0.6194640000000  0.5651160000000  0.4583100000000 1.0
C      1  0.4372800000000  0.5009680000000  0.4994420000000 1.0
C      1  0.5441430000000  0.4957890000000  0.4641780000000 1.0
C      1  0.5223960000000  0.6135220000000  0.5018970000000 1.0
C      1  0.4882420000000  0.5145470000000  0.6137130000000 1.0
C      1  0.5213820000000  0.5891310000000  0.5518360000000 1.0
C      1  0.4108870000000  0.5695170000000  0.4889450000000 1.0
C      1  0.4009020000000  0.5079980000000  0.5662340000000 1.0
C      1  0.5237520000000  0.5330470000000  0.4157140000000 1.0
C      1  0.5232890000000  0.5590370000000  0.4553020000000 1.0
C      1  0.4763660000000  0.5762010000000  0.4438360000000 1.0
C      1  0.4890570000000  0.5310990000000  0.5589050000000 1.0
C      1  0.3988620000000  0.5510020000000  0.5048450000000 1.0
C      1  0.4023490000000  0.4970830000000  0.4628780000000 1.0
C      1  0.4416580000000  0.4693530000000  0.5630500000000 1.0
C      1  0.4298390000000  0.5813290000000  0.4734000000000 1.0
END
