TITL C-627109-622-1621 0.00122305622496064 125000 -414.176614963979 0 0 68 (C1) n - 1
REM
REM in /home/nfs/bkarasulu/CARBON/AIRSS/Generating-Clusters/LCBOP/Only-C1/SD-CG/FIRE-CG
REM
REM
REM
REM
REM
REM ./C.cell (11c1c37f851c82e70ff6c80c92926a4b)
REM AIRSS Version 0.9.1 bugfix July 2018 build 013d7b7c2542+ Fri, 06 Jul 2018 19:26:36 +0100
REM compiler GCC version 9.2.1 20190827 (Red Hat 9.2.1-1)
REM options -cpp -mtune=generic -march=x86-64 -g -O0 -fpre-include=/usr/include/finclude/math-vector-fortran.h
REM seed -2018164516 23918594 1147794853 -1694520993 -1162872839 -1676095577 1609570829 -855718239 1571907881 1683116623 176089549 15048905 1333938263 -741661673 1234013210 521042186 -2027312135 -308535949 -875230190 -1675467697 1338830010 -611741928 482222497 193406361 -1386285365 1802957486 277557322 -1537147410 -878034674 3312235 1794053140 -1580358941 -647903620
REM
CELL 1.54180   50.00000   50.00000   50.00000   90.00000   90.00000   90.00000
LATT -1
SFAC C  
C      1  0.5117230000000  0.5337560000000  0.5151310000000 1.0
C      1  0.5239350000000  0.4747820000000  0.4859140000000 1.0
C      1  0.4980560000000  0.5411160000000  0.4902040000000 1.0
C      1  0.4811140000000  0.4846410000000  0.4096230000000 1.0
C      1  0.5256570000000  0.5412680000000  0.5618030000000 1.0
C      1  0.5844400000000  0.4200150000000  0.4527190000000 1.0
C      1  0.5048090000000  0.4885920000000  0.5014290000000 1.0
C      1  0.5178410000000  0.5059100000000  0.5194050000000 1.0
C      1  0.5701190000000  0.4608710000000  0.4766240000000 1.0
C      1  0.6081610000000  0.4938900000000  0.5454890000000 1.0
C      1  0.4683320000000  0.4989350000000  0.5952470000000 1.0
C      1  0.4673260000000  0.4688000000000  0.5557050000000 1.0
C      1  0.5175000000000  0.5107010000000  0.4546930000000 1.0
C      1  0.4364840000000  0.5530450000000  0.5118230000000 1.0
C      1  0.5607470000000  0.4774100000000  0.5256820000000 1.0
C      1  0.5319070000000  0.4502000000000  0.4988920000000 1.0
C      1  0.4635860000000  0.5271340000000  0.5933120000000 1.0
C      1  0.4952850000000  0.4652840000000  0.5577470000000 1.0
C      1  0.5107620000000  0.5350340000000  0.5852070000000 1.0
C      1  0.4455720000000  0.4783850000000  0.4415040000000 1.0
C      1  0.5852650000000  0.4856470000000  0.5361670000000 1.0
C      1  0.4816700000000  0.5642890000000  0.4866510000000 1.0
C      1  0.4940650000000  0.5212270000000  0.4694990000000 1.0
C      1  0.5205440000000  0.4738090000000  0.5544650000000 1.0
C      1  0.4126860000000  0.4987080000000  0.5563070000000 1.0
C      1  0.5212510000000  0.6527950000000  0.4784710000000 1.0
C      1  0.5098580000000  0.6298720000000  0.4735330000000 1.0
C      1  0.6032190000000  0.4019330000000  0.4479980000000 1.0
C      1  0.4365130000000  0.4852280000000  0.5172650000000 1.0
C      1  0.4260590000000  0.4858210000000  0.5758100000000 1.0
C      1  0.4982920000000  0.6065450000000  0.4686400000000 1.0
C      1  0.4224380000000  0.5056540000000  0.5308130000000 1.0
C      1  0.4571860000000  0.5651070000000  0.5003050000000 1.0
C      1  0.5595270000000  0.4572540000000  0.5044580000000 1.0
C      1  0.4787020000000  0.5669940000000  0.5670290000000 1.0
C      1  0.5102480000000  0.4327900000000  0.5055910000000 1.0
C      1  0.5648520000000  0.4390720000000  0.4580940000000 1.0
C      1  0.4700010000000  0.5041000000000  0.4732360000000 1.0
C      1  0.4236890000000  0.5320290000000  0.5218610000000 1.0
C      1  0.4320450000000  0.4775380000000  0.4891060000000 1.0
C      1  0.4829190000000  0.4371920000000  0.4981950000000 1.0
C      1  0.5160800000000  0.5122440000000  0.4266380000000 1.0
C      1  0.4943890000000  0.4936710000000  0.6053960000000 1.0
C      1  0.4812990000000  0.4825080000000  0.4880510000000 1.0
C      1  0.4754430000000  0.5573830000000  0.4178190000000 1.0
C      1  0.5390940000000  0.4378210000000  0.4456170000000 1.0
C      1  0.4817260000000  0.4561170000000  0.4758840000000 1.0
C      1  0.4833770000000  0.5457630000000  0.5852270000000 1.0
C      1  0.4874270000000  0.4533560000000  0.4479690000000 1.0
C      1  0.6217110000000  0.3841440000000  0.4433900000000 1.0
C      1  0.4538500000000  0.4647150000000  0.5307040000000 1.0
C      1  0.5360530000000  0.4919900000000  0.4666260000000 1.0
C      1  0.4439790000000  0.4922090000000  0.4664930000000 1.0
C      1  0.4927540000000  0.5696120000000  0.5438400000000 1.0
C      1  0.5355600000000  0.4891410000000  0.5357580000000 1.0
C      1  0.5128930000000  0.4425890000000  0.4411780000000 1.0
C      1  0.4934790000000  0.5100110000000  0.4098400000000 1.0
C      1  0.4701790000000  0.4686490000000  0.4302330000000 1.0
C      1  0.4798150000000  0.5341410000000  0.4052860000000 1.0
C      1  0.4358860000000  0.4482940000000  0.4913080000000 1.0
C      1  0.4573380000000  0.4420210000000  0.5113020000000 1.0
C      1  0.4862260000000  0.5817310000000  0.4645940000000 1.0
C      1  0.5144200000000  0.5116370000000  0.6008620000000 1.0
C      1  0.5133220000000  0.5508650000000  0.5377420000000 1.0
C      1  0.4539100000000  0.4816930000000  0.5778400000000 1.0
C      1  0.4785570000000  0.5735200000000  0.4388130000000 1.0
C      1  0.5641040000000  0.4869520000000  0.4651140000000 1.0
C      1  0.5827420000000  0.5038500000000  0.4548290000000 1.0
END
