TITL C-627107-135-1202 12295.9134001645 125000 -632.84292433647 0 0 103 (C1) n - 1
REM
REM in /home/nfs/bkarasulu/CARBON/AIRSS/Generating-Clusters/LCBOP/Only-C1/SD-CG/FIRE-CG
REM
REM
REM
REM
REM
REM ./C.cell (11c1c37f851c82e70ff6c80c92926a4b)
REM AIRSS Version 0.9.1 bugfix July 2018 build 013d7b7c2542+ Fri, 06 Jul 2018 19:26:36 +0100
REM compiler GCC version 9.2.1 20190827 (Red Hat 9.2.1-1)
REM options -cpp -mtune=generic -march=x86-64 -g -O0 -fpre-include=/usr/include/finclude/math-vector-fortran.h
REM seed -212163661 -601326714 -92496920 754457655 1778707796 -1728544483 94284098 1992703512 -1061176291 -1643807557 1733986482 -634327880 1961719996 1439884031 1322163914 -337325831 -1456429625 2054236073 -2018868666 550335447 574526172 485644290 -260645135 1586711788 768945744 746325324 161490881 241063416 -2023728513 -896172581 -430679654 -1154603793 1441567493
REM
CELL 1.54180   50.00000   50.00000   50.00000   90.00000   90.00000   90.00000
LATT -1
SFAC C  
C      1  0.5431570000000  0.4787520000000  0.4228940000000 1.0
C      1  0.4081640000000  0.4569350000000  0.5003710000000 1.0
C      1  0.4808200000000  0.5045230000000  0.6064340000000 1.0
C      1  0.5281370000000  0.6059650000000  0.4702510000000 1.0
C      1  0.5204450000000  0.5072230000000  0.5277790000000 1.0
C      1  0.5947450000000  0.5612620000000  0.4946220000000 1.0
C      1  0.5464040000000  0.5606850000000  0.5066980000000 1.0
C      1  0.5073000000000  0.5098390000000  0.5026840000000 1.0
C      1  0.4198080000000  0.5047000000000  0.5411540000000 1.0
C      1  0.4999140000000  0.4284230000000  0.4300590000000 1.0
C      1  0.4768940000000  0.5677440000000  0.5307020000000 1.0
C      1  0.5224500000000  0.6004540000000  0.4958780000000 1.0
C      1  0.5724670000000  0.4410380000000  0.5318870000000 1.0
C      1  0.5063630000000  0.4908230000000  0.5466720000000 1.0
C      1  0.4654950000000  0.5764660000000  0.5059610000000 1.0
C      1  0.5428700000000  0.4552520000000  0.4948000000000 1.0
C      1  0.4010930000000  0.4994000000000  0.4755640000000 1.0
C      1  0.5824330000000  0.5405500000000  0.5340520000000 1.0
C      1  0.5618820000000  0.5186890000000  0.5806750000000 1.0
C      1  0.4945640000000  0.4390280000000  0.4970850000000 1.0
C      1  0.6128840000000  0.5409330000000  0.4922270000000 1.0
C      1  0.4979470000000  0.4559770000000  0.4263390000000 1.0
C      1  0.4670160000000  0.4192100000000  0.4611090000000 1.0
C      1  0.5529320000000  0.4729430000000  0.4501940000000 1.0
C      1  0.5311910000000  0.5585450000000  0.5731380000000 1.0
C      1  0.4304170000000  0.5152970000000  0.5672960000000 1.0
C      1  0.4711450000000  0.4766200000000  0.5105440000000 1.0
C      1  0.5880380000000  0.4931650000000  0.5453990000000 1.0
C      1  0.4475890000000  0.5134890000000  0.4558030000000 1.0
C      1  0.5015920000000  0.5015500000000  0.4144290000000 1.0
C      1  0.5498220000000  0.4495380000000  0.4667040000000 1.0
C      1  0.4453140000000  0.5174850000000  0.5024530000000 1.0
C      1  0.5814590000000  0.4212390000000  0.5485620000000 1.0
C      1  0.5396110000000  0.5422280000000  0.4860560000000 1.0
C      1  0.4616000000000  0.5247670000000  0.4791070000000 1.0
C      1  0.5051870000000  0.5749750000000  0.5353120000000 1.0
C      1  0.5739520000000  0.5592730000000  0.5142740000000 1.0
C      1  0.4216890000000  0.4751490000000  0.5416770000000 1.0
C      1  0.5174050000000  0.5372300000000  0.4453410000000 1.0
C      1  0.5560380000000  0.5201250000000  0.4777840000000 1.0
C      1  0.4264180000000  0.4547230000000  0.5214290000000 1.0
C      1  0.5251790000000  0.5790880000000  0.5143140000000 1.0
C      1  0.5376780000000  0.5247700000000  0.5404020000000 1.0
C      1  0.4740460000000  0.4149830000000  0.4330680000000 1.0
C      1  0.5962430000000  0.5157040000000  0.5296760000000 1.0
C      1  0.4915360000000  0.4682030000000  0.5393680000000 1.0
C      1  0.5363110000000  0.5969150000000  0.4464340000000 1.0
C      1  0.5411410000000  0.4112220000000  0.5000270000000 1.0
C      1  0.3992510000000  0.4709550000000  0.4773570000000 1.0
C      1  0.5790660000000  0.4999470000000  0.5715270000000 1.0
C      1  0.4521390000000  0.5349960000000  0.5711870000000 1.0
C      1  0.5436840000000  0.5345780000000  0.5662210000000 1.0
C      1  0.5142670000000  0.4199230000000  0.4545400000000 1.0
C      1  0.5139490000000  0.5780860000000  0.5624840000000 1.0
C      1  0.5148080000000  0.4608200000000  0.4964530000000 1.0
C      1  0.4507770000000  0.4377650000000  0.5297830000000 1.0
C      1  0.4343540000000  0.4662630000000  0.5669140000000 1.0
C      1  0.5058240000000  0.5994970000000  0.5774040000000 1.0
C      1  0.4918940000000  0.5302960000000  0.4865250000000 1.0
C      1  0.4946670000000  0.4041930000000  0.5256270000000 1.0
C      1  0.4262680000000  0.4424260000000  0.4516770000000 1.0
C      1  0.4620390000000  0.5782220000000  0.4792610000000 1.0
C      1  0.5147570000000  0.4753120000000  0.4146560000000 1.0
C      1  0.5534180000000  0.4349480000000  0.5119500000000 1.0
C      1  0.6148220000000  0.5169680000000  0.5077880000000 1.0
C      1  0.5607040000000  0.4968240000000  0.4649080000000 1.0
C      1  0.5824700000000  0.4674360000000  0.5351950000000 1.0
C      1  0.3965930000000  0.5153480000000  0.4987010000000 1.0
C      1  0.4620410000000  0.5725020000000  0.4528930000000 1.0
C      1  0.3729700000000  0.5276670000000  0.5041950000000 1.0
C      1  0.4811870000000  0.4541090000000  0.5622800000000 1.0
C      1  0.4894570000000  0.5098400000000  0.5596950000000 1.0
C      1  0.4759750000000  0.5198710000000  0.5834470000000 1.0
C      1  0.4616650000000  0.4965590000000  0.4375960000000 1.0
C      1  0.6327800000000  0.4972400000000  0.5022120000000 1.0
C      1  0.5398200000000  0.4220850000000  0.4653660000000 1.0
C      1  0.4882420000000  0.4784860000000  0.6070190000000 1.0
C      1  0.4789900000000  0.4756720000000  0.4516550000000 1.0
C      1  0.5024230000000  0.4915900000000  0.4604070000000 1.0
C      1  0.4645130000000  0.5456900000000  0.5456300000000 1.0
C      1  0.5411850000000  0.5761080000000  0.4302790000000 1.0
C      1  0.5140750000000  0.5439650000000  0.4725940000000 1.0
C      1  0.4642010000000  0.4646380000000  0.4774720000000 1.0
C      1  0.4928590000000  0.4217520000000  0.4741280000000 1.0
C      1  0.4638590000000  0.5591520000000  0.4295100000000 1.0
C      1  0.4194540000000  0.5105360000000  0.4570180000000 1.0
C      1  0.5098840000000  0.5109260000000  0.4408170000000 1.0
C      1  0.4901820000000  0.4588650000000  0.5885980000000 1.0
C      1  0.4031830000000  0.4559360000000  0.4538980000000 1.0
C      1  0.4753270000000  0.5204410000000  0.5367240000000 1.0
C      1  0.4541660000000  0.4468110000000  0.5582330000000 1.0
C      1  0.5551990000000  0.5023550000000  0.4112580000000 1.0
C      1  0.4498470000000  0.4409270000000  0.4669520000000 1.0
C      1  0.4639500000000  0.5030900000000  0.5178680000000 1.0
C      1  0.4738660000000  0.5098810000000  0.4146980000000 1.0
C      1  0.4775790000000  0.4269640000000  0.5185700000000 1.0
C      1  0.4674770000000  0.5377020000000  0.4133520000000 1.0
C      1  0.5371800000000  0.5484580000000  0.4279850000000 1.0
C      1  0.4196100000000  0.5170650000000  0.5151430000000 1.0
C      1  0.4328980000000  0.4901310000000  0.5830580000000 1.0
C      1  0.5524130000000  0.5292990000000  0.4134760000000 1.0
C      1  0.5195410000000  0.3990500000000  0.5144090000000 1.0
C      1  0.5094650000000  0.4867410000000  0.4867190000000 1.0
END
