TITL C-627113-6568-1680 0.00334623321912312 125000 -354.155959721578 0 0 59 (C1) n - 1
REM
REM in /home/nfs/bkarasulu/CARBON/AIRSS/Generating-Clusters/LCBOP/Only-C1/SD-CG/FIRE-CG
REM
REM
REM
REM
REM
REM ./C.cell (11c1c37f851c82e70ff6c80c92926a4b)
REM AIRSS Version 0.9.1 bugfix July 2018 build 013d7b7c2542+ Fri, 06 Jul 2018 19:26:36 +0100
REM compiler GCC version 9.2.1 20190827 (Red Hat 9.2.1-1)
REM options -cpp -mtune=generic -march=x86-64 -g -O0 -fpre-include=/usr/include/finclude/math-vector-fortran.h
REM seed -1137406528 -265660586 -1324605837 399461865 1624726977 -1992033572 -88086970 -99606314 1740157152 -1082470928 -1773883344 855962016 2013684839 2046177796 2117044084 2145546456 748586792 -589457208 -499613130 -449628012 -697215483 -1924723257 216479592 -1758625762 2075420293 1865888815 1151267 -1497244972 1062356011 -532003973 -1878494031 1124827267 -1099707744
REM
CELL 1.54180   50.00000   50.00000   50.00000   90.00000   90.00000   90.00000
LATT -1
SFAC C  
C      1  0.5098440000000  0.5210190000000  0.5363170000000 1.0
C      1  0.5468640000000  0.4692960000000  0.5007190000000 1.0
C      1  0.4983770000000  0.4176420000000  0.5403870000000 1.0
C      1  0.4269970000000  0.5311900000000  0.6024490000000 1.0
C      1  0.5290950000000  0.4732600000000  0.5628090000000 1.0
C      1  0.5674640000000  0.5339840000000  0.4265680000000 1.0
C      1  0.4380880000000  0.4416190000000  0.4960890000000 1.0
C      1  0.4744440000000  0.4714040000000  0.4466150000000 1.0
C      1  0.5563950000000  0.5574660000000  0.4734570000000 1.0
C      1  0.4730040000000  0.4899560000000  0.5160700000000 1.0
C      1  0.4311040000000  0.5107810000000  0.4674880000000 1.0
C      1  0.5285230000000  0.5128980000000  0.4934540000000 1.0
C      1  0.5227030000000  0.4860220000000  0.5049460000000 1.0
C      1  0.4500280000000  0.4831670000000  0.5324790000000 1.0
C      1  0.5815130000000  0.4937700000000  0.4488300000000 1.0
C      1  0.5343140000000  0.5477590000000  0.4570100000000 1.0
C      1  0.4215660000000  0.4833050000000  0.4710820000000 1.0
C      1  0.5718170000000  0.4764480000000  0.5150020000000 1.0
C      1  0.5394960000000  0.5174350000000  0.5392650000000 1.0
C      1  0.4799050000000  0.4715490000000  0.5686680000000 1.0
C      1  0.4542730000000  0.4280410000000  0.5125960000000 1.0
C      1  0.4239190000000  0.4879180000000  0.5258290000000 1.0
C      1  0.5709200000000  0.4799160000000  0.5429250000000 1.0
C      1  0.4460140000000  0.5210220000000  0.4909460000000 1.0
C      1  0.4757010000000  0.4198020000000  0.5263400000000 1.0
C      1  0.5290250000000  0.5755900000000  0.5123260000000 1.0
C      1  0.4349600000000  0.4574470000000  0.4729600000000 1.0
C      1  0.5879340000000  0.4965100000000  0.5024300000000 1.0
C      1  0.4510090000000  0.5386250000000  0.5563130000000 1.0
C      1  0.5679650000000  0.4714750000000  0.4551740000000 1.0
C      1  0.4820480000000  0.5799860000000  0.5009280000000 1.0
C      1  0.5424630000000  0.5444950000000  0.4300260000000 1.0
C      1  0.4510260000000  0.5439970000000  0.5066180000000 1.0
C      1  0.5499050000000  0.5228060000000  0.5119770000000 1.0
C      1  0.5493880000000  0.5743150000000  0.4948380000000 1.0
C      1  0.5757840000000  0.5218710000000  0.4990290000000 1.0
C      1  0.4553250000000  0.4729860000000  0.5581720000000 1.0
C      1  0.4567190000000  0.5044830000000  0.4196930000000 1.0
C      1  0.4692710000000  0.4784550000000  0.4170140000000 1.0
C      1  0.4936260000000  0.5438100000000  0.5309520000000 1.0
C      1  0.4579770000000  0.5688830000000  0.4948090000000 1.0
C      1  0.4686420000000  0.5016710000000  0.4907990000000 1.0
C      1  0.5339420000000  0.4454330000000  0.5654010000000 1.0
C      1  0.5520940000000  0.4606710000000  0.4741090000000 1.0
C      1  0.4388400000000  0.5355900000000  0.5796470000000 1.0
C      1  0.5768890000000  0.5365990000000  0.4744950000000 1.0
C      1  0.5024780000000  0.5676300000000  0.5167020000000 1.0
C      1  0.5197910000000  0.4250010000000  0.5547650000000 1.0
C      1  0.5805520000000  0.5220150000000  0.4491340000000 1.0
C      1  0.5028690000000  0.4781550000000  0.5542080000000 1.0
C      1  0.4533250000000  0.4509960000000  0.4519840000000 1.0
C      1  0.4471470000000  0.4389620000000  0.4265360000000 1.0
C      1  0.5482160000000  0.4928330000000  0.5538510000000 1.0
C      1  0.5199240000000  0.5276690000000  0.4710620000000 1.0
C      1  0.4526100000000  0.5115100000000  0.4472030000000 1.0
C      1  0.4736750000000  0.4953740000000  0.4628750000000 1.0
C      1  0.5007490000000  0.4917870000000  0.5273980000000 1.0
C      1  0.4568110000000  0.4548400000000  0.4060530000000 1.0
C      1  0.4646540000000  0.5408590000000  0.5321770000000 1.0
END
