TITL C-627112-676-249 90117.8692561277 125000 -1047.21691573392 0 0 170 (C1) n - 1
REM
REM in /home/nfs/bkarasulu/CARBON/AIRSS/Generating-Clusters/LCBOP/Only-C1/SD-CG/FIRE-CG
REM
REM
REM
REM
REM
REM ./C.cell (11c1c37f851c82e70ff6c80c92926a4b)
REM AIRSS Version 0.9.1 bugfix July 2018 build 013d7b7c2542+ Fri, 06 Jul 2018 19:26:36 +0100
REM compiler GCC version 9.2.1 20190827 (Red Hat 9.2.1-1)
REM options -cpp -mtune=generic -march=x86-64 -g -O0 -fpre-include=/usr/include/finclude/math-vector-fortran.h
REM seed -557007983 -1403154377 655801676 1361228187 -519650972 -768717612 853707066 42803743 -1730213358 -250783407 -875952585 -570304671 -804056188 -1842842079 612775117 643042642 -1431169528 -300982663 2122920085 -1422615343 -1233580560 859484706 -1279937828 110465050 1361646064 -794729050 -1907997089 980252421 449428396 -1474376664 -1984887070 854840098 -284068976
REM
CELL 1.54180   50.00000   50.00000   50.00000   90.00000   90.00000   90.00000
LATT -1
SFAC C  
C      1  0.5154850000000  0.4657230000000  0.4017360000000 1.0
C      1  0.5082100000000  0.4284970000000  0.5603600000000 1.0
C      1  0.5397530000000  0.5302750000000  0.5408690000000 1.0
C      1  0.4020000000000  0.5132730000000  0.4228920000000 1.0
C      1  0.4843220000000  0.6273650000000  0.5116320000000 1.0
C      1  0.4421470000000  0.4213990000000  0.5523030000000 1.0
C      1  0.4930640000000  0.4278340000000  0.5363190000000 1.0
C      1  0.4876810000000  0.5558400000000  0.3936820000000 1.0
C      1  0.4588990000000  0.4167240000000  0.5072870000000 1.0
C      1  0.5226490000000  0.5138260000000  0.5561850000000 1.0
C      1  0.6134400000000  0.5138980000000  0.5521170000000 1.0
C      1  0.5961190000000  0.4342940000000  0.4774830000000 1.0
C      1  0.5088310000000  0.4365940000000  0.4808300000000 1.0
C      1  0.4118750000000  0.5434880000000  0.4874130000000 1.0
C      1  0.4741280000000  0.3974960000000  0.4917940000000 1.0
C      1  0.3694230000000  0.5416300000000  0.5343320000000 1.0
C      1  0.3785090000000  0.4712360000000  0.4728900000000 1.0
C      1  0.4177840000000  0.4893130000000  0.4178810000000 1.0
C      1  0.4250520000000  0.4687260000000  0.4730290000000 1.0
C      1  0.5212420000000  0.5432620000000  0.4562680000000 1.0
C      1  0.4950930000000  0.4556010000000  0.4644260000000 1.0
C      1  0.3733250000000  0.4896800000000  0.4936940000000 1.0
C      1  0.5678560000000  0.4676170000000  0.4547040000000 1.0
C      1  0.6182540000000  0.4876160000000  0.5421030000000 1.0
C      1  0.4452570000000  0.4620520000000  0.5728830000000 1.0
C      1  0.4824980000000  0.5759260000000  0.5269160000000 1.0
C      1  0.5546870000000  0.4813450000000  0.4761720000000 1.0
C      1  0.5555940000000  0.4666420000000  0.4296200000000 1.0
C      1  0.6015370000000  0.5283800000000  0.5036260000000 1.0
C      1  0.5580760000000  0.5967870000000  0.5274570000000 1.0
C      1  0.6223610000000  0.4972340000000  0.4539140000000 1.0
C      1  0.5981900000000  0.4992420000000  0.4973250000000 1.0
C      1  0.4208390000000  0.4386090000000  0.4278520000000 1.0
C      1  0.5099470000000  0.4183700000000  0.4094480000000 1.0
C      1  0.4779450000000  0.5915220000000  0.4588210000000 1.0
C      1  0.5913810000000  0.5340200000000  0.5926690000000 1.0
C      1  0.5618750000000  0.5681190000000  0.6238230000000 1.0
C      1  0.5881760000000  0.4317220000000  0.6218020000000 1.0
C      1  0.5353660000000  0.5581660000000  0.5461070000000 1.0
C      1  0.4851730000000  0.4855840000000  0.5552570000000 1.0
C      1  0.5750130000000  0.4400450000000  0.5993440000000 1.0
C      1  0.5111720000000  0.3984890000000  0.4271090000000 1.0
C      1  0.4130270000000  0.4218120000000  0.4504810000000 1.0
C      1  0.4536720000000  0.5223200000000  0.4054610000000 1.0
C      1  0.3791270000000  0.5670750000000  0.5292280000000 1.0
C      1  0.3971460000000  0.4361170000000  0.4996280000000 1.0
C      1  0.4842570000000  0.5763540000000  0.4108950000000 1.0
C      1  0.5094520000000  0.4858510000000  0.4988830000000 1.0
C      1  0.5573580000000  0.4682500000000  0.5027760000000 1.0
C      1  0.5037390000000  0.6086250000000  0.4980060000000 1.0
C      1  0.5744510000000  0.5725300000000  0.4876330000000 1.0
C      1  0.4666160000000  0.4113840000000  0.5368130000000 1.0
C      1  0.5935660000000  0.4602750000000  0.4655350000000 1.0
C      1  0.5283430000000  0.5642820000000  0.4389640000000 1.0
C      1  0.4236240000000  0.5582040000000  0.5317440000000 1.0
C      1  0.4798150000000  0.5297510000000  0.5367470000000 1.0
C      1  0.5065910000000  0.4805490000000  0.4716380000000 1.0
C      1  0.4089520000000  0.4651130000000  0.4302890000000 1.0
C      1  0.4684740000000  0.4598590000000  0.4548370000000 1.0
C      1  0.5553510000000  0.5165370000000  0.5211120000000 1.0
C      1  0.4408220000000  0.6052850000000  0.4940990000000 1.0
C      1  0.4462460000000  0.4946800000000  0.4151910000000 1.0
C      1  0.4790050000000  0.3936350000000  0.4641230000000 1.0
C      1  0.5021050000000  0.4404000000000  0.5110970000000 1.0
C      1  0.5480610000000  0.6261380000000  0.5671140000000 1.0
C      1  0.5008880000000  0.6243560000000  0.5628230000000 1.0
C      1  0.5343730000000  0.5803300000000  0.5281800000000 1.0
C      1  0.4827340000000  0.5045070000000  0.4410250000000 1.0
C      1  0.5591770000000  0.3880960000000  0.5526830000000 1.0
C      1  0.5295110000000  0.5170140000000  0.4547560000000 1.0
C      1  0.5235870000000  0.3938700000000  0.5008650000000 1.0
C      1  0.4906580000000  0.6325740000000  0.5391930000000 1.0
C      1  0.6079480000000  0.4842500000000  0.4743590000000 1.0
C      1  0.5490170000000  0.5091320000000  0.4736450000000 1.0
C      1  0.5421950000000  0.5846930000000  0.6122440000000 1.0
C      1  0.5054800000000  0.3903210000000  0.4531480000000 1.0
C      1  0.5265620000000  0.5659710000000  0.5718930000000 1.0
C      1  0.4123120000000  0.5706090000000  0.4774470000000 1.0
C      1  0.5092260000000  0.4671400000000  0.5194310000000 1.0
C      1  0.4128910000000  0.4439850000000  0.5446960000000 1.0
C      1  0.4054650000000  0.5792300000000  0.5234640000000 1.0
C      1  0.4550120000000  0.5081780000000  0.4969510000000 1.0
C      1  0.5097600000000  0.4727280000000  0.5467600000000 1.0
C      1  0.5397950000000  0.5303640000000  0.4019570000000 1.0
C      1  0.4443540000000  0.4358030000000  0.4119050000000 1.0
C      1  0.5562630000000  0.5852260000000  0.4694290000000 1.0
C      1  0.4398490000000  0.4914470000000  0.5135620000000 1.0
C      1  0.5874470000000  0.4578430000000  0.5809290000000 1.0
C      1  0.4561980000000  0.6270520000000  0.5046330000000 1.0
C      1  0.4607270000000  0.5878790000000  0.4820000000000 1.0
C      1  0.5976950000000  0.4234520000000  0.5419570000000 1.0
C      1  0.5367540000000  0.5545700000000  0.4138130000000 1.0
C      1  0.3964030000000  0.5191770000000  0.4499620000000 1.0
C      1  0.4794970000000  0.3853350000000  0.5494530000000 1.0
C      1  0.5797630000000  0.5445510000000  0.4915510000000 1.0
C      1  0.5305870000000  0.5876780000000  0.4564890000000 1.0
C      1  0.5259990000000  0.4286580000000  0.5802340000000 1.0
C      1  0.5786810000000  0.5885530000000  0.5104370000000 1.0
C      1  0.5454700000000  0.4415150000000  0.5046830000000 1.0
C      1  0.5274980000000  0.5887330000000  0.5886270000000 1.0
C      1  0.4680220000000  0.5801900000000  0.4337670000000 1.0
C      1  0.4934650000000  0.5132780000000  0.5543190000000 1.0
C      1  0.5310940000000  0.4865190000000  0.5596830000000 1.0
C      1  0.4966370000000  0.3874820000000  0.5069530000000 1.0
C      1  0.4417210000000  0.5670850000000  0.4316320000000 1.0
C      1  0.5648770000000  0.5672650000000  0.6510060000000 1.0
C      1  0.5730620000000  0.4174680000000  0.4814790000000 1.0
C      1  0.4656830000000  0.4817550000000  0.4340500000000 1.0
C      1  0.4751400000000  0.5240700000000  0.5089170000000 1.0
C      1  0.5263230000000  0.3868480000000  0.4726700000000 1.0
C      1  0.6186210000000  0.4246320000000  0.5222960000000 1.0
C      1  0.5385050000000  0.4352920000000  0.4769510000000 1.0
C      1  0.5504410000000  0.4786300000000  0.5764250000000 1.0
C      1  0.4171710000000  0.4619930000000  0.5660480000000 1.0
C      1  0.4520510000000  0.4674640000000  0.5235260000000 1.0
C      1  0.4655940000000  0.5234380000000  0.4528910000000 1.0
C      1  0.5084920000000  0.5882740000000  0.5191980000000 1.0
C      1  0.4827450000000  0.5456420000000  0.4927680000000 1.0
C      1  0.4167010000000  0.5353810000000  0.5144540000000 1.0
C      1  0.4493430000000  0.4556680000000  0.4759300000000 1.0
C      1  0.4427990000000  0.5540810000000  0.5521020000000 1.0
C      1  0.4360890000000  0.5447780000000  0.4131240000000 1.0
C      1  0.6109250000000  0.5328420000000  0.5306750000000 1.0
C      1  0.3986900000000  0.4538680000000  0.5221250000000 1.0
C      1  0.4539900000000  0.4455620000000  0.5027520000000 1.0
C      1  0.5331130000000  0.3797290000000  0.5563810000000 1.0
C      1  0.4157000000000  0.5908520000000  0.4983090000000 1.0
C      1  0.4768830000000  0.5310980000000  0.3919520000000 1.0
C      1  0.5768110000000  0.4859940000000  0.5170990000000 1.0
C      1  0.6193660000000  0.5041510000000  0.4282460000000 1.0
C      1  0.5238550000000  0.6146020000000  0.5763860000000 1.0
C      1  0.4017650000000  0.4691460000000  0.4577120000000 1.0
C      1  0.4613100000000  0.4718800000000  0.5511790000000 1.0
C      1  0.4092340000000  0.5366060000000  0.4085330000000 1.0
C      1  0.5396720000000  0.4791560000000  0.4093670000000 1.0
C      1  0.4711290000000  0.5697770000000  0.5006150000000 1.0
C      1  0.4978350000000  0.4430640000000  0.4030200000000 1.0
C      1  0.4217510000000  0.5741110000000  0.4508500000000 1.0
C      1  0.6033510000000  0.5054480000000  0.4069390000000 1.0
C      1  0.3609050000000  0.5130920000000  0.4832810000000 1.0
C      1  0.6010840000000  0.5120080000000  0.5782930000000 1.0
C      1  0.5613290000000  0.6182040000000  0.5451710000000 1.0
C      1  0.5571810000000  0.5265980000000  0.4946760000000 1.0
C      1  0.5694110000000  0.4041640000000  0.5086240000000 1.0
C      1  0.6174560000000  0.4293400000000  0.4956460000000 1.0
C      1  0.5053390000000  0.5478830000000  0.4779750000000 1.0
C      1  0.3886130000000  0.4908300000000  0.5203650000000 1.0
C      1  0.3704350000000  0.5237480000000  0.4602480000000 1.0
C      1  0.4691800000000  0.4419610000000  0.4028040000000 1.0
C      1  0.4181650000000  0.5240730000000  0.4680230000000 1.0
C      1  0.5509710000000  0.5043130000000  0.3999330000000 1.0
C      1  0.5055220000000  0.5992600000000  0.4688700000000 1.0
C      1  0.5778410000000  0.5517810000000  0.6072440000000 1.0
C      1  0.3704820000000  0.5140260000000  0.5347260000000 1.0
C      1  0.5790750000000  0.5040480000000  0.3959320000000 1.0
C      1  0.5420520000000  0.4129020000000  0.5140730000000 1.0
C      1  0.5079850000000  0.4994760000000  0.4515930000000 1.0
C      1  0.4161760000000  0.5052130000000  0.5255750000000 1.0
C      1  0.4500040000000  0.4336820000000  0.5770990000000 1.0
C      1  0.4453800000000  0.5164340000000  0.4710690000000 1.0
C      1  0.5056070000000  0.3779000000000  0.5555330000000 1.0
C      1  0.4705910000000  0.5559700000000  0.5444240000000 1.0
C      1  0.4212090000000  0.5108160000000  0.5556440000000 1.0
C      1  0.4035990000000  0.4231090000000  0.4763230000000 1.0
C      1  0.5489380000000  0.4309930000000  0.5936250000000 1.0
C      1  0.5788620000000  0.4021300000000  0.5362210000000 1.0
C      1  0.5959210000000  0.4848530000000  0.5872810000000 1.0
C      1  0.4345030000000  0.5314480000000  0.5676580000000 1.0
C      1  0.5913300000000  0.4493640000000  0.5535170000000 1.0
C      1  0.5950970000000  0.4719570000000  0.5363670000000 1.0
END
