TITL C-627110-360-326 0.121025735390541 125000 -349.131638843392 0 0 59 (C1) n - 1
REM
REM in /home/nfs/bkarasulu/CARBON/AIRSS/Generating-Clusters/LCBOP/Only-C1/SD-CG/FIRE-CG
REM
REM
REM
REM
REM
REM ./C.cell (11c1c37f851c82e70ff6c80c92926a4b)
REM AIRSS Version 0.9.1 bugfix July 2018 build 013d7b7c2542+ Fri, 06 Jul 2018 19:26:36 +0100
REM compiler GCC version 9.2.1 20190827 (Red Hat 9.2.1-1)
REM options -cpp -mtune=generic -march=x86-64 -g -O0 -fpre-include=/usr/include/finclude/math-vector-fortran.h
REM seed -406783615 1108812129 1915111810 -477146211 331822184 1042697854 1551611383 -1662138115 -1103605417 1454362569 -1380457326 -1543213341 1128065112 -55738575 455956911 -962054405 -744322599 -979136763 -1157342368 1887429700 449551993 222897140 838382745 -1259726114 -1441098893 -1526760693 1418297205 780038295 1854979536 2003406448 -422999198 218706 615141120
REM
CELL 1.54180   50.00000   50.00000   50.00000   90.00000   90.00000   90.00000
LATT -1
SFAC C  
C      1  0.3789980000000  0.5586940000000  0.4688700000000 1.0
C      1  0.4789480000000  0.4586670000000  0.4628090000000 1.0
C      1  0.4966020000000  0.4942930000000  0.5666790000000 1.0
C      1  0.3860090000000  0.5621810000000  0.5199790000000 1.0
C      1  0.4318530000000  0.5189760000000  0.4365150000000 1.0
C      1  0.4818030000000  0.4811420000000  0.4812130000000 1.0
C      1  0.5401490000000  0.4625310000000  0.4376220000000 1.0
C      1  0.4935070000000  0.4353810000000  0.4620750000000 1.0
C      1  0.6066090000000  0.5100300000000  0.4663720000000 1.0
C      1  0.5268220000000  0.4888590000000  0.4923950000000 1.0
C      1  0.4490620000000  0.5014710000000  0.4504430000000 1.0
C      1  0.3916520000000  0.5494370000000  0.4474070000000 1.0
C      1  0.5510350000000  0.4493220000000  0.4864120000000 1.0
C      1  0.4937760000000  0.4685050000000  0.5546220000000 1.0
C      1  0.4355310000000  0.4852370000000  0.4711120000000 1.0
C      1  0.3768060000000  0.5626680000000  0.4950560000000 1.0
C      1  0.4298390000000  0.5565200000000  0.5471050000000 1.0
C      1  0.4778300000000  0.5039910000000  0.4443490000000 1.0
C      1  0.5563740000000  0.4535470000000  0.5816120000000 1.0
C      1  0.6203470000000  0.5195530000000  0.4458110000000 1.0
C      1  0.4716870000000  0.5808760000000  0.5435690000000 1.0
C      1  0.5170150000000  0.5000760000000  0.5849790000000 1.0
C      1  0.5063060000000  0.5739600000000  0.4576620000000 1.0
C      1  0.6340460000000  0.5290450000000  0.4252000000000 1.0
C      1  0.4910220000000  0.4493220000000  0.5130820000000 1.0
C      1  0.5528310000000  0.4493860000000  0.4576850000000 1.0
C      1  0.6475200000000  0.5383800000000  0.4049270000000 1.0
C      1  0.5169510000000  0.4374270000000  0.5239640000000 1.0
C      1  0.4541300000000  0.4089650000000  0.5033610000000 1.0
C      1  0.5126310000000  0.4225040000000  0.4769600000000 1.0
C      1  0.4697840000000  0.5004300000000  0.4999160000000 1.0
C      1  0.4714260000000  0.5328750000000  0.5363740000000 1.0
C      1  0.5517640000000  0.4760710000000  0.4970130000000 1.0
C      1  0.5753470000000  0.4890080000000  0.5055750000000 1.0
C      1  0.4048840000000  0.5592520000000  0.5384430000000 1.0
C      1  0.5631380000000  0.4809190000000  0.5801960000000 1.0
C      1  0.5215550000000  0.4813180000000  0.4315170000000 1.0
C      1  0.5214500000000  0.5074330000000  0.4709440000000 1.0
C      1  0.4738890000000  0.4661190000000  0.5328720000000 1.0
C      1  0.5352140000000  0.4416500000000  0.5701880000000 1.0
C      1  0.5819340000000  0.4908870000000  0.5326910000000 1.0
C      1  0.4868420000000  0.5949150000000  0.5265780000000 1.0
C      1  0.4576000000000  0.5565760000000  0.5440830000000 1.0
C      1  0.5309560000000  0.4314190000000  0.4980410000000 1.0
C      1  0.5923800000000  0.5002530000000  0.4864570000000 1.0
C      1  0.5157960000000  0.4480960000000  0.5511830000000 1.0
C      1  0.4541500000000  0.4817510000000  0.5167900000000 1.0
C      1  0.4965330000000  0.5910800000000  0.5019260000000 1.0
C      1  0.4961530000000  0.5705190000000  0.4827330000000 1.0
C      1  0.4818980000000  0.5156890000000  0.5558880000000 1.0
C      1  0.5068850000000  0.5007100000000  0.4466130000000 1.0
C      1  0.4720910000000  0.4277710000000  0.5051380000000 1.0
C      1  0.4750060000000  0.5266790000000  0.5085110000000 1.0
C      1  0.4110990000000  0.5355600000000  0.4357570000000 1.0
C      1  0.5795930000000  0.4891350000000  0.5591230000000 1.0
C      1  0.5432300000000  0.4982160000000  0.5900560000000 1.0
C      1  0.4330760000000  0.4759100000000  0.4974220000000 1.0
C      1  0.5040580000000  0.4725650000000  0.4972040000000 1.0
C      1  0.4845740000000  0.5462510000000  0.4909210000000 1.0
END
