TITL C-627108-131-245 0.0391380001886091 125000 -509.330115744566 0 0 85 (C1) n - 1
REM
REM in /home/nfs/bkarasulu/CARBON/AIRSS/Generating-Clusters/LCBOP/Only-C1/SD-CG/FIRE-CG
REM
REM
REM
REM
REM
REM ./C.cell (11c1c37f851c82e70ff6c80c92926a4b)
REM AIRSS Version 0.9.1 bugfix July 2018 build 013d7b7c2542+ Fri, 06 Jul 2018 19:26:36 +0100
REM compiler GCC version 9.2.1 20190827 (Red Hat 9.2.1-1)
REM options -cpp -mtune=generic -march=x86-64 -g -O0 -fpre-include=/usr/include/finclude/math-vector-fortran.h
REM seed 431910828 -1469795844 -1974724070 -1693877659 -88035299 2094005139 573569682 1830010180 -1694794821 1383604026 -373823239 -113130441 1032237315 -1882085032 -1486174004 -105111502 2138303289 109638996 118157038 810836763 -458545767 -2064018392 1158696284 -716516879 1183591674 1742521855 -1182719785 -494356108 -904607678 -1392163784 -1150715092 31920463 -1716383023
REM
CELL 1.54180   50.00000   50.00000   50.00000   90.00000   90.00000   90.00000
LATT -1
SFAC C  
C      1  0.5874770000000  0.5806170000000  0.5576770000000 1.0
C      1  0.4696970000000  0.4322090000000  0.5558260000000 1.0
C      1  0.4331470000000  0.5161320000000  0.5832730000000 1.0
C      1  0.6099550000000  0.5078600000000  0.5355050000000 1.0
C      1  0.4562500000000  0.4744730000000  0.4818090000000 1.0
C      1  0.4578770000000  0.4080990000000  0.4833130000000 1.0
C      1  0.4250050000000  0.5315530000000  0.5632430000000 1.0
C      1  0.4588640000000  0.5878750000000  0.4526250000000 1.0
C      1  0.4618800000000  0.4911160000000  0.4162900000000 1.0
C      1  0.4654750000000  0.4235350000000  0.5063190000000 1.0
C      1  0.6118300000000  0.4160600000000  0.5278250000000 1.0
C      1  0.6337840000000  0.4121370000000  0.5413250000000 1.0
C      1  0.6129890000000  0.5318220000000  0.4887530000000 1.0
C      1  0.4492480000000  0.4960970000000  0.5901120000000 1.0
C      1  0.4977060000000  0.4284450000000  0.5520050000000 1.0
C      1  0.4921610000000  0.4354920000000  0.5043570000000 1.0
C      1  0.5227710000000  0.4509140000000  0.4690740000000 1.0
C      1  0.4642970000000  0.5333420000000  0.4786430000000 1.0
C      1  0.4585570000000  0.4275210000000  0.4391630000000 1.0
C      1  0.5734150000000  0.5657340000000  0.5415450000000 1.0
C      1  0.5284820000000  0.3933350000000  0.4839910000000 1.0
C      1  0.4104830000000  0.5325510000000  0.4306000000000 1.0
C      1  0.3892310000000  0.5405900000000  0.4766590000000 1.0
C      1  0.5335500000000  0.5427570000000  0.4863220000000 1.0
C      1  0.6386860000000  0.5494860000000  0.6184450000000 1.0
C      1  0.5893250000000  0.4210610000000  0.5147690000000 1.0
C      1  0.4331140000000  0.5497760000000  0.4225230000000 1.0
C      1  0.6161510000000  0.5187690000000  0.5822370000000 1.0
C      1  0.5590530000000  0.4567210000000  0.5029860000000 1.0
C      1  0.4757440000000  0.5580900000000  0.4857280000000 1.0
C      1  0.5554910000000  0.4933300000000  0.5640610000000 1.0
C      1  0.4595730000000  0.5114730000000  0.4339110000000 1.0
C      1  0.4061900000000  0.5541980000000  0.4959400000000 1.0
C      1  0.5583320000000  0.5664670000000  0.4533430000000 1.0
C      1  0.4247290000000  0.5383340000000  0.5376340000000 1.0
C      1  0.5841210000000  0.5601460000000  0.4560640000000 1.0
C      1  0.5418660000000  0.5050860000000  0.5193670000000 1.0
C      1  0.4803160000000  0.4698940000000  0.4201760000000 1.0
C      1  0.4043810000000  0.4798900000000  0.4406710000000 1.0
C      1  0.4984240000000  0.4502360000000  0.4812200000000 1.0
C      1  0.6031760000000  0.5471020000000  0.4693220000000 1.0
C      1  0.4066920000000  0.4562050000000  0.4531320000000 1.0
C      1  0.4251300000000  0.5382630000000  0.5097760000000 1.0
C      1  0.5090980000000  0.5084770000000  0.5569780000000 1.0
C      1  0.4930790000000  0.4902220000000  0.5710260000000 1.0
C      1  0.4726730000000  0.4517570000000  0.4404430000000 1.0
C      1  0.4181180000000  0.4337430000000  0.4627660000000 1.0
C      1  0.5820190000000  0.4863500000000  0.5697210000000 1.0
C      1  0.4827330000000  0.5632820000000  0.5121960000000 1.0
C      1  0.4688900000000  0.4789590000000  0.5800170000000 1.0
C      1  0.4752390000000  0.5205990000000  0.4555470000000 1.0
C      1  0.5508350000000  0.4819940000000  0.5059730000000 1.0
C      1  0.5348620000000  0.5017540000000  0.5470860000000 1.0
C      1  0.4989580000000  0.5340410000000  0.5514440000000 1.0
C      1  0.4625470000000  0.4523450000000  0.5737730000000 1.0
C      1  0.3962940000000  0.5485250000000  0.4500050000000 1.0
C      1  0.6276420000000  0.5340310000000  0.6005910000000 1.0
C      1  0.4067470000000  0.5047020000000  0.4306440000000 1.0
C      1  0.5602110000000  0.5493870000000  0.5254150000000 1.0
C      1  0.6029100000000  0.5042550000000  0.5623630000000 1.0
C      1  0.5075210000000  0.4783740000000  0.4200420000000 1.0
C      1  0.4820640000000  0.5748040000000  0.4633540000000 1.0
C      1  0.4372690000000  0.5732520000000  0.4394340000000 1.0
C      1  0.5449110000000  0.5318330000000  0.5096300000000 1.0
C      1  0.5878870000000  0.4624790000000  0.5817280000000 1.0
C      1  0.4546230000000  0.4247890000000  0.5326210000000 1.0
C      1  0.4761920000000  0.4610300000000  0.4674670000000 1.0
C      1  0.4117380000000  0.5735950000000  0.4546550000000 1.0
C      1  0.5652630000000  0.4291770000000  0.5029900000000 1.0
C      1  0.4132450000000  0.5797320000000  0.4833530000000 1.0
C      1  0.4903930000000  0.5537280000000  0.5358000000000 1.0
C      1  0.4430390000000  0.4940880000000  0.4941240000000 1.0
C      1  0.4435840000000  0.5221150000000  0.4947460000000 1.0
C      1  0.4291630000000  0.6024180000000  0.4882670000000 1.0
C      1  0.5037620000000  0.3847380000000  0.4783040000000 1.0
C      1  0.5482340000000  0.4094700000000  0.4920730000000 1.0
C      1  0.5167240000000  0.4984640000000  0.4358490000000 1.0
C      1  0.4426060000000  0.4195410000000  0.4616380000000 1.0
C      1  0.5332670000000  0.5614730000000  0.4649270000000 1.0
C      1  0.4770800000000  0.3879490000000  0.4772450000000 1.0
C      1  0.5028530000000  0.5147020000000  0.4524530000000 1.0
C      1  0.5082510000000  0.4325020000000  0.5273780000000 1.0
C      1  0.4489780000000  0.6084030000000  0.4703530000000 1.0
C      1  0.6144700000000  0.5178230000000  0.5112990000000 1.0
C      1  0.5094080000000  0.5743080000000  0.4567230000000 1.0
END
