TITL C-627108-131-2084 304.564582660184 125000 -1082.43408303149 0 0 180 (C1) n - 1
REM
REM in /home/nfs/bkarasulu/CARBON/AIRSS/Generating-Clusters/LCBOP/Only-C1/SD-CG/FIRE-CG
REM
REM
REM
REM
REM
REM ./C.cell (11c1c37f851c82e70ff6c80c92926a4b)
REM AIRSS Version 0.9.1 bugfix July 2018 build 013d7b7c2542+ Fri, 06 Jul 2018 19:26:36 +0100
REM compiler GCC version 9.2.1 20190827 (Red Hat 9.2.1-1)
REM options -cpp -mtune=generic -march=x86-64 -g -O0 -fpre-include=/usr/include/finclude/math-vector-fortran.h
REM seed 193045450 -127092291 -2126740469 -1623682677 -957378910 -716576484 -197249109 1433598290 -1168543533 123360661 -147991362 143610343 191806089 261161598 598973730 -167860415 -327006366 226121459 681806945 245928053 1053671777 2033703285 -1271551145 673791521 -611240954 318156536 -1084837875 -703207488 981001232 -1651008508 -1339797329 324570602 -1454631619
REM
CELL 1.54180   50.00000   50.00000   50.00000   90.00000   90.00000   90.00000
LATT -1
SFAC C  
C      1  0.4835590000000  0.5233600000000  0.5121040000000 1.0
C      1  0.5976310000000  0.5989600000000  0.4986680000000 1.0
C      1  0.5633390000000  0.4886720000000  0.4905900000000 1.0
C      1  0.4724140000000  0.4013350000000  0.5325160000000 1.0
C      1  0.4687040000000  0.4193370000000  0.5840540000000 1.0
C      1  0.5332380000000  0.5102380000000  0.5616840000000 1.0
C      1  0.4725120000000  0.4113240000000  0.4797090000000 1.0
C      1  0.5143920000000  0.4994730000000  0.5787640000000 1.0
C      1  0.5079500000000  0.5458430000000  0.4060480000000 1.0
C      1  0.5171750000000  0.4552270000000  0.4192960000000 1.0
C      1  0.4907920000000  0.4572820000000  0.4320010000000 1.0
C      1  0.4849300000000  0.5886600000000  0.5073290000000 1.0
C      1  0.5394990000000  0.3553690000000  0.4972130000000 1.0
C      1  0.4369600000000  0.6233070000000  0.4846170000000 1.0
C      1  0.3908270000000  0.5287030000000  0.5299210000000 1.0
C      1  0.5225330000000  0.5219360000000  0.5369220000000 1.0
C      1  0.3831520000000  0.5257810000000  0.4601980000000 1.0
C      1  0.5525890000000  0.4838990000000  0.3932240000000 1.0
C      1  0.4939430000000  0.5658540000000  0.5921850000000 1.0
C      1  0.5215970000000  0.5996470000000  0.5669310000000 1.0
C      1  0.5611550000000  0.5131790000000  0.6130840000000 1.0
C      1  0.4691980000000  0.6052990000000  0.3997240000000 1.0
C      1  0.4407060000000  0.5049270000000  0.4841340000000 1.0
C      1  0.4743780000000  0.5679600000000  0.5698150000000 1.0
C      1  0.5625990000000  0.5130490000000  0.3910190000000 1.0
C      1  0.5870540000000  0.4263950000000  0.4177090000000 1.0
C      1  0.4383170000000  0.5068400000000  0.5300520000000 1.0
C      1  0.6284970000000  0.5162930000000  0.5164180000000 1.0
C      1  0.4771830000000  0.5203970000000  0.5628600000000 1.0
C      1  0.5254530000000  0.4179360000000  0.5569790000000 1.0
C      1  0.5698470000000  0.5992410000000  0.4975400000000 1.0
C      1  0.4517810000000  0.5013520000000  0.6034420000000 1.0
C      1  0.4283790000000  0.4533140000000  0.4832860000000 1.0
C      1  0.4081020000000  0.4525410000000  0.5662510000000 1.0
C      1  0.4953630000000  0.5179690000000  0.6181820000000 1.0
C      1  0.5420820000000  0.4802790000000  0.4695980000000 1.0
C      1  0.5695340000000  0.4055260000000  0.4243090000000 1.0
C      1  0.4486000000000  0.5569720000000  0.5315460000000 1.0
C      1  0.5760920000000  0.5261860000000  0.5691620000000 1.0
C      1  0.5487520000000  0.4539800000000  0.4559250000000 1.0
C      1  0.5079770000000  0.4476270000000  0.4854000000000 1.0
C      1  0.5245440000000  0.4269360000000  0.5005170000000 1.0
C      1  0.4340820000000  0.4907380000000  0.5069020000000 1.0
C      1  0.4497420000000  0.4986740000000  0.4408680000000 1.0
C      1  0.4464960000000  0.5648970000000  0.5591930000000 1.0
C      1  0.5463060000000  0.5744270000000  0.4088630000000 1.0
C      1  0.6196700000000  0.4950000000000  0.4988450000000 1.0
C      1  0.5605890000000  0.5041070000000  0.5594720000000 1.0
C      1  0.5135940000000  0.4934450000000  0.5223710000000 1.0
C      1  0.4865800000000  0.4940960000000  0.5145730000000 1.0
C      1  0.4031480000000  0.4847650000000  0.4437580000000 1.0
C      1  0.4607460000000  0.3989130000000  0.4559170000000 1.0
C      1  0.4616040000000  0.4285750000000  0.4078370000000 1.0
C      1  0.4790460000000  0.4748580000000  0.3858330000000 1.0
C      1  0.5515200000000  0.4229930000000  0.5463380000000 1.0
C      1  0.4830750000000  0.5883950000000  0.4165860000000 1.0
C      1  0.4558270000000  0.5214160000000  0.5827350000000 1.0
C      1  0.4957970000000  0.6007800000000  0.4394940000000 1.0
C      1  0.5423320000000  0.4127930000000  0.4291450000000 1.0
C      1  0.4487680000000  0.3737390000000  0.4586410000000 1.0
C      1  0.4059820000000  0.5614030000000  0.5890630000000 1.0
C      1  0.5803360000000  0.5589040000000  0.4546090000000 1.0
C      1  0.4929580000000  0.5134730000000  0.4425620000000 1.0
C      1  0.3897640000000  0.4879550000000  0.4911270000000 1.0
C      1  0.6156600000000  0.5186700000000  0.5419950000000 1.0
C      1  0.4395880000000  0.3857370000000  0.5636590000000 1.0
C      1  0.4607160000000  0.4113810000000  0.4293320000000 1.0
C      1  0.5694830000000  0.4370860000000  0.5656910000000 1.0
C      1  0.5671440000000  0.4976430000000  0.4328220000000 1.0
C      1  0.4725110000000  0.4697440000000  0.5102370000000 1.0
C      1  0.5637650000000  0.5357330000000  0.5937150000000 1.0
C      1  0.4414090000000  0.5338300000000  0.3692990000000 1.0
C      1  0.4825650000000  0.4015050000000  0.5053960000000 1.0
C      1  0.5214480000000  0.5760470000000  0.5852340000000 1.0
C      1  0.3978260000000  0.4091780000000  0.5488870000000 1.0
C      1  0.4409920000000  0.4554930000000  0.4560780000000 1.0
C      1  0.4913550000000  0.5618990000000  0.5464140000000 1.0
C      1  0.3962300000000  0.5609250000000  0.6132230000000 1.0
C      1  0.6098780000000  0.5763760000000  0.4904240000000 1.0
C      1  0.5866830000000  0.4529090000000  0.4151070000000 1.0
C      1  0.4833300000000  0.4371010000000  0.4740770000000 1.0
C      1  0.5427740000000  0.5426190000000  0.5262460000000 1.0
C      1  0.4961290000000  0.5278530000000  0.4862340000000 1.0
C      1  0.4549460000000  0.5445440000000  0.4640690000000 1.0
C      1  0.5807580000000  0.5363380000000  0.4966900000000 1.0
C      1  0.4149970000000  0.5807040000000  0.4928430000000 1.0
C      1  0.4911710000000  0.5015370000000  0.4698460000000 1.0
C      1  0.5334670000000  0.5691300000000  0.5216880000000 1.0
C      1  0.3891930000000  0.4986230000000  0.4642950000000 1.0
C      1  0.6109070000000  0.5200040000000  0.4498200000000 1.0
C      1  0.4144040000000  0.5515490000000  0.4050140000000 1.0
C      1  0.5013520000000  0.5531170000000  0.4701340000000 1.0
C      1  0.5757240000000  0.4790880000000  0.5148270000000 1.0
C      1  0.4389400000000  0.5426200000000  0.3950500000000 1.0
C      1  0.4751930000000  0.4968610000000  0.6199230000000 1.0
C      1  0.4634940000000  0.4010720000000  0.5605550000000 1.0
C      1  0.4613620000000  0.4944770000000  0.4681870000000 1.0
C      1  0.4271780000000  0.4557660000000  0.5870480000000 1.0
C      1  0.5701880000000  0.4750480000000  0.4151880000000 1.0
C      1  0.5032610000000  0.4905650000000  0.3886440000000 1.0
C      1  0.5435690000000  0.4654520000000  0.5448350000000 1.0
C      1  0.5294140000000  0.5557260000000  0.4534490000000 1.0
C      1  0.4717540000000  0.4751320000000  0.5587640000000 1.0
C      1  0.5918250000000  0.3291880000000  0.4354490000000 1.0
C      1  0.4302290000000  0.4776950000000  0.4400080000000 1.0
C      1  0.4830460000000  0.4501960000000  0.5534010000000 1.0
C      1  0.5526660000000  0.5983240000000  0.4739450000000 1.0
C      1  0.5071620000000  0.6118040000000  0.4617900000000 1.0
C      1  0.3865980000000  0.5072040000000  0.5132210000000 1.0
C      1  0.4611120000000  0.5426980000000  0.4125560000000 1.0
C      1  0.4424170000000  0.5328520000000  0.4873560000000 1.0
C      1  0.4660280000000  0.5845140000000  0.4872100000000 1.0
C      1  0.3936150000000  0.4469680000000  0.5185610000000 1.0
C      1  0.5113640000000  0.4009460000000  0.5028530000000 1.0
C      1  0.5559160000000  0.4472930000000  0.5902440000000 1.0
C      1  0.4454990000000  0.4643610000000  0.5043610000000 1.0
C      1  0.4709040000000  0.4509470000000  0.4524210000000 1.0
C      1  0.4018940000000  0.5542230000000  0.5390970000000 1.0
C      1  0.4006680000000  0.5703330000000  0.4709330000000 1.0
C      1  0.4832830000000  0.5601010000000  0.4091690000000 1.0
C      1  0.4875540000000  0.4707620000000  0.6221230000000 1.0
C      1  0.5906680000000  0.5336790000000  0.5455580000000 1.0
C      1  0.5746940000000  0.5217970000000  0.4171400000000 1.0
C      1  0.5646920000000  0.4830030000000  0.5409240000000 1.0
C      1  0.4047300000000  0.5739910000000  0.5184220000000 1.0
C      1  0.3981590000000  0.4370530000000  0.5446030000000 1.0
C      1  0.5130680000000  0.4752820000000  0.4780210000000 1.0
C      1  0.5026210000000  0.4318710000000  0.5538890000000 1.0
C      1  0.4359270000000  0.6490120000000  0.4804640000000 1.0
C      1  0.5299250000000  0.6146410000000  0.5148470000000 1.0
C      1  0.5169960000000  0.5074210000000  0.4292490000000 1.0
C      1  0.5447890000000  0.5586900000000  0.5917270000000 1.0
C      1  0.4741490000000  0.5643940000000  0.4688100000000 1.0
C      1  0.5930710000000  0.5561960000000  0.4806320000000 1.0
C      1  0.3976500000000  0.5553190000000  0.4252340000000 1.0
C      1  0.5175450000000  0.5046980000000  0.6061170000000 1.0
C      1  0.4642230000000  0.5239280000000  0.4348500000000 1.0
C      1  0.4007890000000  0.4604320000000  0.4943420000000 1.0
C      1  0.5801270000000  0.5110400000000  0.4840190000000 1.0
C      1  0.5364640000000  0.4401110000000  0.4343290000000 1.0
C      1  0.5718450000000  0.5390110000000  0.5233240000000 1.0
C      1  0.5511830000000  0.5928120000000  0.5180070000000 1.0
C      1  0.5783740000000  0.3792340000000  0.4266760000000 1.0
C      1  0.5950170000000  0.4481650000000  0.5571450000000 1.0
C      1  0.6105320000000  0.4687010000000  0.5436720000000 1.0
C      1  0.5417140000000  0.5289830000000  0.4613070000000 1.0
C      1  0.5270800000000  0.6126270000000  0.4825670000000 1.0
C      1  0.4930880000000  0.5333870000000  0.5395290000000 1.0
C      1  0.5102360000000  0.5165180000000  0.4018330000000 1.0
C      1  0.5139100000000  0.6072800000000  0.5391140000000 1.0
C      1  0.6044760000000  0.4747260000000  0.5150000000000 1.0
C      1  0.4917190000000  0.5455920000000  0.6123820000000 1.0
C      1  0.5364350000000  0.4616640000000  0.6071280000000 1.0
C      1  0.5225070000000  0.3939550000000  0.4289870000000 1.0
C      1  0.5283500000000  0.5582220000000  0.4218940000000 1.0
C      1  0.5414880000000  0.5025540000000  0.4477910000000 1.0
C      1  0.5255560000000  0.4731020000000  0.3966980000000 1.0
C      1  0.5485780000000  0.4275050000000  0.5173530000000 1.0
C      1  0.4176450000000  0.5602730000000  0.5638030000000 1.0
C      1  0.4424690000000  0.5341440000000  0.5170780000000 1.0
C      1  0.5067470000000  0.4520080000000  0.6101180000000 1.0
C      1  0.5416330000000  0.4911180000000  0.6145020000000 1.0
C      1  0.5254260000000  0.3769840000000  0.5009350000000 1.0
C      1  0.4668070000000  0.4511180000000  0.3928490000000 1.0
C      1  0.6182480000000  0.4934640000000  0.5565650000000 1.0
C      1  0.4474330000000  0.4880110000000  0.5498560000000 1.0
C      1  0.4137810000000  0.3894780000000  0.5574330000000 1.0
C      1  0.3920050000000  0.5512650000000  0.4523280000000 1.0
C      1  0.4394180000000  0.5956090000000  0.4883990000000 1.0
C      1  0.5043620000000  0.5798480000000  0.5281140000000 1.0
C      1  0.4930060000000  0.4286400000000  0.5982930000000 1.0
C      1  0.4379830000000  0.3502920000000  0.4622540000000 1.0
C      1  0.5222230000000  0.4688320000000  0.5300270000000 1.0
C      1  0.5904380000000  0.5374310000000  0.4361730000000 1.0
C      1  0.4453150000000  0.4344230000000  0.5913860000000 1.0
C      1  0.5544700000000  0.5740300000000  0.4583430000000 1.0
C      1  0.5853880000000  0.3540250000000  0.4308330000000 1.0
C      1  0.4327800000000  0.4806350000000  0.5995990000000 1.0
C      1  0.6068320000000  0.5047210000000  0.4740210000000 1.0
C      1  0.4893830000000  0.4948120000000  0.5682070000000 1.0
END
