TITL C-627106-156-1093 4.76085909888105e-05 125000 -514.360409149942 0 0 84 (C1) n - 1
REM
REM in /home/nfs/bkarasulu/CARBON/AIRSS/Generating-Clusters/LCBOP/Only-C1/SD-CG/FIRE-CG
REM
REM
REM
REM
REM
REM ./C.cell (11c1c37f851c82e70ff6c80c92926a4b)
REM AIRSS Version 0.9.1 bugfix July 2018 build 013d7b7c2542+ Fri, 06 Jul 2018 19:26:36 +0100
REM compiler GCC version 9.2.1 20190827 (Red Hat 9.2.1-1)
REM options -cpp -mtune=generic -march=x86-64 -g -O0 -fpre-include=/usr/include/finclude/math-vector-fortran.h
REM seed 197243390 -680781400 -589108064 -476978129 -1010138918 -380626745 -1731462643 442457501 959569029 -1963681646 1916982722 1594750754 -1294116462 -1861549971 1462862943 -373158188 -1071635981 1275463414 -1546177305 199009905 1184359945 -1594970300 1238486936 -129640916 745206248 -204363566 -1027875633 -1948456655 1721853805 937059558 1991738751 2088565689 -15083217
REM
CELL 1.54180   50.00000   50.00000   50.00000   90.00000   90.00000   90.00000
LATT -1
SFAC C  
C      1  0.4444580000000  0.5444540000000  0.5149580000000 1.0
C      1  0.4436440000000  0.5854740000000  0.4886470000000 1.0
C      1  0.4552910000000  0.5856690000000  0.5600910000000 1.0
C      1  0.4375890000000  0.4667400000000  0.4924660000000 1.0
C      1  0.5104110000000  0.4460510000000  0.5003710000000 1.0
C      1  0.4901590000000  0.4843500000000  0.5504260000000 1.0
C      1  0.5509990000000  0.4771270000000  0.4985250000000 1.0
C      1  0.4251890000000  0.5293760000000  0.5297750000000 1.0
C      1  0.5096330000000  0.4118700000000  0.4335670000000 1.0
C      1  0.5607140000000  0.4909740000000  0.4284520000000 1.0
C      1  0.5343220000000  0.4996840000000  0.4321130000000 1.0
C      1  0.4812770000000  0.5331940000000  0.4216320000000 1.0
C      1  0.4515770000000  0.5719550000000  0.4654150000000 1.0
C      1  0.4526670000000  0.4905650000000  0.4122630000000 1.0
C      1  0.5721580000000  0.4688110000000  0.4813370000000 1.0
C      1  0.4834080000000  0.4461890000000  0.5129990000000 1.0
C      1  0.5040330000000  0.4465210000000  0.5751570000000 1.0
C      1  0.6092160000000  0.4630350000000  0.5110010000000 1.0
C      1  0.5128590000000  0.4925910000000  0.4463870000000 1.0
C      1  0.4173990000000  0.5052280000000  0.4676830000000 1.0
C      1  0.5993420000000  0.4754670000000  0.4878270000000 1.0
C      1  0.5684520000000  0.4512140000000  0.4591520000000 1.0
C      1  0.5736080000000  0.4422880000000  0.5400270000000 1.0
C      1  0.6120710000000  0.4929090000000  0.4698500000000 1.0
C      1  0.4272920000000  0.4443160000000  0.4787050000000 1.0
C      1  0.4919760000000  0.5562800000000  0.5465270000000 1.0
C      1  0.4964580000000  0.5722910000000  0.4843960000000 1.0
C      1  0.4848940000000  0.5300670000000  0.5368190000000 1.0
C      1  0.5474530000000  0.4519730000000  0.5370220000000 1.0
C      1  0.5100320000000  0.3941970000000  0.4144100000000 1.0
C      1  0.5980300000000  0.4484910000000  0.5306750000000 1.0
C      1  0.4286000000000  0.4351910000000  0.4534080000000 1.0
C      1  0.4998760000000  0.4770310000000  0.4655300000000 1.0
C      1  0.5509490000000  0.5018210000000  0.5136540000000 1.0
C      1  0.4150240000000  0.4835460000000  0.5385940000000 1.0
C      1  0.4281210000000  0.5344090000000  0.5581130000000 1.0
C      1  0.4857540000000  0.5108800000000  0.5572420000000 1.0
C      1  0.4665410000000  0.5132080000000  0.5789410000000 1.0
C      1  0.4767630000000  0.5131540000000  0.4919850000000 1.0
C      1  0.5454680000000  0.4994930000000  0.5429350000000 1.0
C      1  0.5702170000000  0.4236020000000  0.4621030000000 1.0
C      1  0.5356940000000  0.4548170000000  0.5107890000000 1.0
C      1  0.5406720000000  0.5256210000000  0.5540010000000 1.0
C      1  0.4230010000000  0.4926140000000  0.4928230000000 1.0
C      1  0.4870830000000  0.5518370000000  0.4398430000000 1.0
C      1  0.5836320000000  0.5071760000000  0.4310350000000 1.0
C      1  0.4640580000000  0.4753210000000  0.5425950000000 1.0
C      1  0.4658460000000  0.4658460000000  0.4980930000000 1.0
C      1  0.4168740000000  0.4899750000000  0.4441090000000 1.0
C      1  0.4415040000000  0.5732140000000  0.5136890000000 1.0
C      1  0.5152220000000  0.5633390000000  0.5304780000000 1.0
C      1  0.6005150000000  0.5338000000000  0.5035080000000 1.0
C      1  0.5410290000000  0.5321920000000  0.5803690000000 1.0
C      1  0.5082200000000  0.4502840000000  0.4717050000000 1.0
C      1  0.4593980000000  0.4870950000000  0.5902060000000 1.0
C      1  0.5372330000000  0.5444210000000  0.5317960000000 1.0
C      1  0.4695740000000  0.5303170000000  0.5128010000000 1.0
C      1  0.4376830000000  0.4710310000000  0.5456370000000 1.0
C      1  0.5128980000000  0.5791740000000  0.5064330000000 1.0
C      1  0.5755530000000  0.5442060000000  0.4993630000000 1.0
C      1  0.5100370000000  0.4299550000000  0.4529200000000 1.0
C      1  0.5120740000000  0.4703060000000  0.5623040000000 1.0
C      1  0.4525930000000  0.5381790000000  0.5733740000000 1.0
C      1  0.5525530000000  0.5310490000000  0.5098680000000 1.0
C      1  0.5379730000000  0.4739750000000  0.5527320000000 1.0
C      1  0.4185580000000  0.5328190000000  0.4633590000000 1.0
C      1  0.4322770000000  0.5542490000000  0.4554050000000 1.0
C      1  0.6047970000000  0.5063310000000  0.4476800000000 1.0
C      1  0.4332570000000  0.4758340000000  0.4260580000000 1.0
C      1  0.4697090000000  0.5618770000000  0.5654710000000 1.0
C      1  0.5648060000000  0.4635460000000  0.4341810000000 1.0
C      1  0.5732300000000  0.5703860000000  0.4895480000000 1.0
C      1  0.5338220000000  0.5972610000000  0.5009080000000 1.0
C      1  0.5721190000000  0.3981160000000  0.4671950000000 1.0
C      1  0.4795270000000  0.5667320000000  0.4624070000000 1.0
C      1  0.4607470000000  0.4595620000000  0.5850220000000 1.0
C      1  0.4166720000000  0.5038720000000  0.5189470000000 1.0
C      1  0.4332800000000  0.4479380000000  0.4300710000000 1.0
C      1  0.4805760000000  0.4866770000000  0.4840060000000 1.0
C      1  0.4758350000000  0.4338760000000  0.5390370000000 1.0
C      1  0.4689120000000  0.5117440000000  0.4116830000000 1.0
C      1  0.4766610000000  0.4401490000000  0.5684550000000 1.0
C      1  0.4417210000000  0.5889510000000  0.5370240000000 1.0
C      1  0.5586490000000  0.5926490000000  0.4918910000000 1.0
END
