TITL C-627110-360-1733 0.671738416267274 125000 -583.164411229622 0 0 97 (C1) n - 1
REM
REM in /home/nfs/bkarasulu/CARBON/AIRSS/Generating-Clusters/LCBOP/Only-C1/SD-CG/FIRE-CG
REM
REM
REM
REM
REM
REM ./C.cell (11c1c37f851c82e70ff6c80c92926a4b)
REM AIRSS Version 0.9.1 bugfix July 2018 build 013d7b7c2542+ Fri, 06 Jul 2018 19:26:36 +0100
REM compiler GCC version 9.2.1 20190827 (Red Hat 9.2.1-1)
REM options -cpp -mtune=generic -march=x86-64 -g -O0 -fpre-include=/usr/include/finclude/math-vector-fortran.h
REM seed 1399900056 -1132770520 -1805947492 -792679188 -647524002 843996159 722525946 -32993850 -1010279927 597962623 -2085837202 432754365 -984601137 529310368 -531513978 361763877 2059446120 1210004128 -494789045 -939171875 -1385205371 -1135620910 336482265 -494439307 103635251 -1628171987 1582438727 -531606031 -939581081 660922431 -774833496 731923508 -1757344230
REM
CELL 1.54180   50.00000   50.00000   50.00000   90.00000   90.00000   90.00000
LATT -1
SFAC C  
C      1  0.5499550000000  0.4390070000000  0.4530690000000 1.0
C      1  0.4624410000000  0.4958170000000  0.5651440000000 1.0
C      1  0.4261680000000  0.4604690000000  0.4925920000000 1.0
C      1  0.5321800000000  0.5320340000000  0.5939030000000 1.0
C      1  0.5795870000000  0.5541810000000  0.4952470000000 1.0
C      1  0.5070210000000  0.5102840000000  0.5269910000000 1.0
C      1  0.4292440000000  0.5077290000000  0.4771590000000 1.0
C      1  0.5163070000000  0.3824960000000  0.5026630000000 1.0
C      1  0.4592230000000  0.4906190000000  0.5135070000000 1.0
C      1  0.5267110000000  0.5318940000000  0.5657980000000 1.0
C      1  0.5561590000000  0.5094630000000  0.4483820000000 1.0
C      1  0.4916080000000  0.4947210000000  0.5692880000000 1.0
C      1  0.5256340000000  0.4616230000000  0.5211220000000 1.0
C      1  0.4536000000000  0.4974150000000  0.5386390000000 1.0
C      1  0.5170270000000  0.5477370000000  0.6112150000000 1.0
C      1  0.5458430000000  0.4601000000000  0.5667280000000 1.0
C      1  0.4260520000000  0.4771420000000  0.5948330000000 1.0
C      1  0.5529910000000  0.5157170000000  0.6032280000000 1.0
C      1  0.5428530000000  0.4224790000000  0.4971700000000 1.0
C      1  0.6179190000000  0.5583720000000  0.5221310000000 1.0
C      1  0.5557330000000  0.5694930000000  0.4550070000000 1.0
C      1  0.3924440000000  0.4937520000000  0.5043180000000 1.0
C      1  0.5142890000000  0.4860890000000  0.5124380000000 1.0
C      1  0.4549260000000  0.4083810000000  0.4494150000000 1.0
C      1  0.5811370000000  0.4525760000000  0.4873120000000 1.0
C      1  0.4742450000000  0.4445030000000  0.4116500000000 1.0
C      1  0.4854650000000  0.5780930000000  0.6402810000000 1.0
C      1  0.5110560000000  0.5124490000000  0.4745390000000 1.0
C      1  0.4930030000000  0.4258720000000  0.4984620000000 1.0
C      1  0.5312450000000  0.5151500000000  0.4557980000000 1.0
C      1  0.4436900000000  0.3897150000000  0.5536980000000 1.0
C      1  0.4757330000000  0.5035760000000  0.3982670000000 1.0
C      1  0.4943530000000  0.5263610000000  0.3967300000000 1.0
C      1  0.5409330000000  0.5511810000000  0.5496150000000 1.0
C      1  0.5062060000000  0.4945680000000  0.3649310000000 1.0
C      1  0.4456150000000  0.4420480000000  0.5019800000000 1.0
C      1  0.4687080000000  0.4361930000000  0.4855870000000 1.0
C      1  0.4648300000000  0.5863490000000  0.4546690000000 1.0
C      1  0.4522230000000  0.4802740000000  0.4335810000000 1.0
C      1  0.5664670000000  0.4930480000000  0.5992060000000 1.0
C      1  0.4627470000000  0.4535810000000  0.4360890000000 1.0
C      1  0.5325720000000  0.5614310000000  0.5245770000000 1.0
C      1  0.5787620000000  0.5030460000000  0.4610490000000 1.0
C      1  0.4480150000000  0.5502020000000  0.5285580000000 1.0
C      1  0.3988300000000  0.5345770000000  0.5323310000000 1.0
C      1  0.5714790000000  0.4751990000000  0.5275310000000 1.0
C      1  0.5012220000000  0.5630060000000  0.6260100000000 1.0
C      1  0.5858390000000  0.5019260000000  0.4882660000000 1.0
C      1  0.5113940000000  0.5201150000000  0.3742640000000 1.0
C      1  0.5100900000000  0.4660290000000  0.4633770000000 1.0
C      1  0.5414810000000  0.5694220000000  0.4325090000000 1.0
C      1  0.4760750000000  0.5509680000000  0.5283810000000 1.0
C      1  0.4433900000000  0.5318180000000  0.4737090000000 1.0
C      1  0.4537740000000  0.5034160000000  0.4164090000000 1.0
C      1  0.5911840000000  0.5267130000000  0.5006760000000 1.0
C      1  0.5481880000000  0.4639480000000  0.5387750000000 1.0
C      1  0.4499610000000  0.4760220000000  0.5822200000000 1.0
C      1  0.5608440000000  0.4350030000000  0.4788210000000 1.0
C      1  0.5193060000000  0.4377650000000  0.5062870000000 1.0
C      1  0.5648790000000  0.4708350000000  0.5843840000000 1.0
C      1  0.5824960000000  0.4769330000000  0.5017240000000 1.0
C      1  0.4818860000000  0.4556300000000  0.3885030000000 1.0
C      1  0.5563020000000  0.5641650000000  0.4825350000000 1.0
C      1  0.5204110000000  0.4548230000000  0.5772850000000 1.0
C      1  0.4977970000000  0.5435800000000  0.4185680000000 1.0
C      1  0.5981740000000  0.5724610000000  0.5087340000000 1.0
C      1  0.5406410000000  0.3944420000000  0.5007370000000 1.0
C      1  0.4220860000000  0.5474930000000  0.5337220000000 1.0
C      1  0.4385350000000  0.5550410000000  0.4231050000000 1.0
C      1  0.4416200000000  0.5710510000000  0.4469780000000 1.0
C      1  0.4499080000000  0.4162000000000  0.5509650000000 1.0
C      1  0.3865750000000  0.5134920000000  0.5214280000000 1.0
C      1  0.4392990000000  0.5282270000000  0.4174920000000 1.0
C      1  0.5027110000000  0.4853720000000  0.4841210000000 1.0
C      1  0.4436320000000  0.4299060000000  0.5272090000000 1.0
C      1  0.4626960000000  0.4300440000000  0.5718240000000 1.0
C      1  0.4627160000000  0.4338240000000  0.4572870000000 1.0
C      1  0.4935060000000  0.3972520000000  0.5016450000000 1.0
C      1  0.5646460000000  0.5609380000000  0.5597230000000 1.0
C      1  0.4813480000000  0.5399540000000  0.4412240000000 1.0
C      1  0.4855260000000  0.4820600000000  0.3806830000000 1.0
C      1  0.4698810000000  0.4547260000000  0.5826350000000 1.0
C      1  0.5095230000000  0.5818420000000  0.4845160000000 1.0
C      1  0.4920390000000  0.5304050000000  0.4856350000000 1.0
C      1  0.4957050000000  0.4672990000000  0.5789580000000 1.0
C      1  0.5270790000000  0.4521900000000  0.4481260000000 1.0
C      1  0.4713350000000  0.5343290000000  0.4672580000000 1.0
C      1  0.4876750000000  0.5879290000000  0.4695080000000 1.0
C      1  0.5196600000000  0.5609910000000  0.4198160000000 1.0
C      1  0.4917670000000  0.5316660000000  0.5140010000000 1.0
C      1  0.5322750000000  0.5698390000000  0.4975050000000 1.0
C      1  0.4150570000000  0.4862800000000  0.4892810000000 1.0
C      1  0.4736160000000  0.4848340000000  0.4915340000000 1.0
C      1  0.4301000000000  0.5564700000000  0.4688800000000 1.0
C      1  0.4874650000000  0.5712220000000  0.5429790000000 1.0
C      1  0.5093480000000  0.5118430000000  0.5552430000000 1.0
C      1  0.6141080000000  0.5312580000000  0.5181150000000 1.0
END
