TITL C-627109-622-989 -9.97858694559192e-07 125000 -723.206378980987 0 0 120 (C1) n - 1
REM
REM in /home/nfs/bkarasulu/CARBON/AIRSS/Generating-Clusters/LCBOP/Only-C1/SD-CG/FIRE-CG
REM
REM
REM
REM
REM
REM ./C.cell (11c1c37f851c82e70ff6c80c92926a4b)
REM AIRSS Version 0.9.1 bugfix July 2018 build 013d7b7c2542+ Fri, 06 Jul 2018 19:26:36 +0100
REM compiler GCC version 9.2.1 20190827 (Red Hat 9.2.1-1)
REM options -cpp -mtune=generic -march=x86-64 -g -O0 -fpre-include=/usr/include/finclude/math-vector-fortran.h
REM seed -1903602916 -1665917472 -483063716 1202066040 -123902776 158824788 -2062663186 1123035763 598290061 -54808528 1187557429 -685216759 -1559083893 991796271 493940238 1463246715 -437886601 -93917885 -2049433201 -2006102925 176750892 -1619848190 -1166026432 918082435 -977733663 -934195875 -1848043621 1406957783 -303921696 829544666 1655697020 -1266079765 -1471918991
REM
CELL 1.54180   50.00000   50.00000   50.00000   90.00000   90.00000   90.00000
LATT -1
SFAC C  
C      1  0.5197710000000  0.5381920000000  0.4676250000000 1.0
C      1  0.4197150000000  0.4497000000000  0.5137290000000 1.0
C      1  0.5609300000000  0.5628430000000  0.4410850000000 1.0
C      1  0.4965110000000  0.3762720000000  0.4375300000000 1.0
C      1  0.5831060000000  0.5130500000000  0.5158260000000 1.0
C      1  0.4288420000000  0.4417260000000  0.4679110000000 1.0
C      1  0.5276420000000  0.5187690000000  0.4871220000000 1.0
C      1  0.5143650000000  0.4926270000000  0.4026830000000 1.0
C      1  0.5579390000000  0.5767360000000  0.5128430000000 1.0
C      1  0.4579990000000  0.4449000000000  0.4267110000000 1.0
C      1  0.4817500000000  0.4430010000000  0.4900980000000 1.0
C      1  0.5636070000000  0.4343910000000  0.5664850000000 1.0
C      1  0.5173990000000  0.4927460000000  0.4841220000000 1.0
C      1  0.4011980000000  0.5387620000000  0.4686400000000 1.0
C      1  0.5182750000000  0.4779580000000  0.4594580000000 1.0
C      1  0.4685060000000  0.5388330000000  0.4761470000000 1.0
C      1  0.5553620000000  0.4730240000000  0.4233610000000 1.0
C      1  0.4398100000000  0.5076880000000  0.3987330000000 1.0
C      1  0.3825960000000  0.5110880000000  0.5038840000000 1.0
C      1  0.5123520000000  0.4766960000000  0.5506490000000 1.0
C      1  0.3995250000000  0.5446740000000  0.4419620000000 1.0
C      1  0.5353350000000  0.5887020000000  0.5225650000000 1.0
C      1  0.4688530000000  0.5002870000000  0.4533620000000 1.0
C      1  0.4785400000000  0.4460880000000  0.5706300000000 1.0
C      1  0.5654250000000  0.5368710000000  0.6022760000000 1.0
C      1  0.4456490000000  0.5895130000000  0.4652830000000 1.0
C      1  0.6251770000000  0.5010590000000  0.5656900000000 1.0
C      1  0.4560040000000  0.4611560000000  0.6311360000000 1.0
C      1  0.6050580000000  0.4887550000000  0.5520100000000 1.0
C      1  0.5292860000000  0.5386240000000  0.5381850000000 1.0
C      1  0.4314920000000  0.5632390000000  0.5070450000000 1.0
C      1  0.5861500000000  0.4874530000000  0.4609500000000 1.0
C      1  0.5671480000000  0.5340790000000  0.4426990000000 1.0
C      1  0.4541410000000  0.4536370000000  0.5820880000000 1.0
C      1  0.4485210000000  0.5038780000000  0.5745540000000 1.0
C      1  0.5727240000000  0.5572980000000  0.5007120000000 1.0
C      1  0.5488700000000  0.5713040000000  0.4163760000000 1.0
C      1  0.5437270000000  0.4734260000000  0.4496710000000 1.0
C      1  0.3594930000000  0.5239120000000  0.5101540000000 1.0
C      1  0.4344030000000  0.5205370000000  0.5349890000000 1.0
C      1  0.4720860000000  0.5688780000000  0.5721050000000 1.0
C      1  0.5832040000000  0.4813280000000  0.4298930000000 1.0
C      1  0.4077510000000  0.5595540000000  0.4877920000000 1.0
C      1  0.4843750000000  0.5138980000000  0.6044410000000 1.0
C      1  0.4990320000000  0.4617030000000  0.4473450000000 1.0
C      1  0.4254460000000  0.4879260000000  0.5651950000000 1.0
C      1  0.5336700000000  0.5271850000000  0.5139610000000 1.0
C      1  0.4581920000000  0.5169260000000  0.5510590000000 1.0
C      1  0.5514110000000  0.5786950000000  0.4624520000000 1.0
C      1  0.4967830000000  0.5548110000000  0.5746490000000 1.0
C      1  0.4576590000000  0.4702090000000  0.6055570000000 1.0
C      1  0.5033530000000  0.4504380000000  0.5582640000000 1.0
C      1  0.4558630000000  0.4888980000000  0.4111080000000 1.0
C      1  0.5143010000000  0.5584920000000  0.5522130000000 1.0
C      1  0.4616750000000  0.5794100000000  0.5482250000000 1.0
C      1  0.4821000000000  0.5897960000000  0.5300730000000 1.0
C      1  0.5348040000000  0.4129980000000  0.4478400000000 1.0
C      1  0.4082560000000  0.4733050000000  0.5025620000000 1.0
C      1  0.4850900000000  0.4891120000000  0.4045380000000 1.0
C      1  0.6050980000000  0.4608550000000  0.5463110000000 1.0
C      1  0.4705470000000  0.4141640000000  0.5267740000000 1.0
C      1  0.5882040000000  0.4446700000000  0.5620930000000 1.0
C      1  0.5255770000000  0.5850310000000  0.4728980000000 1.0
C      1  0.4836070000000  0.4438070000000  0.4348640000000 1.0
C      1  0.4698470000000  0.6004170000000  0.5063480000000 1.0
C      1  0.4995650000000  0.4842450000000  0.5043710000000 1.0
C      1  0.6159670000000  0.4543830000000  0.5211200000000 1.0
C      1  0.5574950000000  0.4138730000000  0.4325300000000 1.0
C      1  0.4990120000000  0.4108680000000  0.5310290000000 1.0
C      1  0.5616790000000  0.5207200000000  0.5821700000000 1.0
C      1  0.6190340000000  0.4635810000000  0.4961060000000 1.0
C      1  0.3965550000000  0.5119730000000  0.4779840000000 1.0
C      1  0.4627810000000  0.4971990000000  0.5979060000000 1.0
C      1  0.5124100000000  0.5395960000000  0.4181010000000 1.0
C      1  0.5277300000000  0.5174540000000  0.4097060000000 1.0
C      1  0.5668610000000  0.4285280000000  0.5027620000000 1.0
C      1  0.5822860000000  0.5027210000000  0.5420940000000 1.0
C      1  0.4825060000000  0.5164100000000  0.5365160000000 1.0
C      1  0.5633420000000  0.4678730000000  0.4702930000000 1.0
C      1  0.5030680000000  0.5351580000000  0.4441690000000 1.0
C      1  0.4499120000000  0.5847080000000  0.4919490000000 1.0
C      1  0.5075540000000  0.4280160000000  0.4862780000000 1.0
C      1  0.4230240000000  0.4463010000000  0.5416910000000 1.0
C      1  0.4138700000000  0.5013890000000  0.5420750000000 1.0
C      1  0.4251440000000  0.4677930000000  0.4544080000000 1.0
C      1  0.5104090000000  0.5624740000000  0.4807890000000 1.0
C      1  0.4735130000000  0.6268540000000  0.4999380000000 1.0
C      1  0.4605490000000  0.4925040000000  0.4802210000000 1.0
C      1  0.4772150000000  0.5275510000000  0.4511810000000 1.0
C      1  0.4609950000000  0.4275190000000  0.5031610000000 1.0
C      1  0.5377690000000  0.4864840000000  0.5577940000000 1.0
C      1  0.6106950000000  0.4778800000000  0.4749930000000 1.0
C      1  0.4870530000000  0.5389900000000  0.5192970000000 1.0
C      1  0.5161190000000  0.6105170000000  0.4712780000000 1.0
C      1  0.5797140000000  0.5302370000000  0.4932820000000 1.0
C      1  0.4362480000000  0.5733180000000  0.5359880000000 1.0
C      1  0.5104440000000  0.5825610000000  0.5356490000000 1.0
C      1  0.5788770000000  0.5186950000000  0.4657480000000 1.0
C      1  0.5446040000000  0.4236820000000  0.5484590000000 1.0
C      1  0.4315080000000  0.4598910000000  0.5649780000000 1.0
C      1  0.5100810000000  0.4066530000000  0.5052920000000 1.0
C      1  0.4426110000000  0.4691800000000  0.4295590000000 1.0
C      1  0.5150110000000  0.3940920000000  0.4419410000000 1.0
C      1  0.5543610000000  0.5195640000000  0.4209380000000 1.0
C      1  0.5233830000000  0.5643200000000  0.4096050000000 1.0
C      1  0.4101590000000  0.4851450000000  0.4739800000000 1.0
C      1  0.5571440000000  0.4161290000000  0.5243290000000 1.0
C      1  0.4976470000000  0.4922770000000  0.5315960000000 1.0
C      1  0.5600410000000  0.5035190000000  0.5600980000000 1.0
C      1  0.5159590000000  0.4267170000000  0.5484040000000 1.0
C      1  0.5556800000000  0.4428140000000  0.4816690000000 1.0
C      1  0.4520840000000  0.5194340000000  0.4905040000000 1.0
C      1  0.4348350000000  0.4346870000000  0.4949780000000 1.0
C      1  0.4770900000000  0.4717790000000  0.4924860000000 1.0
C      1  0.5355390000000  0.4728320000000  0.4029180000000 1.0
C      1  0.3972800000000  0.4931790000000  0.5208800000000 1.0
C      1  0.4379140000000  0.5328770000000  0.5106390000000 1.0
C      1  0.4868530000000  0.5521170000000  0.4939300000000 1.0
C      1  0.4980380000000  0.5346160000000  0.5941350000000 1.0
C      1  0.5316510000000  0.4301200000000  0.4705610000000 1.0
END
