TITL C-627113-6568-1000 83.2398046719142 125000 -832.102205877087 0 0 137 (C1) n - 1
REM
REM in /home/nfs/bkarasulu/CARBON/AIRSS/Generating-Clusters/LCBOP/Only-C1/SD-CG/FIRE-CG
REM
REM
REM
REM
REM
REM ./C.cell (11c1c37f851c82e70ff6c80c92926a4b)
REM AIRSS Version 0.9.1 bugfix July 2018 build 013d7b7c2542+ Fri, 06 Jul 2018 19:26:36 +0100
REM compiler GCC version 9.2.1 20190827 (Red Hat 9.2.1-1)
REM options -cpp -mtune=generic -march=x86-64 -g -O0 -fpre-include=/usr/include/finclude/math-vector-fortran.h
REM seed -1554889140 -1724674170 242556985 1335572803 -644483900 -1729679547 786571671 1067823539 1031697044 1335963 1024612962 -1399542379 -1549294984 207082731 -1635758905 -1232853288 1411956056 -626621448 887749113 -1708525602 2070753722 -1417862933 301480268 -491537629 -1522215186 -189675574 -309376784 -734912368 -1771897716 -833131837 -1594821619 1190888121 -2112415432
REM
CELL 1.54180   50.00000   50.00000   50.00000   90.00000   90.00000   90.00000
LATT -1
SFAC C  
C      1  0.5659990000000  0.5101880000000  0.5094990000000 1.0
C      1  0.4854190000000  0.4905850000000  0.5122690000000 1.0
C      1  0.4750400000000  0.4850070000000  0.3780700000000 1.0
C      1  0.5766750000000  0.5400550000000  0.4267300000000 1.0
C      1  0.4871500000000  0.4779170000000  0.6132020000000 1.0
C      1  0.5253240000000  0.5047100000000  0.4871430000000 1.0
C      1  0.5761970000000  0.4980220000000  0.3987260000000 1.0
C      1  0.5278770000000  0.5004870000000  0.3639310000000 1.0
C      1  0.5912720000000  0.4654510000000  0.4594570000000 1.0
C      1  0.5100620000000  0.5644470000000  0.4930570000000 1.0
C      1  0.4764600000000  0.4139490000000  0.5788260000000 1.0
C      1  0.5221650000000  0.5655630000000  0.5727510000000 1.0
C      1  0.4070910000000  0.4699550000000  0.5470930000000 1.0
C      1  0.4844510000000  0.5173940000000  0.5503160000000 1.0
C      1  0.5821730000000  0.5233830000000  0.4062670000000 1.0
C      1  0.5057870000000  0.4865540000000  0.4940370000000 1.0
C      1  0.4430320000000  0.4406120000000  0.5348180000000 1.0
C      1  0.5374510000000  0.4724170000000  0.4177300000000 1.0
C      1  0.5468480000000  0.5171040000000  0.5281440000000 1.0
C      1  0.4701910000000  0.4395540000000  0.5760770000000 1.0
C      1  0.6061870000000  0.5342240000000  0.4703430000000 1.0
C      1  0.4573760000000  0.4561820000000  0.4917980000000 1.0
C      1  0.5372270000000  0.5433540000000  0.5253570000000 1.0
C      1  0.5449510000000  0.5064010000000  0.5899310000000 1.0
C      1  0.5210770000000  0.4946440000000  0.4274860000000 1.0
C      1  0.4754920000000  0.5316240000000  0.4661700000000 1.0
C      1  0.5894790000000  0.5704310000000  0.5190190000000 1.0
C      1  0.4807560000000  0.5942130000000  0.5720180000000 1.0
C      1  0.4390290000000  0.5626750000000  0.5680650000000 1.0
C      1  0.5541230000000  0.5948050000000  0.4629250000000 1.0
C      1  0.5001440000000  0.5803880000000  0.5145840000000 1.0
C      1  0.4980130000000  0.4523020000000  0.4065940000000 1.0
C      1  0.4476550000000  0.5005790000000  0.4411560000000 1.0
C      1  0.5104920000000  0.4652670000000  0.6078640000000 1.0
C      1  0.5923500000000  0.5201970000000  0.5112950000000 1.0
C      1  0.4374500000000  0.5292740000000  0.4992950000000 1.0
C      1  0.4726510000000  0.4963100000000  0.5359780000000 1.0
C      1  0.5244870000000  0.4224880000000  0.5294800000000 1.0
C      1  0.5876940000000  0.5422590000000  0.5554690000000 1.0
C      1  0.5233620000000  0.4468270000000  0.4206900000000 1.0
C      1  0.5269130000000  0.5973580000000  0.4573130000000 1.0
C      1  0.4306880000000  0.5372720000000  0.5261930000000 1.0
C      1  0.5381070000000  0.5558150000000  0.4981580000000 1.0
C      1  0.4740340000000  0.5119620000000  0.3823020000000 1.0
C      1  0.5758480000000  0.4409480000000  0.4643920000000 1.0
C      1  0.3741970000000  0.4162700000000  0.5219260000000 1.0
C      1  0.5411430000000  0.4267780000000  0.5521840000000 1.0
C      1  0.3796360000000  0.4754200000000  0.5487060000000 1.0
C      1  0.5656120000000  0.4786560000000  0.4165260000000 1.0
C      1  0.4316910000000  0.5134230000000  0.5703440000000 1.0
C      1  0.4903650000000  0.5434400000000  0.5408640000000 1.0
C      1  0.3582480000000  0.4609590000000  0.5414050000000 1.0
C      1  0.4857420000000  0.5474660000000  0.6064580000000 1.0
C      1  0.4525700000000  0.5443550000000  0.4785580000000 1.0
C      1  0.5229840000000  0.5262810000000  0.4661560000000 1.0
C      1  0.5962870000000  0.5602380000000  0.4678710000000 1.0
C      1  0.4208280000000  0.4032090000000  0.5059070000000 1.0
C      1  0.5113480000000  0.5465690000000  0.5941280000000 1.0
C      1  0.3379600000000  0.3833580000000  0.5180920000000 1.0
C      1  0.4506240000000  0.5098550000000  0.5935630000000 1.0
C      1  0.4084280000000  0.3794380000000  0.4970610000000 1.0
C      1  0.4965710000000  0.4657030000000  0.3804640000000 1.0
C      1  0.5081840000000  0.5686430000000  0.4230480000000 1.0
C      1  0.4511270000000  0.5710850000000  0.4658720000000 1.0
C      1  0.4120970000000  0.5617550000000  0.4354780000000 1.0
C      1  0.5962730000000  0.5432050000000  0.5272450000000 1.0
C      1  0.4631970000000  0.5324340000000  0.6057790000000 1.0
C      1  0.4636130000000  0.4664980000000  0.5740090000000 1.0
C      1  0.4929110000000  0.4936620000000  0.4323350000000 1.0
C      1  0.5131040000000  0.4109550000000  0.5079020000000 1.0
C      1  0.5854360000000  0.5169790000000  0.5677950000000 1.0
C      1  0.4738910000000  0.5116660000000  0.4449700000000 1.0
C      1  0.4708270000000  0.3979030000000  0.4871900000000 1.0
C      1  0.5200940000000  0.5193780000000  0.5888040000000 1.0
C      1  0.4999720000000  0.5430180000000  0.4743520000000 1.0
C      1  0.6049370000000  0.5096490000000  0.4871900000000 1.0
C      1  0.5593900000000  0.4999550000000  0.4576300000000 1.0
C      1  0.5284950000000  0.4556050000000  0.5903940000000 1.0
C      1  0.4130130000000  0.5367450000000  0.4259500000000 1.0
C      1  0.5641990000000  0.4711550000000  0.5590500000000 1.0
C      1  0.5559560000000  0.4052320000000  0.5609520000000 1.0
C      1  0.5314750000000  0.4973540000000  0.5387690000000 1.0
C      1  0.4274730000000  0.4888930000000  0.5544080000000 1.0
C      1  0.5018320000000  0.5863120000000  0.4453510000000 1.0
C      1  0.4834310000000  0.3888550000000  0.5798960000000 1.0
C      1  0.4483780000000  0.4098220000000  0.4999920000000 1.0
C      1  0.4150090000000  0.4437050000000  0.5366670000000 1.0
C      1  0.5776980000000  0.4651660000000  0.5046750000000 1.0
C      1  0.3823050000000  0.3739060000000  0.5007390000000 1.0
C      1  0.4565450000000  0.5823570000000  0.5740130000000 1.0
C      1  0.5198080000000  0.4746720000000  0.3666440000000 1.0
C      1  0.4819650000000  0.4681890000000  0.4242580000000 1.0
C      1  0.4783970000000  0.5657990000000  0.5269080000000 1.0
C      1  0.4321300000000  0.5015240000000  0.4942240000000 1.0
C      1  0.5577090000000  0.4503290000000  0.4870160000000 1.0
C      1  0.5785900000000  0.5817830000000  0.4663070000000 1.0
C      1  0.5760750000000  0.4825390000000  0.4428170000000 1.0
C      1  0.4648520000000  0.4841150000000  0.5967500000000 1.0
C      1  0.4448930000000  0.4769680000000  0.4558000000000 1.0
C      1  0.4547840000000  0.4799340000000  0.5506300000000 1.0
C      1  0.5111990000000  0.4093970000000  0.4582890000000 1.0
C      1  0.4987230000000  0.4040900000000  0.4839510000000 1.0
C      1  0.4755600000000  0.5845660000000  0.4573340000000 1.0
C      1  0.5184120000000  0.5244950000000  0.3722530000000 1.0
C      1  0.5004700000000  0.5083420000000  0.5718070000000 1.0
C      1  0.5762280000000  0.4669700000000  0.5331450000000 1.0
C      1  0.3567580000000  0.4366150000000  0.5303530000000 1.0
C      1  0.5703870000000  0.5834600000000  0.5365260000000 1.0
C      1  0.5298630000000  0.4312550000000  0.4473260000000 1.0
C      1  0.5457130000000  0.5970790000000  0.5313670000000 1.0
C      1  0.4315880000000  0.5383580000000  0.5551440000000 1.0
C      1  0.5441930000000  0.4514020000000  0.5671130000000 1.0
C      1  0.4026580000000  0.4216290000000  0.5216260000000 1.0
C      1  0.5599010000000  0.4245560000000  0.4469950000000 1.0
C      1  0.5460500000000  0.5469970000000  0.4704890000000 1.0
C      1  0.5980890000000  0.4795620000000  0.4851260000000 1.0
C      1  0.5043860000000  0.4629890000000  0.4784990000000 1.0
C      1  0.4271170000000  0.5141860000000  0.4281630000000 1.0
C      1  0.5356970000000  0.5110730000000  0.4440860000000 1.0
C      1  0.5509450000000  0.5698310000000  0.5786760000000 1.0
C      1  0.4270010000000  0.5764840000000  0.4522720000000 1.0
C      1  0.5354950000000  0.5618980000000  0.4243020000000 1.0
C      1  0.4543000000000  0.4357700000000  0.5099750000000 1.0
C      1  0.4941670000000  0.5320270000000  0.3853980000000 1.0
C      1  0.5723950000000  0.5666860000000  0.5609940000000 1.0
C      1  0.4769970000000  0.4569830000000  0.4719120000000 1.0
C      1  0.5168830000000  0.5950240000000  0.5345680000000 1.0
C      1  0.4935260000000  0.5538590000000  0.4037050000000 1.0
C      1  0.5298730000000  0.4503320000000  0.4734840000000 1.0
C      1  0.3638120000000  0.3908620000000  0.5136630000000 1.0
C      1  0.5186370000000  0.5495420000000  0.5461680000000 1.0
C      1  0.4389250000000  0.4766810000000  0.4830570000000 1.0
C      1  0.5076000000000  0.5910010000000  0.5630570000000 1.0
C      1  0.4539350000000  0.5772640000000  0.5233460000000 1.0
C      1  0.5665940000000  0.4965970000000  0.5739840000000 1.0
C      1  0.5552830000000  0.5513730000000  0.4417420000000 1.0
C      1  0.5540910000000  0.5004450000000  0.4860640000000 1.0
END
