TITL C-627111-6168-2146 0.548006668135133 125000 -428.457603730404 0 0 71 (C1) n - 1
REM
REM in /home/nfs/bkarasulu/CARBON/AIRSS/Generating-Clusters/LCBOP/Only-C1/SD-CG/FIRE-CG
REM
REM
REM
REM
REM
REM ./C.cell (11c1c37f851c82e70ff6c80c92926a4b)
REM AIRSS Version 0.9.1 bugfix July 2018 build 013d7b7c2542+ Fri, 06 Jul 2018 19:26:36 +0100
REM compiler GCC version 9.2.1 20190827 (Red Hat 9.2.1-1)
REM options -cpp -mtune=generic -march=x86-64 -g -O0 -fpre-include=/usr/include/finclude/math-vector-fortran.h
REM seed 768258274 -1027680470 1669854145 1133253149 -1961557013 498565239 146708008 -1540429857 -571776411 -159105422 1053398427 1147472412 -608572693 381677464 -1035274472 -1486409751 -2105110350 1629760480 806985663 -997525866 1474741262 656202952 -902669357 -1928750539 -1206903495 -338255685 720397170 -729111439 498623493 644371107 1200704086 1841047108 56696263
REM
CELL 1.54180   50.00000   50.00000   50.00000   90.00000   90.00000   90.00000
LATT -1
SFAC C  
C      1  0.4709990000000  0.5205150000000  0.5317320000000 1.0
C      1  0.4571490000000  0.4624870000000  0.5386560000000 1.0
C      1  0.4323990000000  0.5006360000000  0.5537490000000 1.0
C      1  0.4482800000000  0.4955980000000  0.4342530000000 1.0
C      1  0.4986820000000  0.5997350000000  0.4960480000000 1.0
C      1  0.4349410000000  0.4939420000000  0.5061910000000 1.0
C      1  0.4888780000000  0.5206970000000  0.4242890000000 1.0
C      1  0.4373740000000  0.4823430000000  0.5321980000000 1.0
C      1  0.4428270000000  0.4801750000000  0.4817170000000 1.0
C      1  0.4816130000000  0.5999200000000  0.4738090000000 1.0
C      1  0.4929910000000  0.6060430000000  0.4489200000000 1.0
C      1  0.5662040000000  0.5059780000000  0.5713670000000 1.0
C      1  0.5270230000000  0.5497000000000  0.4284860000000 1.0
C      1  0.4611290000000  0.3854690000000  0.5220810000000 1.0
C      1  0.5630670000000  0.2820610000000  0.4621690000000 1.0
C      1  0.5125140000000  0.4598380000000  0.5016560000000 1.0
C      1  0.5772320000000  0.5719820000000  0.4828300000000 1.0
C      1  0.5255050000000  0.5760560000000  0.4244710000000 1.0
C      1  0.4252150000000  0.5221980000000  0.4697830000000 1.0
C      1  0.5997430000000  0.5861690000000  0.4862500000000 1.0
C      1  0.4641400000000  0.4527550000000  0.4486060000000 1.0
C      1  0.4117030000000  0.5001590000000  0.5711630000000 1.0
C      1  0.4811690000000  0.5225880000000  0.5071720000000 1.0
C      1  0.5478230000000  0.5214580000000  0.5271280000000 1.0
C      1  0.5058380000000  0.3273180000000  0.4925820000000 1.0
C      1  0.4885390000000  0.3446250000000  0.5027510000000 1.0
C      1  0.5065780000000  0.4859940000000  0.5432870000000 1.0
C      1  0.4517670000000  0.4352690000000  0.5362000000000 1.0
C      1  0.5904320000000  0.5773480000000  0.5482100000000 1.0
C      1  0.5454550000000  0.5114890000000  0.5539680000000 1.0
C      1  0.4286530000000  0.5227980000000  0.4997060000000 1.0
C      1  0.4537020000000  0.5190670000000  0.5525310000000 1.0
C      1  0.5174800000000  0.5076490000000  0.5591640000000 1.0
C      1  0.5861880000000  0.5017350000000  0.5875450000000 1.0
C      1  0.5355170000000  0.5100840000000  0.4799610000000 1.0
C      1  0.5209890000000  0.5649340000000  0.5294890000000 1.0
C      1  0.5042400000000  0.5325580000000  0.5631190000000 1.0
C      1  0.4732430000000  0.3638430000000  0.5127010000000 1.0
C      1  0.4509110000000  0.5627910000000  0.5273500000000 1.0
C      1  0.4735740000000  0.5657030000000  0.5419950000000 1.0
C      1  0.5000790000000  0.5558670000000  0.5472170000000 1.0
C      1  0.4576870000000  0.4696190000000  0.4282900000000 1.0
C      1  0.4535300000000  0.4095040000000  0.5302700000000 1.0
C      1  0.4633670000000  0.4610570000000  0.4758880000000 1.0
C      1  0.5243950000000  0.3113950000000  0.4823690000000 1.0
C      1  0.4563820000000  0.5878050000000  0.4757540000000 1.0
C      1  0.6094200000000  0.5900700000000  0.5341650000000 1.0
C      1  0.5144270000000  0.5872570000000  0.5134320000000 1.0
C      1  0.5679920000000  0.5633080000000  0.5445480000000 1.0
C      1  0.5371620000000  0.5033920000000  0.5074050000000 1.0
C      1  0.4407960000000  0.5649300000000  0.4792330000000 1.0
C      1  0.5584850000000  0.5593810000000  0.4971050000000 1.0
C      1  0.4344560000000  0.4972630000000  0.4593510000000 1.0
C      1  0.4826860000000  0.4715260000000  0.5474770000000 1.0
C      1  0.4339030000000  0.5469780000000  0.4579320000000 1.0
C      1  0.4914550000000  0.5256710000000  0.4828860000000 1.0
C      1  0.5111050000000  0.5974680000000  0.4312970000000 1.0
C      1  0.5483600000000  0.5517850000000  0.5245400000000 1.0
C      1  0.5559640000000  0.3932210000000  0.4901800000000 1.0
C      1  0.6136560000000  0.5940050000000  0.5078960000000 1.0
C      1  0.5136060000000  0.5212400000000  0.4661330000000 1.0
C      1  0.5308500000000  0.4392790000000  0.4971690000000 1.0
C      1  0.4864930000000  0.4579070000000  0.4912630000000 1.0
C      1  0.5665440000000  0.3696170000000  0.4869300000000 1.0
C      1  0.5437890000000  0.2964750000000  0.4721790000000 1.0
C      1  0.5446180000000  0.4169410000000  0.4935410000000 1.0
C      1  0.4377940000000  0.5509880000000  0.5050280000000 1.0
C      1  0.4608620000000  0.5198890000000  0.4258630000000 1.0
C      1  0.4467890000000  0.5436520000000  0.4330730000000 1.0
C      1  0.5198420000000  0.4822960000000  0.5175560000000 1.0
C      1  0.5118010000000  0.5285070000000  0.4387510000000 1.0
END
