TITL C-627113-6568-85 0.0446816806779713 125000 -384.637467628959 0 0 63 (C1) n - 1
REM
REM in /home/nfs/bkarasulu/CARBON/AIRSS/Generating-Clusters/LCBOP/Only-C1/SD-CG/FIRE-CG
REM
REM
REM
REM
REM
REM ./C.cell (11c1c37f851c82e70ff6c80c92926a4b)
REM AIRSS Version 0.9.1 bugfix July 2018 build 013d7b7c2542+ Fri, 06 Jul 2018 19:26:36 +0100
REM compiler GCC version 9.2.1 20190827 (Red Hat 9.2.1-1)
REM options -cpp -mtune=generic -march=x86-64 -g -O0 -fpre-include=/usr/include/finclude/math-vector-fortran.h
REM seed -752115919 -1103308316 142341168 -948772085 1765345737 1026758026 -1995980273 401891344 99135901 1870127887 916048856 -1540572275 -1665782904 491045117 -1462777567 -1110571864 554175300 2102972087 1322171915 -1939638393 -2041088574 1474401376 2144313636 1427822629 1621051073 512558702 1653378306 1482271558 -395525532 1297159172 -427070158 26776243 943016231
REM
CELL 1.54180   50.00000   50.00000   50.00000   90.00000   90.00000   90.00000
LATT -1
SFAC C  
C      1  0.4902140000000  0.5612970000000  0.5865440000000 1.0
C      1  0.4653970000000  0.5618540000000  0.4989010000000 1.0
C      1  0.5024300000000  0.4997040000000  0.5469160000000 1.0
C      1  0.4793760000000  0.4867360000000  0.4837050000000 1.0
C      1  0.5656480000000  0.4720410000000  0.4707640000000 1.0
C      1  0.4981400000000  0.6219840000000  0.6365880000000 1.0
C      1  0.5511290000000  0.4782390000000  0.5383920000000 1.0
C      1  0.5004000000000  0.5154520000000  0.5709000000000 1.0
C      1  0.5094910000000  0.5547460000000  0.4588290000000 1.0
C      1  0.4932080000000  0.5850970000000  0.5301030000000 1.0
C      1  0.4551120000000  0.5302660000000  0.4152820000000 1.0
C      1  0.5265760000000  0.5084960000000  0.4637540000000 1.0
C      1  0.4595670000000  0.5182760000000  0.5364490000000 1.0
C      1  0.5642820000000  0.4414980000000  0.4217070000000 1.0
C      1  0.5346720000000  0.4381680000000  0.4885270000000 1.0
C      1  0.5084570000000  0.4339150000000  0.5771270000000 1.0
C      1  0.4609920000000  0.4688650000000  0.4395290000000 1.0
C      1  0.5050280000000  0.4270860000000  0.5516410000000 1.0
C      1  0.4808400000000  0.5539060000000  0.4522350000000 1.0
C      1  0.5925630000000  0.4735330000000  0.4779780000000 1.0
C      1  0.5031870000000  0.4742660000000  0.4142660000000 1.0
C      1  0.5097230000000  0.4775280000000  0.6040410000000 1.0
C      1  0.4434260000000  0.5094420000000  0.4565550000000 1.0
C      1  0.4878180000000  0.5408880000000  0.5678590000000 1.0
C      1  0.4766040000000  0.4781440000000  0.5106510000000 1.0
C      1  0.4928240000000  0.5814410000000  0.6035400000000 1.0
C      1  0.5203990000000  0.3939000000000  0.5006340000000 1.0
C      1  0.5103710000000  0.4518890000000  0.5966940000000 1.0
C      1  0.6178240000000  0.4743650000000  0.4843280000000 1.0
C      1  0.5325310000000  0.3773640000000  0.4834100000000 1.0
C      1  0.4084610000000  0.5217400000000  0.5269260000000 1.0
C      1  0.4399860000000  0.5096790000000  0.4272460000000 1.0
C      1  0.4794100000000  0.5394930000000  0.4263090000000 1.0
C      1  0.4430490000000  0.4818740000000  0.4205560000000 1.0
C      1  0.5203860000000  0.5305700000000  0.4470760000000 1.0
C      1  0.4319490000000  0.5150190000000  0.5376450000000 1.0
C      1  0.5510400000000  0.4953030000000  0.4652980000000 1.0
C      1  0.4391510000000  0.5337900000000  0.4699360000000 1.0
C      1  0.4750180000000  0.5641620000000  0.5253030000000 1.0
C      1  0.4594190000000  0.4860500000000  0.4636740000000 1.0
C      1  0.5231290000000  0.5747660000000  0.4722280000000 1.0
C      1  0.5269530000000  0.4890530000000  0.5391570000000 1.0
C      1  0.5081610000000  0.5003110000000  0.4099440000000 1.0
C      1  0.5258440000000  0.5906720000000  0.4934400000000 1.0
C      1  0.4854140000000  0.4600780000000  0.4287390000000 1.0
C      1  0.5527720000000  0.4466370000000  0.4686930000000 1.0
C      1  0.4818200000000  0.4512870000000  0.5168080000000 1.0
C      1  0.5046500000000  0.4969320000000  0.4769440000000 1.0
C      1  0.5482170000000  0.3812870000000  0.4620570000000 1.0
C      1  0.4955020000000  0.6018650000000  0.6202200000000 1.0
C      1  0.4007910000000  0.5328700000000  0.5038180000000 1.0
C      1  0.5586110000000  0.4301940000000  0.4459870000000 1.0
C      1  0.5186280000000  0.4216400000000  0.5048440000000 1.0
C      1  0.5141270000000  0.5954960000000  0.5169980000000 1.0
C      1  0.4612290000000  0.5517050000000  0.4729920000000 1.0
C      1  0.5579470000000  0.4022660000000  0.4487200000000 1.0
C      1  0.5739150000000  0.4658870000000  0.5411730000000 1.0
C      1  0.5061930000000  0.5024240000000  0.5949710000000 1.0
C      1  0.4783980000000  0.4974970000000  0.5313560000000 1.0
C      1  0.5011190000000  0.4323650000000  0.5243950000000 1.0
C      1  0.4141260000000  0.5388590000000  0.4814200000000 1.0
C      1  0.5045350000000  0.5247020000000  0.4231610000000 1.0
C      1  0.4718230000000  0.5431390000000  0.5441140000000 1.0
END
