TITL C-627107-135-719 1.50556121693797e-09 125000 -488.66841267969 0 0 80 (C1) n - 1
REM
REM in /home/nfs/bkarasulu/CARBON/AIRSS/Generating-Clusters/LCBOP/Only-C1/SD-CG/FIRE-CG
REM
REM
REM
REM
REM
REM ./C.cell (11c1c37f851c82e70ff6c80c92926a4b)
REM AIRSS Version 0.9.1 bugfix July 2018 build 013d7b7c2542+ Fri, 06 Jul 2018 19:26:36 +0100
REM compiler GCC version 9.2.1 20190827 (Red Hat 9.2.1-1)
REM options -cpp -mtune=generic -march=x86-64 -g -O0 -fpre-include=/usr/include/finclude/math-vector-fortran.h
REM seed -1854497756 -1836481888 -974836752 -496374975 -184099895 248309240 2141313749 -846824497 -193889709 18976399 1979542910 1613540022 -1963459429 139153636 1776741692 1932789371 -1090139150 -431966640 1589167596 1091634646 121630318 112599095 1802971489 1343580084 -1460858104 -614534532 2139998923 -580029274 -28541341 -932707160 -1260553442 1108802032 -130230923
REM
CELL 1.54180   50.00000   50.00000   50.00000   90.00000   90.00000   90.00000
LATT -1
SFAC C  
C      1  0.4750540000000  0.5961800000000  0.4834400000000 1.0
C      1  0.4386020000000  0.5762750000000  0.5372070000000 1.0
C      1  0.5038620000000  0.5587640000000  0.5729880000000 1.0
C      1  0.4934500000000  0.4328650000000  0.5462770000000 1.0
C      1  0.5230500000000  0.5188730000000  0.4907080000000 1.0
C      1  0.5709840000000  0.4524700000000  0.4704090000000 1.0
C      1  0.4749430000000  0.4954110000000  0.4185580000000 1.0
C      1  0.5621180000000  0.5309820000000  0.5216820000000 1.0
C      1  0.4583340000000  0.5341340000000  0.4814490000000 1.0
C      1  0.4112130000000  0.5088520000000  0.5244720000000 1.0
C      1  0.5423030000000  0.5105570000000  0.4426180000000 1.0
C      1  0.5388110000000  0.5590300000000  0.4517630000000 1.0
C      1  0.5618410000000  0.4349210000000  0.4887920000000 1.0
C      1  0.4921680000000  0.4781470000000  0.4851640000000 1.0
C      1  0.5564270000000  0.5506260000000  0.4734330000000 1.0
C      1  0.4720890000000  0.4491920000000  0.5596640000000 1.0
C      1  0.5434490000000  0.5350960000000  0.5643700000000 1.0
C      1  0.5083360000000  0.4975210000000  0.5309040000000 1.0
C      1  0.5359530000000  0.4674710000000  0.5583570000000 1.0
C      1  0.4937870000000  0.5441720000000  0.5286490000000 1.0
C      1  0.4505390000000  0.5818520000000  0.4889740000000 1.0
C      1  0.5434180000000  0.4247230000000  0.5379130000000 1.0
C      1  0.5514630000000  0.4225810000000  0.5105330000000 1.0
C      1  0.5048250000000  0.4992250000000  0.5035880000000 1.0
C      1  0.5049490000000  0.4282540000000  0.4544210000000 1.0
C      1  0.5058760000000  0.5445770000000  0.4994770000000 1.0
C      1  0.5253030000000  0.4563000000000  0.4214960000000 1.0
C      1  0.5847230000000  0.4841870000000  0.5336430000000 1.0
C      1  0.5738250000000  0.4723800000000  0.4523180000000 1.0
C      1  0.5139900000000  0.5752430000000  0.4568940000000 1.0
C      1  0.4835680000000  0.4568530000000  0.5042100000000 1.0
C      1  0.3872230000000  0.4387370000000  0.5261130000000 1.0
C      1  0.4634060000000  0.4795870000000  0.4394470000000 1.0
C      1  0.5046150000000  0.5672100000000  0.5452420000000 1.0
C      1  0.4551360000000  0.4656020000000  0.5404970000000 1.0
C      1  0.4386330000000  0.4303640000000  0.4756950000000 1.0
C      1  0.4849710000000  0.5436480000000  0.4783440000000 1.0
C      1  0.5132050000000  0.4680270000000  0.4006220000000 1.0
C      1  0.4100810000000  0.4398650000000  0.5136480000000 1.0
C      1  0.5172980000000  0.4164630000000  0.5485920000000 1.0
C      1  0.5310380000000  0.5707290000000  0.5320800000000 1.0
C      1  0.5157980000000  0.4748140000000  0.4658330000000 1.0
C      1  0.4795420000000  0.4637410000000  0.5832950000000 1.0
C      1  0.5653100000000  0.4943920000000  0.4386470000000 1.0
C      1  0.4536720000000  0.4952610000000  0.5428560000000 1.0
C      1  0.4967410000000  0.5200410000000  0.5463290000000 1.0
C      1  0.5797810000000  0.4589440000000  0.5422010000000 1.0
C      1  0.4348930000000  0.4418300000000  0.5010020000000 1.0
C      1  0.4453600000000  0.5654410000000  0.5130330000000 1.0
C      1  0.4994660000000  0.5960780000000  0.4706210000000 1.0
C      1  0.5182520000000  0.4523690000000  0.4485220000000 1.0
C      1  0.5513630000000  0.5312200000000  0.4948280000000 1.0
C      1  0.4517930000000  0.4541590000000  0.4359110000000 1.0
C      1  0.5242950000000  0.5686340000000  0.5039660000000 1.0
C      1  0.5304480000000  0.5354530000000  0.4339470000000 1.0
C      1  0.5018250000000  0.4515260000000  0.5253640000000 1.0
C      1  0.4797810000000  0.4190710000000  0.4530490000000 1.0
C      1  0.5140980000000  0.5300170000000  0.5717260000000 1.0
C      1  0.4428090000000  0.5441340000000  0.4584630000000 1.0
C      1  0.5551700000000  0.4478010000000  0.5508960000000 1.0
C      1  0.5710070000000  0.5082510000000  0.5384250000000 1.0
C      1  0.4366390000000  0.5713290000000  0.4656950000000 1.0
C      1  0.4735550000000  0.5059670000000  0.5605770000000 1.0
C      1  0.4563530000000  0.4553450000000  0.5134490000000 1.0
C      1  0.5165710000000  0.4721680000000  0.5382640000000 1.0
C      1  0.4544640000000  0.4314260000000  0.4526450000000 1.0
C      1  0.4872070000000  0.4910960000000  0.5823730000000 1.0
C      1  0.4703130000000  0.4858150000000  0.4663190000000 1.0
C      1  0.4912810000000  0.4834120000000  0.3991860000000 1.0
C      1  0.4516420000000  0.5352280000000  0.4330200000000 1.0
C      1  0.5143760000000  0.5021640000000  0.5863200000000 1.0
C      1  0.4473930000000  0.5360970000000  0.5083600000000 1.0
C      1  0.5282540000000  0.5012890000000  0.4652880000000 1.0
C      1  0.4761080000000  0.5232990000000  0.4232760000000 1.0
C      1  0.4940830000000  0.5541060000000  0.4537200000000 1.0
C      1  0.5395050000000  0.4896430000000  0.5757690000000 1.0
C      1  0.5002970000000  0.5362950000000  0.4318290000000 1.0
C      1  0.4385790000000  0.5136010000000  0.5251740000000 1.0
C      1  0.5498510000000  0.5508100000000  0.5406500000000 1.0
C      1  0.5572660000000  0.5097860000000  0.5645220000000 1.0
END
