TITL C-627106-156-1039 156965.343155076 125000 -847.730426188766 0 0 142 (C1) n - 1
REM
REM in /home/nfs/bkarasulu/CARBON/AIRSS/Generating-Clusters/LCBOP/Only-C1/SD-CG/FIRE-CG
REM
REM
REM
REM
REM
REM ./C.cell (11c1c37f851c82e70ff6c80c92926a4b)
REM AIRSS Version 0.9.1 bugfix July 2018 build 013d7b7c2542+ Fri, 06 Jul 2018 19:26:36 +0100
REM compiler GCC version 9.2.1 20190827 (Red Hat 9.2.1-1)
REM options -cpp -mtune=generic -march=x86-64 -g -O0 -fpre-include=/usr/include/finclude/math-vector-fortran.h
REM seed 385705929 118462795 1902398148 1350962489 -1932169562 -1443531326 208109435 -423813509 253555338 -825394482 910581154 1298809545 732709196 -1336530439 1363732488 1171192245 -251290317 780326477 -1309529916 -1222696196 831004480 -850610131 1153227659 -997761253 -571874374 2122907428 -1183546538 706430763 1006709033 -243414350 -57520770 -1772975545 -967991644
REM
CELL 1.54180   50.00000   50.00000   50.00000   90.00000   90.00000   90.00000
LATT -1
SFAC C  
C      1  0.6100410000000  0.4451880000000  0.4258340000000 1.0
C      1  0.5426640000000  0.4572600000000  0.5629350000000 1.0
C      1  0.5740900000000  0.5385840000000  0.4901250000000 1.0
C      1  0.4721560000000  0.5959750000000  0.5215460000000 1.0
C      1  0.4505390000000  0.5446640000000  0.4087470000000 1.0
C      1  0.4121740000000  0.5197500000000  0.3962020000000 1.0
C      1  0.4144180000000  0.4633030000000  0.5172290000000 1.0
C      1  0.4493480000000  0.4595600000000  0.6311180000000 1.0
C      1  0.3831710000000  0.4774540000000  0.4798980000000 1.0
C      1  0.5142320000000  0.6024460000000  0.5526410000000 1.0
C      1  0.4391630000000  0.4300890000000  0.4848440000000 1.0
C      1  0.6231700000000  0.4775180000000  0.5112060000000 1.0
C      1  0.6340630000000  0.4480910000000  0.4161620000000 1.0
C      1  0.5466970000000  0.4229480000000  0.4539180000000 1.0
C      1  0.6048800000000  0.5140830000000  0.4292530000000 1.0
C      1  0.5962520000000  0.4596260000000  0.5140520000000 1.0
C      1  0.4632350000000  0.4334590000000  0.4008210000000 1.0
C      1  0.3902400000000  0.4677010000000  0.5038160000000 1.0
C      1  0.5381680000000  0.4575870000000  0.4983600000000 1.0
C      1  0.4522820000000  0.5730130000000  0.5592410000000 1.0
C      1  0.4864040000000  0.6036190000000  0.5464950000000 1.0
C      1  0.5458760000000  0.6375150000000  0.5264990000000 1.0
C      1  0.4691880000000  0.5252670000000  0.6181180000000 1.0
C      1  0.5715740000000  0.4878020000000  0.5876610000000 1.0
C      1  0.4319000000000  0.5278860000000  0.5127930000000 1.0
C      1  0.5133890000000  0.5156240000000  0.4261830000000 1.0
C      1  0.3920230000000  0.4920060000000  0.4338950000000 1.0
C      1  0.5455600000000  0.4890950000000  0.4624220000000 1.0
C      1  0.5565250000000  0.5798170000000  0.5630960000000 1.0
C      1  0.4884800000000  0.5157650000000  0.4405620000000 1.0
C      1  0.5995120000000  0.4974790000000  0.5539100000000 1.0
C      1  0.5387630000000  0.5071260000000  0.4205570000000 1.0
C      1  0.4519290000000  0.5744780000000  0.5286410000000 1.0
C      1  0.4796780000000  0.5495070000000  0.4525830000000 1.0
C      1  0.4547070000000  0.5523740000000  0.5784670000000 1.0
C      1  0.4459890000000  0.5543100000000  0.5090390000000 1.0
C      1  0.5890670000000  0.4702750000000  0.5462590000000 1.0
C      1  0.4352120000000  0.5120840000000  0.3804640000000 1.0
C      1  0.5281580000000  0.5806600000000  0.5659430000000 1.0
C      1  0.5127720000000  0.5054110000000  0.5735740000000 1.0
C      1  0.4812580000000  0.4275520000000  0.5030780000000 1.0
C      1  0.4456290000000  0.4297770000000  0.5350150000000 1.0
C      1  0.4521810000000  0.4187690000000  0.4221620000000 1.0
C      1  0.4696340000000  0.5314660000000  0.5909600000000 1.0
C      1  0.5608270000000  0.5292060000000  0.5621970000000 1.0
C      1  0.5558610000000  0.4663570000000  0.4767740000000 1.0
C      1  0.5118530000000  0.4551500000000  0.4337320000000 1.0
C      1  0.4613060000000  0.5190090000000  0.4806550000000 1.0
C      1  0.4266540000000  0.4930220000000  0.4691750000000 1.0
C      1  0.4345030000000  0.5122650000000  0.4883540000000 1.0
C      1  0.5032810000000  0.5699460000000  0.4529900000000 1.0
C      1  0.5846000000000  0.4295460000000  0.5118640000000 1.0
C      1  0.4888960000000  0.4533370000000  0.4927050000000 1.0
C      1  0.4501260000000  0.4745810000000  0.4639530000000 1.0
C      1  0.5902210000000  0.4948400000000  0.4736710000000 1.0
C      1  0.4597870000000  0.4814340000000  0.6424020000000 1.0
C      1  0.3847030000000  0.5679700000000  0.4363110000000 1.0
C      1  0.5614980000000  0.6478830000000  0.5083730000000 1.0
C      1  0.5818440000000  0.5109310000000  0.5737090000000 1.0
C      1  0.5452310000000  0.4325780000000  0.5477430000000 1.0
C      1  0.5194910000000  0.5555580000000  0.5765730000000 1.0
C      1  0.5690020000000  0.4664690000000  0.5683740000000 1.0
C      1  0.5376430000000  0.4441910000000  0.4357100000000 1.0
C      1  0.5077130000000  0.5122430000000  0.5176510000000 1.0
C      1  0.4673470000000  0.5967500000000  0.5667590000000 1.0
C      1  0.4791610000000  0.4016500000000  0.4633640000000 1.0
C      1  0.5191810000000  0.4761470000000  0.5661000000000 1.0
C      1  0.4203610000000  0.5439660000000  0.4096400000000 1.0
C      1  0.4679690000000  0.4008150000000  0.4374450000000 1.0
C      1  0.6190260000000  0.5303530000000  0.5078180000000 1.0
C      1  0.4240990000000  0.4716050000000  0.5908230000000 1.0
C      1  0.5098760000000  0.5918190000000  0.4019920000000 1.0
C      1  0.5866230000000  0.5007120000000  0.4452890000000 1.0
C      1  0.4893590000000  0.5533960000000  0.5251330000000 1.0
C      1  0.5308710000000  0.4140040000000  0.4759920000000 1.0
C      1  0.4813060000000  0.6002700000000  0.4951500000000 1.0
C      1  0.3600930000000  0.5702300000000  0.4445870000000 1.0
C      1  0.5299690000000  0.5578130000000  0.4609730000000 1.0
C      1  0.3951930000000  0.5022560000000  0.4095160000000 1.0
C      1  0.5887790000000  0.5597980000000  0.5324060000000 1.0
C      1  0.5614440000000  0.4603720000000  0.4284580000000 1.0
C      1  0.4661950000000  0.4706440000000  0.4897980000000 1.0
C      1  0.5845650000000  0.4436790000000  0.4367180000000 1.0
C      1  0.4939430000000  0.5913050000000  0.4731610000000 1.0
C      1  0.5301210000000  0.6232380000000  0.5423220000000 1.0
C      1  0.5774630000000  0.5103530000000  0.4938980000000 1.0
C      1  0.5063830000000  0.5824490000000  0.4260410000000 1.0
C      1  0.5649240000000  0.4989970000000  0.5177700000000 1.0
C      1  0.4751720000000  0.4888370000000  0.4425090000000 1.0
C      1  0.4831420000000  0.5257310000000  0.3755000000000 1.0
C      1  0.5323910000000  0.5505880000000  0.5080460000000 1.0
C      1  0.5103550000000  0.5664380000000  0.5138450000000 1.0
C      1  0.4231750000000  0.4809270000000  0.5388920000000 1.0
C      1  0.4750650000000  0.4575270000000  0.4037980000000 1.0
C      1  0.3974640000000  0.5329890000000  0.5758510000000 1.0
C      1  0.5444300000000  0.5430280000000  0.4818580000000 1.0
C      1  0.4878610000000  0.4683840000000  0.4265290000000 1.0
C      1  0.4108260000000  0.5621680000000  0.4296770000000 1.0
C      1  0.5121470000000  0.4976500000000  0.4941280000000 1.0
C      1  0.4327000000000  0.4331720000000  0.4368970000000 1.0
C      1  0.4749440000000  0.4710230000000  0.5390100000000 1.0
C      1  0.4001250000000  0.4882040000000  0.4602550000000 1.0
C      1  0.5070860000000  0.4000100000000  0.4692320000000 1.0
C      1  0.4826570000000  0.5137800000000  0.5722940000000 1.0
C      1  0.4641070000000  0.4144620000000  0.4838440000000 1.0
C      1  0.6277550000000  0.5044850000000  0.5094370000000 1.0
C      1  0.5761500000000  0.4243750000000  0.4575000000000 1.0
C      1  0.5314990000000  0.5089980000000  0.4761980000000 1.0
C      1  0.5510240000000  0.4741350000000  0.5198960000000 1.0
C      1  0.4727490000000  0.4210180000000  0.5293730000000 1.0
C      1  0.4652790000000  0.4110940000000  0.5914430000000 1.0
C      1  0.4665570000000  0.5066920000000  0.6370480000000 1.0
C      1  0.4585160000000  0.5578620000000  0.4330830000000 1.0
C      1  0.4384390000000  0.4520340000000  0.6066960000000 1.0
C      1  0.4260310000000  0.4661720000000  0.5629530000000 1.0
C      1  0.6219000000000  0.5278260000000  0.4150960000000 1.0
C      1  0.4302080000000  0.4391660000000  0.5117390000000 1.0
C      1  0.4831410000000  0.4006050000000  0.5742950000000 1.0
C      1  0.5381650000000  0.4274220000000  0.5006470000000 1.0
C      1  0.4347660000000  0.5714610000000  0.4428470000000 1.0
C      1  0.4463980000000  0.4313780000000  0.5879330000000 1.0
C      1  0.5117320000000  0.4689020000000  0.4946300000000 1.0
C      1  0.4383030000000  0.4393210000000  0.5608830000000 1.0
C      1  0.4340000000000  0.5116690000000  0.5394580000000 1.0
C      1  0.4951210000000  0.4650750000000  0.5552540000000 1.0
C      1  0.4683140000000  0.5147570000000  0.5469890000000 1.0
C      1  0.5592380000000  0.4907930000000  0.4353300000000 1.0
C      1  0.4589840000000  0.5270090000000  0.3876670000000 1.0
C      1  0.4666780000000  0.5462620000000  0.4805370000000 1.0
C      1  0.5959510000000  0.5483010000000  0.5075440000000 1.0
C      1  0.4368150000000  0.4466800000000  0.4611360000000 1.0
C      1  0.4865780000000  0.4055180000000  0.5481050000000 1.0
C      1  0.5315830000000  0.5289300000000  0.5751110000000 1.0
C      1  0.4847040000000  0.5254720000000  0.5271150000000 1.0
C      1  0.4625470000000  0.4789620000000  0.5164740000000 1.0
C      1  0.5840130000000  0.4686060000000  0.4835750000000 1.0
C      1  0.5539180000000  0.5178660000000  0.5351030000000 1.0
C      1  0.5875850000000  0.4196490000000  0.4836760000000 1.0
C      1  0.5306250000000  0.5276700000000  0.5244050000000 1.0
C      1  0.4167370000000  0.5244960000000  0.5605080000000 1.0
C      1  0.5569860000000  0.4239980000000  0.5227520000000 1.0
C      1  0.5716880000000  0.5573230000000  0.5550060000000 1.0
END
