TITL C-627109-622-799 0.0473032916118109 125000 -393.780656052299 0 0 67 (C1) n - 1
REM
REM in /home/nfs/bkarasulu/CARBON/AIRSS/Generating-Clusters/LCBOP/Only-C1/SD-CG/FIRE-CG
REM
REM
REM
REM
REM
REM ./C.cell (11c1c37f851c82e70ff6c80c92926a4b)
REM AIRSS Version 0.9.1 bugfix July 2018 build 013d7b7c2542+ Fri, 06 Jul 2018 19:26:36 +0100
REM compiler GCC version 9.2.1 20190827 (Red Hat 9.2.1-1)
REM options -cpp -mtune=generic -march=x86-64 -g -O0 -fpre-include=/usr/include/finclude/math-vector-fortran.h
REM seed 1743556093 -1672339083 869203842 -1240989740 419952357 -984736033 -1829289250 -1965045156 -891987863 670192074 1555941003 1208664011 -248421983 -1295919201 -648246141 -637949827 -1401797438 -1499429631 -1562943643 1002634417 -1112563835 1781931330 1666550930 73981616 -1412803901 -1697284650 -1470620176 1155478411 -999852762 -957831636 286306061 -573581522 185718008
REM
CELL 1.54180   50.00000   50.00000   50.00000   90.00000   90.00000   90.00000
LATT -1
SFAC C  
C      1  0.5004250000000  0.5379560000000  0.5844170000000 1.0
C      1  0.5441130000000  0.4176440000000  0.4538720000000 1.0
C      1  0.4518350000000  0.4985820000000  0.5286740000000 1.0
C      1  0.4385280000000  0.5541420000000  0.5502850000000 1.0
C      1  0.4365610000000  0.5829440000000  0.4646960000000 1.0
C      1  0.4892870000000  0.4988110000000  0.5603820000000 1.0
C      1  0.5296470000000  0.5913920000000  0.5274950000000 1.0
C      1  0.4925790000000  0.4497440000000  0.5814150000000 1.0
C      1  0.5554010000000  0.4370840000000  0.4966260000000 1.0
C      1  0.5172660000000  0.4772800000000  0.4665650000000 1.0
C      1  0.4819650000000  0.5085360000000  0.4589390000000 1.0
C      1  0.5005720000000  0.3905790000000  0.5350150000000 1.0
C      1  0.3734670000000  0.5444530000000  0.4734810000000 1.0
C      1  0.5495220000000  0.4746470000000  0.5280370000000 1.0
C      1  0.4721170000000  0.4263840000000  0.4294270000000 1.0
C      1  0.4176160000000  0.5463330000000  0.5335790000000 1.0
C      1  0.5073880000000  0.5963620000000  0.4838050000000 1.0
C      1  0.4617980000000  0.6011270000000  0.5553800000000 1.0
C      1  0.4983380000000  0.4391820000000  0.4365870000000 1.0
C      1  0.4033370000000  0.5464310000000  0.5112150000000 1.0
C      1  0.5411670000000  0.4591550000000  0.5063620000000 1.0
C      1  0.5540630000000  0.6070570000000  0.4867560000000 1.0
C      1  0.5627150000000  0.3745260000000  0.5024740000000 1.0
C      1  0.5559380000000  0.4239610000000  0.4288330000000 1.0
C      1  0.5116910000000  0.6053920000000  0.5438470000000 1.0
C      1  0.3954390000000  0.4745290000000  0.4906620000000 1.0
C      1  0.4674680000000  0.5302710000000  0.4521250000000 1.0
C      1  0.5101660000000  0.5170520000000  0.5679440000000 1.0
C      1  0.4906070000000  0.4599610000000  0.5029100000000 1.0
C      1  0.5584270000000  0.4160940000000  0.4782000000000 1.0
C      1  0.4888400000000  0.4139460000000  0.5303810000000 1.0
C      1  0.3965590000000  0.5534550000000  0.4849610000000 1.0
C      1  0.5204050000000  0.3732910000000  0.5312430000000 1.0
C      1  0.5471090000000  0.4953020000000  0.5445800000000 1.0
C      1  0.5417580000000  0.4363930000000  0.4092520000000 1.0
C      1  0.6460300000000  0.3836540000000  0.4507040000000 1.0
C      1  0.4905100000000  0.4720950000000  0.5681590000000 1.0
C      1  0.4744650000000  0.5454790000000  0.5821320000000 1.0
C      1  0.5737630000000  0.3930730000000  0.4846680000000 1.0
C      1  0.5323460000000  0.6135900000000  0.4451660000000 1.0
C      1  0.4803410000000  0.5881570000000  0.4891860000000 1.0
C      1  0.4863770000000  0.4381330000000  0.5197760000000 1.0
C      1  0.5425580000000  0.5686130000000  0.5373330000000 1.0
C      1  0.5156550000000  0.4435000000000  0.4118190000000 1.0
C      1  0.4650800000000  0.5107140000000  0.5500480000000 1.0
C      1  0.4201290000000  0.4779830000000  0.4982540000000 1.0
C      1  0.4142660000000  0.5699360000000  0.4708220000000 1.0
C      1  0.5172460000000  0.4663380000000  0.4930960000000 1.0
C      1  0.4724320000000  0.4805020000000  0.4627930000000 1.0
C      1  0.4946750000000  0.4645250000000  0.4514450000000 1.0
C      1  0.5444000000000  0.5437770000000  0.5465790000000 1.0
C      1  0.6227610000000  0.3863730000000  0.4621390000000 1.0
C      1  0.5990670000000  0.3892400000000  0.4736400000000 1.0
C      1  0.5156490000000  0.4202590000000  0.4534770000000 1.0
C      1  0.4571430000000  0.5359450000000  0.5615640000000 1.0
C      1  0.5106550000000  0.5054900000000  0.4630210000000 1.0
C      1  0.4869580000000  0.6093560000000  0.5527720000000 1.0
C      1  0.5546630000000  0.6145460000000  0.4606410000000 1.0
C      1  0.4464580000000  0.4832810000000  0.5058160000000 1.0
C      1  0.5306840000000  0.5978880000000  0.5000160000000 1.0
C      1  0.4630010000000  0.5907170000000  0.4660180000000 1.0
C      1  0.4438790000000  0.5815250000000  0.5537710000000 1.0
C      1  0.5348340000000  0.5185370000000  0.5541530000000 1.0
C      1  0.4680300000000  0.4733830000000  0.4904230000000 1.0
C      1  0.5433900000000  0.3673720000000  0.5192590000000 1.0
C      1  0.5076460000000  0.6047890000000  0.4552380000000 1.0
C      1  0.4807980000000  0.6012320000000  0.4456490000000 1.0
END
