TITL C-627109-622-1297 3747.61066693546 125000 -1127.18498282852 0 0 183 (C1) n - 1
REM
REM in /home/nfs/bkarasulu/CARBON/AIRSS/Generating-Clusters/LCBOP/Only-C1/SD-CG/FIRE-CG
REM
REM
REM
REM
REM
REM ./C.cell (11c1c37f851c82e70ff6c80c92926a4b)
REM AIRSS Version 0.9.1 bugfix July 2018 build 013d7b7c2542+ Fri, 06 Jul 2018 19:26:36 +0100
REM compiler GCC version 9.2.1 20190827 (Red Hat 9.2.1-1)
REM options -cpp -mtune=generic -march=x86-64 -g -O0 -fpre-include=/usr/include/finclude/math-vector-fortran.h
REM seed 582531407 -844439460 -965331150 1436988847 854587443 1994771694 401263935 70673118 -2108833960 740094391 -1244868015 1860936869 945636288 -1267164068 1767990296 1050433414 94490205 -1119147372 870306970 -187251520 -827729432 -1123269967 -159038010 -1255950975 -1550603063 -1950276148 1613857987 727082663 -308399837 1831206033 -1528554923 430860633 531304752
REM
CELL 1.54180   50.00000   50.00000   50.00000   90.00000   90.00000   90.00000
LATT -1
SFAC C  
C      1  0.4422170000000  0.5669610000000  0.5550830000000 1.0
C      1  0.4334120000000  0.4286340000000  0.5671710000000 1.0
C      1  0.4245620000000  0.4826930000000  0.4180170000000 1.0
C      1  0.3820250000000  0.6093390000000  0.5012700000000 1.0
C      1  0.5209710000000  0.4917840000000  0.5591420000000 1.0
C      1  0.5636060000000  0.4536760000000  0.5481590000000 1.0
C      1  0.6077820000000  0.5198250000000  0.4817900000000 1.0
C      1  0.5848560000000  0.4173580000000  0.4480760000000 1.0
C      1  0.4627550000000  0.5172020000000  0.3839060000000 1.0
C      1  0.5367300000000  0.6031360000000  0.4275010000000 1.0
C      1  0.4801740000000  0.5205690000000  0.6307780000000 1.0
C      1  0.5980700000000  0.4250690000000  0.4731810000000 1.0
C      1  0.3963820000000  0.5636960000000  0.5054150000000 1.0
C      1  0.5279630000000  0.5109660000000  0.6168240000000 1.0
C      1  0.4606590000000  0.4647190000000  0.3908470000000 1.0
C      1  0.4224980000000  0.4733970000000  0.5195450000000 1.0
C      1  0.5989580000000  0.4200160000000  0.5535810000000 1.0
C      1  0.4968190000000  0.4620820000000  0.4865220000000 1.0
C      1  0.5255110000000  0.5991530000000  0.5712670000000 1.0
C      1  0.4868940000000  0.5238290000000  0.5758340000000 1.0
C      1  0.4745540000000  0.4897220000000  0.3819540000000 1.0
C      1  0.5120240000000  0.4665540000000  0.3982290000000 1.0
C      1  0.5621960000000  0.5168660000000  0.5177570000000 1.0
C      1  0.4849570000000  0.5960910000000  0.4275510000000 1.0
C      1  0.5317360000000  0.4864720000000  0.5324590000000 1.0
C      1  0.3955340000000  0.4238920000000  0.5282610000000 1.0
C      1  0.4764580000000  0.5903190000000  0.5076740000000 1.0
C      1  0.5309240000000  0.5349530000000  0.6014710000000 1.0
C      1  0.3925120000000  0.5387520000000  0.5182960000000 1.0
C      1  0.5614160000000  0.3700730000000  0.4478420000000 1.0
C      1  0.4556800000000  0.4843460000000  0.4698670000000 1.0
C      1  0.5100010000000  0.6068590000000  0.4676060000000 1.0
C      1  0.4622160000000  0.5780390000000  0.4353970000000 1.0
C      1  0.4221190000000  0.4284750000000  0.5395990000000 1.0
C      1  0.5826870000000  0.5584530000000  0.4481800000000 1.0
C      1  0.3781530000000  0.4813970000000  0.5390130000000 1.0
C      1  0.5095540000000  0.4114530000000  0.6091610000000 1.0
C      1  0.4840960000000  0.4461320000000  0.5082210000000 1.0
C      1  0.4467120000000  0.4886770000000  0.5199690000000 1.0
C      1  0.5237580000000  0.4843760000000  0.6181570000000 1.0
C      1  0.6088440000000  0.5181360000000  0.4524160000000 1.0
C      1  0.5111160000000  0.5107470000000  0.4164280000000 1.0
C      1  0.4903030000000  0.5800310000000  0.5508590000000 1.0
C      1  0.4185040000000  0.5156640000000  0.5828330000000 1.0
C      1  0.5778910000000  0.5553330000000  0.5411080000000 1.0
C      1  0.5607340000000  0.5150870000000  0.4637330000000 1.0
C      1  0.4155870000000  0.5611240000000  0.4270100000000 1.0
C      1  0.5607950000000  0.6057540000000  0.4436840000000 1.0
C      1  0.5654620000000  0.4564020000000  0.4123270000000 1.0
C      1  0.5801550000000  0.3891610000000  0.4456070000000 1.0
C      1  0.4973430000000  0.4536650000000  0.4597420000000 1.0
C      1  0.3798420000000  0.4550300000000  0.4874880000000 1.0
C      1  0.5589230000000  0.5339650000000  0.4040760000000 1.0
C      1  0.5412580000000  0.5535250000000  0.4172280000000 1.0
C      1  0.4564470000000  0.5777320000000  0.4651280000000 1.0
C      1  0.5502330000000  0.4908020000000  0.4656820000000 1.0
C      1  0.5040360000000  0.4493930000000  0.5544720000000 1.0
C      1  0.5533120000000  0.5339600000000  0.5822420000000 1.0
C      1  0.5678020000000  0.4857740000000  0.5848700000000 1.0
C      1  0.6112290000000  0.4697780000000  0.4778820000000 1.0
C      1  0.5865760000000  0.5611140000000  0.5139840000000 1.0
C      1  0.5489230000000  0.5081030000000  0.3924410000000 1.0
C      1  0.5483580000000  0.4442880000000  0.4824290000000 1.0
C      1  0.5232070000000  0.4651950000000  0.5733950000000 1.0
C      1  0.3917380000000  0.5067190000000  0.4781180000000 1.0
C      1  0.5390480000000  0.4241530000000  0.4390160000000 1.0
C      1  0.4985050000000  0.5816720000000  0.4696740000000 1.0
C      1  0.4421980000000  0.5279930000000  0.5945060000000 1.0
C      1  0.4471840000000  0.4793070000000  0.5659320000000 1.0
C      1  0.4679720000000  0.4275030000000  0.4315560000000 1.0
C      1  0.5254240000000  0.6171210000000  0.5196530000000 1.0
C      1  0.5913730000000  0.4723440000000  0.4578230000000 1.0
C      1  0.4390910000000  0.4623180000000  0.4624610000000 1.0
C      1  0.5888440000000  0.5416340000000  0.4918900000000 1.0
C      1  0.4728370000000  0.4408720000000  0.4041430000000 1.0
C      1  0.4038050000000  0.5241190000000  0.4585580000000 1.0
C      1  0.5350950000000  0.4224350000000  0.4681490000000 1.0
C      1  0.5132610000000  0.4090120000000  0.4853680000000 1.0
C      1  0.5351240000000  0.5296850000000  0.5133030000000 1.0
C      1  0.4846630000000  0.4097080000000  0.5662830000000 1.0
C      1  0.6134880000000  0.4940900000000  0.4942880000000 1.0
C      1  0.4550750000000  0.5535970000000  0.6015710000000 1.0
C      1  0.5855170000000  0.5884390000000  0.5060040000000 1.0
C      1  0.5030200000000  0.4400950000000  0.4013350000000 1.0
C      1  0.5546360000000  0.5474330000000  0.5565510000000 1.0
C      1  0.4060670000000  0.4650980000000  0.5846920000000 1.0
C      1  0.5204790000000  0.5092310000000  0.3883310000000 1.0
C      1  0.5098080000000  0.5559540000000  0.6035810000000 1.0
C      1  0.5456770000000  0.4622740000000  0.5277780000000 1.0
C      1  0.5371270000000  0.4445990000000  0.5088960000000 1.0
C      1  0.5661540000000  0.5445200000000  0.4695170000000 1.0
C      1  0.5036220000000  0.4870770000000  0.3789230000000 1.0
C      1  0.4136610000000  0.4377540000000  0.5865610000000 1.0
C      1  0.4954930000000  0.4764720000000  0.4441660000000 1.0
C      1  0.3986640000000  0.4889380000000  0.5223660000000 1.0
C      1  0.4334810000000  0.4458050000000  0.5199000000000 1.0
C      1  0.5982910000000  0.5214560000000  0.5959640000000 1.0
C      1  0.5088810000000  0.4248860000000  0.5132770000000 1.0
C      1  0.4967020000000  0.3886990000000  0.4734470000000 1.0
C      1  0.4330470000000  0.4689860000000  0.3951490000000 1.0
C      1  0.4290260000000  0.6004590000000  0.4970040000000 1.0
C      1  0.5038290000000  0.5293320000000  0.4366510000000 1.0
C      1  0.5364100000000  0.3621550000000  0.4533190000000 1.0
C      1  0.5104880000000  0.6091740000000  0.4382540000000 1.0
C      1  0.3986590000000  0.5309300000000  0.5701370000000 1.0
C      1  0.5794080000000  0.5847170000000  0.4397040000000 1.0
C      1  0.5192220000000  0.6178920000000  0.4927560000000 1.0
C      1  0.5767840000000  0.6090350000000  0.4912090000000 1.0
C      1  0.4652870000000  0.5330730000000  0.3613370000000 1.0
C      1  0.4555640000000  0.5950970000000  0.4883320000000 1.0
C      1  0.3894410000000  0.5390020000000  0.5464060000000 1.0
C      1  0.5987690000000  0.5394620000000  0.4348700000000 1.0
C      1  0.4742210000000  0.4928690000000  0.6310210000000 1.0
C      1  0.4025350000000  0.5911270000000  0.5012390000000 1.0
C      1  0.4541870000000  0.5312960000000  0.4594680000000 1.0
C      1  0.4727460000000  0.4435200000000  0.6030530000000 1.0
C      1  0.6080900000000  0.3985720000000  0.5652380000000 1.0
C      1  0.4694230000000  0.3944400000000  0.4666670000000 1.0
C      1  0.4837800000000  0.4612040000000  0.5361540000000 1.0
C      1  0.4438180000000  0.5545510000000  0.5312240000000 1.0
C      1  0.4476940000000  0.5486920000000  0.5052340000000 1.0
C      1  0.5384290000000  0.5808390000000  0.4094820000000 1.0
C      1  0.4031200000000  0.4208790000000  0.6052620000000 1.0
C      1  0.6070130000000  0.4449110000000  0.4922170000000 1.0
C      1  0.3949320000000  0.5128940000000  0.5060730000000 1.0
C      1  0.4627220000000  0.4858220000000  0.5878730000000 1.0
C      1  0.4795920000000  0.5218440000000  0.4503170000000 1.0
C      1  0.5029710000000  0.4209000000000  0.5456580000000 1.0
C      1  0.4654420000000  0.5129280000000  0.5887290000000 1.0
C      1  0.6022200000000  0.4848660000000  0.5192350000000 1.0
C      1  0.5655620000000  0.4333390000000  0.4309610000000 1.0
C      1  0.4755560000000  0.5968640000000  0.5350350000000 1.0
C      1  0.5171110000000  0.5050030000000  0.5126260000000 1.0
C      1  0.5259930000000  0.4009790000000  0.6281420000000 1.0
C      1  0.3977490000000  0.5484020000000  0.4438860000000 1.0
C      1  0.5032830000000  0.5656430000000  0.5087530000000 1.0
C      1  0.5369380000000  0.5531510000000  0.4684670000000 1.0
C      1  0.5636180000000  0.4658640000000  0.4681280000000 1.0
C      1  0.4620020000000  0.4270370000000  0.5779130000000 1.0
C      1  0.5283420000000  0.6109810000000  0.5463990000000 1.0
C      1  0.4547600000000  0.4964190000000  0.4949980000000 1.0
C      1  0.5111850000000  0.4826320000000  0.4228140000000 1.0
C      1  0.5861000000000  0.5278440000000  0.4118840000000 1.0
C      1  0.4483040000000  0.5292010000000  0.4065960000000 1.0
C      1  0.4546550000000  0.4384850000000  0.5013970000000 1.0
C      1  0.3830900000000  0.4358450000000  0.5067110000000 1.0
C      1  0.4442640000000  0.5581070000000  0.4189690000000 1.0
C      1  0.5653710000000  0.6183330000000  0.4685480000000 1.0
C      1  0.4614910000000  0.4782830000000  0.5416630000000 1.0
C      1  0.4988730000000  0.3963650000000  0.5874740000000 1.0
C      1  0.5168010000000  0.5814140000000  0.5906450000000 1.0
C      1  0.4944130000000  0.5147160000000  0.5294830000000 1.0
C      1  0.6015530000000  0.4552050000000  0.5193920000000 1.0
C      1  0.5233850000000  0.5506230000000  0.4936440000000 1.0
C      1  0.5545180000000  0.4632870000000  0.5731800000000 1.0
C      1  0.4760680000000  0.4937530000000  0.4527940000000 1.0
C      1  0.4488480000000  0.5720560000000  0.5809270000000 1.0
C      1  0.5078100000000  0.4874680000000  0.4916910000000 1.0
C      1  0.5816860000000  0.5016470000000  0.5281620000000 1.0
C      1  0.4330510000000  0.5095630000000  0.4225200000000 1.0
C      1  0.5255540000000  0.5473200000000  0.4418640000000 1.0
C      1  0.5152100000000  0.4266740000000  0.4242000000000 1.0
C      1  0.4522120000000  0.5519170000000  0.4774180000000 1.0
C      1  0.5884010000000  0.4423480000000  0.5408440000000 1.0
C      1  0.4820180000000  0.5471810000000  0.6151470000000 1.0
C      1  0.4306390000000  0.5185290000000  0.4495580000000 1.0
C      1  0.5084990000000  0.5633050000000  0.5371300000000 1.0
C      1  0.5313000000000  0.5466120000000  0.5402960000000 1.0
C      1  0.5733500000000  0.5135500000000  0.5876530000000 1.0
C      1  0.4945280000000  0.4310540000000  0.4435760000000 1.0
C      1  0.5890420000000  0.4986700000000  0.4139430000000 1.0
C      1  0.4673120000000  0.4712950000000  0.6114950000000 1.0
C      1  0.5661370000000  0.4844130000000  0.4028750000000 1.0
C      1  0.4461770000000  0.4369420000000  0.4735950000000 1.0
C      1  0.4206440000000  0.4872430000000  0.5750360000000 1.0
C      1  0.4544840000000  0.4164570000000  0.4550900000000 1.0
C      1  0.5995190000000  0.4927620000000  0.4396540000000 1.0
C      1  0.3824060000000  0.4793500000000  0.4750800000000 1.0
C      1  0.5116080000000  0.3675050000000  0.4621370000000 1.0
C      1  0.5009800000000  0.5111660000000  0.5566910000000 1.0
C      1  0.5011390000000  0.4386970000000  0.6087800000000 1.0
C      1  0.4214430000000  0.4665780000000  0.4410870000000 1.0
C      1  0.5171250000000  0.4616700000000  0.6025620000000 1.0
END
