TITL C-627111-6168-465 0.004603210367504 125000 -918.854753551504 0 0 149 (C1) n - 1
REM
REM in /home/nfs/bkarasulu/CARBON/AIRSS/Generating-Clusters/LCBOP/Only-C1/SD-CG/FIRE-CG
REM
REM
REM
REM
REM
REM ./C.cell (11c1c37f851c82e70ff6c80c92926a4b)
REM AIRSS Version 0.9.1 bugfix July 2018 build 013d7b7c2542+ Fri, 06 Jul 2018 19:26:36 +0100
REM compiler GCC version 9.2.1 20190827 (Red Hat 9.2.1-1)
REM options -cpp -mtune=generic -march=x86-64 -g -O0 -fpre-include=/usr/include/finclude/math-vector-fortran.h
REM seed 1879698889 -314242292 -725848304 411492733 959384193 26786860 1508338604 -86895045 -1753645980 131766407 521392412 1582884111 863599376 -1226699051 -647611999 -1364524660 -1446209874 1244498232 765533594 522673765 442100379 1559635085 1335007595 -1550106752 -1394757485 -577964902 1002174219 1710670690 1334278558 1553125080 167607801 -434889894 1652040487
REM
CELL 1.54180   50.00000   50.00000   50.00000   90.00000   90.00000   90.00000
LATT -1
SFAC C  
C      1  0.5256070000000  0.5759750000000  0.4306410000000 1.0
C      1  0.4447270000000  0.5366560000000  0.5904480000000 1.0
C      1  0.5723110000000  0.5133220000000  0.4582960000000 1.0
C      1  0.6298110000000  0.5634910000000  0.5001100000000 1.0
C      1  0.5412610000000  0.4080210000000  0.4386160000000 1.0
C      1  0.5140780000000  0.3915690000000  0.5034550000000 1.0
C      1  0.5949740000000  0.4278630000000  0.4325130000000 1.0
C      1  0.4408630000000  0.5316040000000  0.5037240000000 1.0
C      1  0.4065630000000  0.4262080000000  0.4898000000000 1.0
C      1  0.5388840000000  0.4549930000000  0.5056010000000 1.0
C      1  0.5341350000000  0.5736840000000  0.5719740000000 1.0
C      1  0.5071240000000  0.5058260000000  0.5200910000000 1.0
C      1  0.5155310000000  0.4487900000000  0.4383240000000 1.0
C      1  0.5014150000000  0.5281530000000  0.6057320000000 1.0
C      1  0.3682410000000  0.4933900000000  0.4973040000000 1.0
C      1  0.4589310000000  0.5782740000000  0.5710950000000 1.0
C      1  0.5420400000000  0.4600420000000  0.4781920000000 1.0
C      1  0.6149180000000  0.4682120000000  0.5799260000000 1.0
C      1  0.4900740000000  0.4727380000000  0.5542030000000 1.0
C      1  0.5624830000000  0.5785250000000  0.4921680000000 1.0
C      1  0.3690790000000  0.5084250000000  0.4273420000000 1.0
C      1  0.3912860000000  0.5847030000000  0.4969360000000 1.0
C      1  0.4453680000000  0.5105160000000  0.5214790000000 1.0
C      1  0.6070030000000  0.4375540000000  0.4567410000000 1.0
C      1  0.4388230000000  0.5312970000000  0.6177960000000 1.0
C      1  0.4876490000000  0.4876370000000  0.5085620000000 1.0
C      1  0.3682550000000  0.4726600000000  0.5178200000000 1.0
C      1  0.5601550000000  0.5147400000000  0.4328430000000 1.0
C      1  0.5383850000000  0.4290530000000  0.5163780000000 1.0
C      1  0.5312580000000  0.4940320000000  0.4016570000000 1.0
C      1  0.4244720000000  0.4765980000000  0.5963530000000 1.0
C      1  0.5855120000000  0.4504660000000  0.4162450000000 1.0
C      1  0.4538880000000  0.3999410000000  0.5415490000000 1.0
C      1  0.3679340000000  0.4455510000000  0.5118090000000 1.0
C      1  0.4683690000000  0.4812740000000  0.5725040000000 1.0
C      1  0.6003530000000  0.5188100000000  0.4068180000000 1.0
C      1  0.5410770000000  0.5927990000000  0.5025810000000 1.0
C      1  0.6087670000000  0.5726650000000  0.4819340000000 1.0
C      1  0.4933750000000  0.5511170000000  0.5917390000000 1.0
C      1  0.4327940000000  0.5588310000000  0.5098800000000 1.0
C      1  0.5617870000000  0.3909550000000  0.5015490000000 1.0
C      1  0.4057860000000  0.5442230000000  0.4167670000000 1.0
C      1  0.4894890000000  0.4479400000000  0.4276000000000 1.0
C      1  0.5608300000000  0.5502620000000  0.4886860000000 1.0
C      1  0.4044600000000  0.5611210000000  0.5032310000000 1.0
C      1  0.5486620000000  0.5324630000000  0.5075590000000 1.0
C      1  0.4976410000000  0.4237500000000  0.5421000000000 1.0
C      1  0.3685780000000  0.3983850000000  0.5023230000000 1.0
C      1  0.3807080000000  0.4228710000000  0.5014280000000 1.0
C      1  0.4401450000000  0.4638920000000  0.4158070000000 1.0
C      1  0.3308310000000  0.4841690000000  0.4686850000000 1.0
C      1  0.6071170000000  0.4715420000000  0.4223990000000 1.0
C      1  0.4550620000000  0.5435300000000  0.4178710000000 1.0
C      1  0.5332340000000  0.5150460000000  0.3823020000000 1.0
C      1  0.4959730000000  0.6027470000000  0.5172940000000 1.0
C      1  0.4591680000000  0.4470530000000  0.5268630000000 1.0
C      1  0.6263570000000  0.4850140000000  0.4645080000000 1.0
C      1  0.5296670000000  0.5885310000000  0.5487570000000 1.0
C      1  0.4703650000000  0.5965350000000  0.5146980000000 1.0
C      1  0.5104750000000  0.5926430000000  0.6094150000000 1.0
C      1  0.4137490000000  0.4757740000000  0.4691300000000 1.0
C      1  0.4790670000000  0.4673610000000  0.5262120000000 1.0
C      1  0.4094220000000  0.5204320000000  0.5557810000000 1.0
C      1  0.5692450000000  0.4636170000000  0.4717130000000 1.0
C      1  0.4342590000000  0.4598040000000  0.5275370000000 1.0
C      1  0.3963410000000  0.5946480000000  0.4282010000000 1.0
C      1  0.5125980000000  0.5724690000000  0.5908400000000 1.0
C      1  0.5150010000000  0.4137880000000  0.5216080000000 1.0
C      1  0.3891240000000  0.5103690000000  0.5380290000000 1.0
C      1  0.3837810000000  0.4689920000000  0.5657960000000 1.0
C      1  0.3733490000000  0.4881390000000  0.4464390000000 1.0
C      1  0.5568670000000  0.4496690000000  0.4115420000000 1.0
C      1  0.5588370000000  0.4406820000000  0.5669470000000 1.0
C      1  0.5382120000000  0.4339210000000  0.4278360000000 1.0
C      1  0.5226060000000  0.4673960000000  0.4587950000000 1.0
C      1  0.5805600000000  0.4900550000000  0.4725510000000 1.0
C      1  0.3783290000000  0.4833740000000  0.5425540000000 1.0
C      1  0.5661010000000  0.5230020000000  0.5277030000000 1.0
C      1  0.6238980000000  0.5656120000000  0.5274610000000 1.0
C      1  0.4152800000000  0.4521480000000  0.4834250000000 1.0
C      1  0.6277650000000  0.5087530000000  0.4474680000000 1.0
C      1  0.4333490000000  0.4867170000000  0.5256830000000 1.0
C      1  0.3817400000000  0.5164360000000  0.5095710000000 1.0
C      1  0.4305380000000  0.5314790000000  0.4234590000000 1.0
C      1  0.4330210000000  0.5174300000000  0.5723040000000 1.0
C      1  0.5118980000000  0.4942050000000  0.5469690000000 1.0
C      1  0.4646980000000  0.4535020000000  0.4190660000000 1.0
C      1  0.4260410000000  0.4851880000000  0.6231800000000 1.0
C      1  0.6210580000000  0.4617080000000  0.4479440000000 1.0
C      1  0.4015580000000  0.4649240000000  0.5853110000000 1.0
C      1  0.3889490000000  0.6061100000000  0.4510980000000 1.0
C      1  0.6003950000000  0.4651060000000  0.5570560000000 1.0
C      1  0.6275390000000  0.5335810000000  0.4613330000000 1.0
C      1  0.5562750000000  0.5308930000000  0.3873400000000 1.0
C      1  0.4692780000000  0.4224970000000  0.5366970000000 1.0
C      1  0.5378310000000  0.3911380000000  0.4592280000000 1.0
C      1  0.6070640000000  0.4881340000000  0.4855500000000 1.0
C      1  0.3579350000000  0.4886570000000  0.4709520000000 1.0
C      1  0.5029270000000  0.5651190000000  0.4237560000000 1.0
C      1  0.5366700000000  0.4794450000000  0.5489770000000 1.0
C      1  0.5914850000000  0.6178090000000  0.4871390000000 1.0
C      1  0.4388070000000  0.5079550000000  0.6340810000000 1.0
C      1  0.6147670000000  0.5002170000000  0.4220430000000 1.0
C      1  0.5154220000000  0.5193590000000  0.3622570000000 1.0
C      1  0.4297030000000  0.5067680000000  0.4369740000000 1.0
C      1  0.3983550000000  0.4742780000000  0.4440740000000 1.0
C      1  0.5732260000000  0.5252500000000  0.4093390000000 1.0
C      1  0.6033730000000  0.5500610000000  0.4644280000000 1.0
C      1  0.5344940000000  0.5029480000000  0.4288810000000 1.0
C      1  0.4600330000000  0.5044970000000  0.6521510000000 1.0
C      1  0.5343270000000  0.4543670000000  0.5639500000000 1.0
C      1  0.5983420000000  0.4455660000000  0.5053760000000 1.0
C      1  0.5209750000000  0.4953820000000  0.4527250000000 1.0
C      1  0.5600410000000  0.5623730000000  0.5767630000000 1.0
C      1  0.5852680000000  0.4304820000000  0.5259840000000 1.0
C      1  0.5634390000000  0.4147050000000  0.5169560000000 1.0
C      1  0.3862760000000  0.6020380000000  0.4773150000000 1.0
C      1  0.6010810000000  0.4840270000000  0.5355280000000 1.0
C      1  0.4200390000000  0.4814820000000  0.4248120000000 1.0
C      1  0.5633190000000  0.5445900000000  0.5974210000000 1.0
C      1  0.4260710000000  0.5021550000000  0.4657060000000 1.0
C      1  0.5891960000000  0.4429500000000  0.4781790000000 1.0
C      1  0.5833870000000  0.4423940000000  0.5523750000000 1.0
C      1  0.5878290000000  0.5907910000000  0.4871330000000 1.0
C      1  0.5373360000000  0.3861370000000  0.4870010000000 1.0
C      1  0.5780780000000  0.5384620000000  0.4692600000000 1.0
C      1  0.4388840000000  0.3792860000000  0.5467820000000 1.0
C      1  0.5475530000000  0.4749490000000  0.5234490000000 1.0
C      1  0.4217150000000  0.5230180000000  0.4834160000000 1.0
C      1  0.5179100000000  0.5137170000000  0.4740620000000 1.0
C      1  0.5223910000000  0.5960780000000  0.5229410000000 1.0
C      1  0.6070410000000  0.4730040000000  0.5099400000000 1.0
C      1  0.5064360000000  0.4462420000000  0.5593120000000 1.0
C      1  0.4224480000000  0.4046190000000  0.4843080000000 1.0
C      1  0.5866030000000  0.5081810000000  0.5365320000000 1.0
C      1  0.5020560000000  0.5137170000000  0.6281190000000 1.0
C      1  0.4494170000000  0.5803730000000  0.5145190000000 1.0
C      1  0.4865800000000  0.5054870000000  0.6483250000000 1.0
C      1  0.5236920000000  0.5196130000000  0.5014380000000 1.0
C      1  0.4422750000000  0.4904200000000  0.5784640000000 1.0
C      1  0.4792750000000  0.5542590000000  0.4187160000000 1.0
C      1  0.5826000000000  0.5686690000000  0.5607880000000 1.0
C      1  0.4658600000000  0.5548870000000  0.5837290000000 1.0
C      1  0.3968220000000  0.5344940000000  0.4940420000000 1.0
C      1  0.3823940000000  0.5286240000000  0.4160120000000 1.0
C      1  0.5437010000000  0.4692800000000  0.3959870000000 1.0
C      1  0.6434360000000  0.5428370000000  0.4843660000000 1.0
C      1  0.4034940000000  0.5720960000000  0.4159980000000 1.0
C      1  0.6054830000000  0.5681540000000  0.5468390000000 1.0
END
