TITL C-627107-135-1294 0.000137289796780772 125000 -863.192354760042 0 0 140 (C1) n - 1
REM
REM in /home/nfs/bkarasulu/CARBON/AIRSS/Generating-Clusters/LCBOP/Only-C1/SD-CG/FIRE-CG
REM
REM
REM
REM
REM
REM ./C.cell (11c1c37f851c82e70ff6c80c92926a4b)
REM AIRSS Version 0.9.1 bugfix July 2018 build 013d7b7c2542+ Fri, 06 Jul 2018 19:26:36 +0100
REM compiler GCC version 9.2.1 20190827 (Red Hat 9.2.1-1)
REM options -cpp -mtune=generic -march=x86-64 -g -O0 -fpre-include=/usr/include/finclude/math-vector-fortran.h
REM seed -304668183 -1610274338 -368029542 270177764 1639951777 -187676886 -1948562279 -882700127 1974417608 -590481161 -1774420465 -1741447713 1206644919 809510912 -118581606 -1440876159 -1222624907 -517975377 1833491543 1143498038 -1021606654 693873432 -237146799 1762598644 1214948366 -1441110248 -272847184 -2079487431 -1894929277 278153793 1603061885 182834237 -61377918
REM
CELL 1.54180   50.00000   50.00000   50.00000   90.00000   90.00000   90.00000
LATT -1
SFAC C  
C      1  0.5626120000000  0.6111830000000  0.5562930000000 1.0
C      1  0.4553770000000  0.5155470000000  0.3896470000000 1.0
C      1  0.4662150000000  0.4474020000000  0.4176800000000 1.0
C      1  0.5589010000000  0.5864010000000  0.6021300000000 1.0
C      1  0.6028180000000  0.5076870000000  0.5644590000000 1.0
C      1  0.3999960000000  0.4837470000000  0.4267570000000 1.0
C      1  0.5161280000000  0.5181300000000  0.4188230000000 1.0
C      1  0.4977480000000  0.5054480000000  0.5197740000000 1.0
C      1  0.4187200000000  0.5863950000000  0.4708060000000 1.0
C      1  0.4927430000000  0.4512010000000  0.4063990000000 1.0
C      1  0.3789960000000  0.4869920000000  0.4432060000000 1.0
C      1  0.5695760000000  0.5209600000000  0.4908110000000 1.0
C      1  0.5001870000000  0.4760980000000  0.3951070000000 1.0
C      1  0.4340310000000  0.4687130000000  0.5161630000000 1.0
C      1  0.5760750000000  0.4999360000000  0.5113620000000 1.0
C      1  0.4754220000000  0.4434210000000  0.5216330000000 1.0
C      1  0.4972420000000  0.6091930000000  0.5208380000000 1.0
C      1  0.4952380000000  0.5945860000000  0.4386190000000 1.0
C      1  0.5554280000000  0.4915350000000  0.4494710000000 1.0
C      1  0.5595410000000  0.5451460000000  0.4206780000000 1.0
C      1  0.5985090000000  0.5341020000000  0.5615040000000 1.0
C      1  0.4294180000000  0.4504660000000  0.4697600000000 1.0
C      1  0.5657620000000  0.4392640000000  0.5722440000000 1.0
C      1  0.5658690000000  0.4908670000000  0.5383520000000 1.0
C      1  0.4002180000000  0.5535370000000  0.5470720000000 1.0
C      1  0.5349930000000  0.3741000000000  0.5031580000000 1.0
C      1  0.4458330000000  0.4231220000000  0.5749960000000 1.0
C      1  0.4655880000000  0.5409850000000  0.4790460000000 1.0
C      1  0.4676500000000  0.3988830000000  0.4770340000000 1.0
C      1  0.5537690000000  0.5629190000000  0.6136520000000 1.0
C      1  0.4702180000000  0.5062250000000  0.5140130000000 1.0
C      1  0.5783930000000  0.5503470000000  0.5542890000000 1.0
C      1  0.5457760000000  0.4551150000000  0.4905190000000 1.0
C      1  0.4106790000000  0.5305470000000  0.5342930000000 1.0
C      1  0.4496870000000  0.6060970000000  0.5362820000000 1.0
C      1  0.4083490000000  0.5757570000000  0.5894410000000 1.0
C      1  0.5389810000000  0.4177780000000  0.4526330000000 1.0
C      1  0.4916370000000  0.4769600000000  0.5626460000000 1.0
C      1  0.5198790000000  0.4213580000000  0.5844980000000 1.0
C      1  0.3852010000000  0.4803880000000  0.5182390000000 1.0
C      1  0.5448380000000  0.6010380000000  0.5072320000000 1.0
C      1  0.4926890000000  0.4575520000000  0.5044380000000 1.0
C      1  0.6034060000000  0.4373520000000  0.5190340000000 1.0
C      1  0.4470680000000  0.5049860000000  0.5527280000000 1.0
C      1  0.4236800000000  0.4371490000000  0.5689960000000 1.0
C      1  0.6607870000000  0.4567140000000  0.4787820000000 1.0
C      1  0.5774880000000  0.3943970000000  0.5162070000000 1.0
C      1  0.6837190000000  0.4554910000000  0.4664420000000 1.0
C      1  0.5330560000000  0.4789750000000  0.4989670000000 1.0
C      1  0.5405940000000  0.4878040000000  0.5537160000000 1.0
C      1  0.5121000000000  0.5636740000000  0.4078530000000 1.0
C      1  0.4245040000000  0.4470390000000  0.4973840000000 1.0
C      1  0.5227230000000  0.5268290000000  0.4708570000000 1.0
C      1  0.3934750000000  0.5961420000000  0.4691020000000 1.0
C      1  0.5094990000000  0.5283060000000  0.5336990000000 1.0
C      1  0.4593890000000  0.4259840000000  0.4370800000000 1.0
C      1  0.4269500000000  0.5963430000000  0.5492990000000 1.0
C      1  0.4419210000000  0.5578850000000  0.4402970000000 1.0
C      1  0.5307660000000  0.5030820000000  0.4846380000000 1.0
C      1  0.5174360000000  0.4092430000000  0.5575040000000 1.0
C      1  0.4270390000000  0.4774680000000  0.4312270000000 1.0
C      1  0.4990830000000  0.3935970000000  0.4425790000000 1.0
C      1  0.4671240000000  0.5145690000000  0.4654450000000 1.0
C      1  0.4599450000000  0.5398290000000  0.3996980000000 1.0
C      1  0.5237190000000  0.3939520000000  0.4565140000000 1.0
C      1  0.5580480000000  0.6101520000000  0.5300710000000 1.0
C      1  0.5405980000000  0.5162520000000  0.5971710000000 1.0
C      1  0.4730050000000  0.4160710000000  0.5747090000000 1.0
C      1  0.4561100000000  0.4595830000000  0.5350240000000 1.0
C      1  0.4086980000000  0.5787750000000  0.5358590000000 1.0
C      1  0.5518690000000  0.5501940000000  0.5499010000000 1.0
C      1  0.4339490000000  0.4761760000000  0.4585460000000 1.0
C      1  0.5854890000000  0.5609840000000  0.4578230000000 1.0
C      1  0.5421330000000  0.6047950000000  0.4597620000000 1.0
C      1  0.5290260000000  0.5494850000000  0.4862130000000 1.0
C      1  0.5177000000000  0.6055870000000  0.4486110000000 1.0
C      1  0.6128700000000  0.4593490000000  0.5043950000000 1.0
C      1  0.3964660000000  0.5555900000000  0.5752910000000 1.0
C      1  0.4330860000000  0.5367600000000  0.5160300000000 1.0
C      1  0.4719840000000  0.3995610000000  0.5034450000000 1.0
C      1  0.4633580000000  0.5581880000000  0.4210200000000 1.0
C      1  0.4476820000000  0.4952130000000  0.4734400000000 1.0
C      1  0.5749240000000  0.5383130000000  0.4435570000000 1.0
C      1  0.5313350000000  0.4779960000000  0.4476140000000 1.0
C      1  0.4471910000000  0.4695910000000  0.4125170000000 1.0
C      1  0.5111590000000  0.5000940000000  0.3995810000000 1.0
C      1  0.6374810000000  0.4579590000000  0.4913200000000 1.0
C      1  0.5648920000000  0.4230370000000  0.5490470000000 1.0
C      1  0.5573450000000  0.5484420000000  0.4930970000000 1.0
C      1  0.4116150000000  0.4247700000000  0.5068120000000 1.0
C      1  0.5569960000000  0.5952420000000  0.4819680000000 1.0
C      1  0.4748670000000  0.4054000000000  0.4501500000000 1.0
C      1  0.5621610000000  0.6031920000000  0.5817010000000 1.0
C      1  0.4800710000000  0.5665330000000  0.4852060000000 1.0
C      1  0.5974400000000  0.4827290000000  0.5029340000000 1.0
C      1  0.4643610000000  0.5909450000000  0.4919910000000 1.0
C      1  0.4699510000000  0.6038860000000  0.5170790000000 1.0
C      1  0.4093550000000  0.4559200000000  0.5559950000000 1.0
C      1  0.4099030000000  0.4779730000000  0.5347090000000 1.0
C      1  0.5104530000000  0.4776190000000  0.5181290000000 1.0
C      1  0.4373430000000  0.5448570000000  0.4882690000000 1.0
C      1  0.4179350000000  0.5046120000000  0.5471940000000 1.0
C      1  0.4930500000000  0.4225600000000  0.5946710000000 1.0
C      1  0.5415170000000  0.4056240000000  0.5432240000000 1.0
C      1  0.4888010000000  0.5725610000000  0.4220370000000 1.0
C      1  0.5306450000000  0.5317820000000  0.5523900000000 1.0
C      1  0.5146090000000  0.4342970000000  0.4111890000000 1.0
C      1  0.5499650000000  0.3876420000000  0.5221010000000 1.0
C      1  0.4889470000000  0.4086020000000  0.5507870000000 1.0
C      1  0.4349560000000  0.4300270000000  0.4513360000000 1.0
C      1  0.5870460000000  0.4853130000000  0.5579830000000 1.0
C      1  0.4896450000000  0.5029990000000  0.4534060000000 1.0
C      1  0.5174680000000  0.5934890000000  0.5088120000000 1.0
C      1  0.3727910000000  0.4841310000000  0.4949050000000 1.0
C      1  0.4933890000000  0.4591220000000  0.4760230000000 1.0
C      1  0.5441710000000  0.4344730000000  0.5900640000000 1.0
C      1  0.4638390000000  0.4799730000000  0.5547580000000 1.0
C      1  0.5285410000000  0.3762440000000  0.4774260000000 1.0
C      1  0.5472950000000  0.5370500000000  0.6125980000000 1.0
C      1  0.5163470000000  0.4741440000000  0.5471800000000 1.0
C      1  0.5701070000000  0.5143580000000  0.4603920000000 1.0
C      1  0.4265270000000  0.5596700000000  0.4650530000000 1.0
C      1  0.5355880000000  0.4283840000000  0.4267380000000 1.0
C      1  0.5383260000000  0.5572310000000  0.4092120000000 1.0
C      1  0.5857070000000  0.4186810000000  0.5292900000000 1.0
C      1  0.4232650000000  0.5953770000000  0.5775960000000 1.0
C      1  0.5832970000000  0.4613550000000  0.5724410000000 1.0
C      1  0.4998800000000  0.5529180000000  0.5249030000000 1.0
C      1  0.4501020000000  0.4899000000000  0.5008130000000 1.0
C      1  0.4554730000000  0.5237110000000  0.5308370000000 1.0
C      1  0.5476820000000  0.4339060000000  0.4741050000000 1.0
C      1  0.4518280000000  0.4892030000000  0.3926940000000 1.0
C      1  0.5029290000000  0.4771490000000  0.4562040000000 1.0
C      1  0.5077340000000  0.5661410000000  0.4992740000000 1.0
C      1  0.5713580000000  0.5704350000000  0.4805020000000 1.0
C      1  0.5359050000000  0.5104450000000  0.5703940000000 1.0
C      1  0.5096550000000  0.5220940000000  0.4458610000000 1.0
C      1  0.4415390000000  0.6008490000000  0.4786510000000 1.0
C      1  0.4785750000000  0.4156010000000  0.5254530000000 1.0
C      1  0.3702470000000  0.4867890000000  0.4684690000000 1.0
END
