TITL C-627108-131-1208 0.00052957384321743 125000 -681.486102279882 0 0 113 (C1) n - 1
REM
REM in /home/nfs/bkarasulu/CARBON/AIRSS/Generating-Clusters/LCBOP/Only-C1/SD-CG/FIRE-CG
REM
REM
REM
REM
REM
REM ./C.cell (11c1c37f851c82e70ff6c80c92926a4b)
REM AIRSS Version 0.9.1 bugfix July 2018 build 013d7b7c2542+ Fri, 06 Jul 2018 19:26:36 +0100
REM compiler GCC version 9.2.1 20190827 (Red Hat 9.2.1-1)
REM options -cpp -mtune=generic -march=x86-64 -g -O0 -fpre-include=/usr/include/finclude/math-vector-fortran.h
REM seed 1544795185 -580378517 -242000035 -1653387439 -1883484256 229098356 1039028237 -2113483424 118922237 -1723341219 -1700458009 -926851292 -1616025981 100346028 274401204 979360253 -751272516 -61540527 -1768150728 -1859159092 690729339 -1234342733 -718553420 1442009413 -1882578312 759999229 519576612 2004227630 -1219764428 -1534399072 1072473416 1755944904 -1672276221
REM
CELL 1.54180   50.00000   50.00000   50.00000   90.00000   90.00000   90.00000
LATT -1
SFAC C  
C      1  0.4907750000000  0.5004730000000  0.5312860000000 1.0
C      1  0.5859850000000  0.5123990000000  0.5365410000000 1.0
C      1  0.6104560000000  0.4444310000000  0.4882320000000 1.0
C      1  0.5124180000000  0.4816760000000  0.5339330000000 1.0
C      1  0.4595720000000  0.5598530000000  0.4582840000000 1.0
C      1  0.4380810000000  0.4720090000000  0.4561330000000 1.0
C      1  0.4861350000000  0.5518010000000  0.4118340000000 1.0
C      1  0.4508670000000  0.5278090000000  0.5665450000000 1.0
C      1  0.4179170000000  0.4632930000000  0.5145400000000 1.0
C      1  0.5824350000000  0.4859230000000  0.5420260000000 1.0
C      1  0.5492610000000  0.5693730000000  0.4686490000000 1.0
C      1  0.5000240000000  0.6233930000000  0.5467130000000 1.0
C      1  0.4500480000000  0.4916140000000  0.6082760000000 1.0
C      1  0.4655300000000  0.5394010000000  0.4786070000000 1.0
C      1  0.5220650000000  0.4454670000000  0.4122990000000 1.0
C      1  0.4603030000000  0.5308500000000  0.5056090000000 1.0
C      1  0.4627220000000  0.4315320000000  0.5628330000000 1.0
C      1  0.5639530000000  0.4961980000000  0.4972570000000 1.0
C      1  0.5075080000000  0.5110890000000  0.4246980000000 1.0
C      1  0.5674750000000  0.5260030000000  0.4458840000000 1.0
C      1  0.4170040000000  0.5021290000000  0.5430760000000 1.0
C      1  0.4700950000000  0.5638870000000  0.4321610000000 1.0
C      1  0.5618790000000  0.4811560000000  0.4175210000000 1.0
C      1  0.4357480000000  0.4171460000000  0.4981650000000 1.0
C      1  0.4277630000000  0.4934080000000  0.5910720000000 1.0
C      1  0.4911990000000  0.5384470000000  0.5914940000000 1.0
C      1  0.5233860000000  0.5256510000000  0.4443030000000 1.0
C      1  0.4156610000000  0.5347410000000  0.4760050000000 1.0
C      1  0.4975850000000  0.4417470000000  0.4276400000000 1.0
C      1  0.5144400000000  0.4696660000000  0.5980700000000 1.0
C      1  0.4556560000000  0.4392400000000  0.5363420000000 1.0
C      1  0.5129940000000  0.5201330000000  0.5962270000000 1.0
C      1  0.5587200000000  0.5762240000000  0.4955470000000 1.0
C      1  0.4870790000000  0.5263190000000  0.4680120000000 1.0
C      1  0.5881910000000  0.4570180000000  0.4831600000000 1.0
C      1  0.5109380000000  0.5598150000000  0.4000260000000 1.0
C      1  0.4969200000000  0.4193310000000  0.5211100000000 1.0
C      1  0.4703810000000  0.5969510000000  0.5160660000000 1.0
C      1  0.4707870000000  0.4422520000000  0.4688200000000 1.0
C      1  0.4757950000000  0.4932320000000  0.6151980000000 1.0
C      1  0.5327380000000  0.4067800000000  0.4641330000000 1.0
C      1  0.4321680000000  0.4380420000000  0.5193640000000 1.0
C      1  0.5077320000000  0.5437320000000  0.4591990000000 1.0
C      1  0.5348510000000  0.5477200000000  0.3949810000000 1.0
C      1  0.5092900000000  0.4196440000000  0.5476020000000 1.0
C      1  0.5724000000000  0.4593650000000  0.5444960000000 1.0
C      1  0.5357960000000  0.4749610000000  0.5807620000000 1.0
C      1  0.4040380000000  0.4814740000000  0.5975420000000 1.0
C      1  0.4993600000000  0.4867030000000  0.4403830000000 1.0
C      1  0.4904320000000  0.4038910000000  0.4964810000000 1.0
C      1  0.5187080000000  0.5694830000000  0.4661580000000 1.0
C      1  0.4266780000000  0.4256400000000  0.4722930000000 1.0
C      1  0.5238370000000  0.4540100000000  0.4935110000000 1.0
C      1  0.4954800000000  0.6085780000000  0.5238150000000 1.0
C      1  0.5150710000000  0.6021730000000  0.5037170000000 1.0
C      1  0.5532920000000  0.5282900000000  0.3996510000000 1.0
C      1  0.4211900000000  0.5264250000000  0.4485500000000 1.0
C      1  0.4781160000000  0.5338830000000  0.5668030000000 1.0
C      1  0.5452670000000  0.5172890000000  0.4929260000000 1.0
C      1  0.5012790000000  0.5894120000000  0.4802220000000 1.0
C      1  0.5253620000000  0.5289290000000  0.5461970000000 1.0
C      1  0.4466610000000  0.5793960000000  0.4748380000000 1.0
C      1  0.4604500000000  0.4005140000000  0.4968410000000 1.0
C      1  0.5258770000000  0.4613650000000  0.5197550000000 1.0
C      1  0.5547570000000  0.4168640000000  0.4519720000000 1.0
C      1  0.5235310000000  0.4751420000000  0.4527140000000 1.0
C      1  0.4809660000000  0.5002720000000  0.4592960000000 1.0
C      1  0.4743050000000  0.4554070000000  0.4949020000000 1.0
C      1  0.4528120000000  0.5509610000000  0.5238850000000 1.0
C      1  0.4360360000000  0.5188540000000  0.4269990000000 1.0
C      1  0.5143120000000  0.5513860000000  0.5084000000000 1.0
C      1  0.5329270000000  0.5261340000000  0.5746570000000 1.0
C      1  0.4306980000000  0.5082940000000  0.5668490000000 1.0
C      1  0.5391410000000  0.4646250000000  0.4730280000000 1.0
C      1  0.4568350000000  0.4891000000000  0.4687520000000 1.0
C      1  0.5051610000000  0.4098990000000  0.4707090000000 1.0
C      1  0.5005960000000  0.4456970000000  0.5910710000000 1.0
C      1  0.5426490000000  0.5966890000000  0.5072450000000 1.0
C      1  0.5046760000000  0.6367170000000  0.5691340000000 1.0
C      1  0.5390270000000  0.4663970000000  0.4062490000000 1.0
C      1  0.5650680000000  0.4724580000000  0.4822620000000 1.0
C      1  0.5605760000000  0.4187210000000  0.5656320000000 1.0
C      1  0.4141150000000  0.4923040000000  0.5164630000000 1.0
C      1  0.4782710000000  0.4415320000000  0.5189490000000 1.0
C      1  0.4439130000000  0.4251730000000  0.5816160000000 1.0
C      1  0.4112410000000  0.5129680000000  0.4955860000000 1.0
C      1  0.5840450000000  0.5372480000000  0.5254360000000 1.0
C      1  0.5092750000000  0.6497350000000  0.5912480000000 1.0
C      1  0.4705370000000  0.5924340000000  0.4869010000000 1.0
C      1  0.4912550000000  0.4301640000000  0.5688710000000 1.0
C      1  0.4697100000000  0.5036850000000  0.5126800000000 1.0
C      1  0.4219240000000  0.5638610000000  0.4819750000000 1.0
C      1  0.4958850000000  0.5238290000000  0.5467760000000 1.0
C      1  0.5707290000000  0.4352740000000  0.4401160000000 1.0
C      1  0.5464500000000  0.4485920000000  0.5343910000000 1.0
C      1  0.4836960000000  0.4670570000000  0.4237440000000 1.0
C      1  0.5803090000000  0.4381980000000  0.5629550000000 1.0
C      1  0.5292330000000  0.4849370000000  0.5568350000000 1.0
C      1  0.5028470000000  0.4943870000000  0.6070090000000 1.0
C      1  0.5374790000000  0.4244210000000  0.5492590000000 1.0
C      1  0.4639840000000  0.4819310000000  0.4956250000000 1.0
C      1  0.4841390000000  0.5233480000000  0.4121750000000 1.0
C      1  0.5755920000000  0.5588080000000  0.5110370000000 1.0
C      1  0.5649420000000  0.5111520000000  0.4199200000000 1.0
C      1  0.5447630000000  0.5189730000000  0.4627130000000 1.0
C      1  0.4589450000000  0.5086860000000  0.4128260000000 1.0
C      1  0.5319140000000  0.5309820000000  0.5163640000000 1.0
C      1  0.4566090000000  0.5768840000000  0.5301800000000 1.0
C      1  0.4433390000000  0.4443490000000  0.4593380000000 1.0
C      1  0.4628720000000  0.4802820000000  0.4097360000000 1.0
C      1  0.5679440000000  0.5550850000000  0.4508200000000 1.0
C      1  0.4912370000000  0.4291930000000  0.4536860000000 1.0
C      1  0.5769150000000  0.4601380000000  0.4306000000000 1.0
END
