TITL C-627108-131-421 -4.27062997275804e-07 125000 -1087.18233675167 0 0 176 (C1) n - 1
REM
REM in /home/nfs/bkarasulu/CARBON/AIRSS/Generating-Clusters/LCBOP/Only-C1/SD-CG/FIRE-CG
REM
REM
REM
REM
REM
REM ./C.cell (11c1c37f851c82e70ff6c80c92926a4b)
REM AIRSS Version 0.9.1 bugfix July 2018 build 013d7b7c2542+ Fri, 06 Jul 2018 19:26:36 +0100
REM compiler GCC version 9.2.1 20190827 (Red Hat 9.2.1-1)
REM options -cpp -mtune=generic -march=x86-64 -g -O0 -fpre-include=/usr/include/finclude/math-vector-fortran.h
REM seed -1701488533 927858857 -351989323 -1184659956 1297746839 1121065986 1512957381 -2054467221 -1523455101 489817965 678607958 174892458 1004549683 -40304387 -633404994 -617362078 605876817 -1798547732 -1215417377 -608950583 -1633509621 -756492524 -1506455752 -78647461 -478612653 -1047873113 -736377108 1568145869 -1997467374 -799064001 -1536292447 -980256617 2088840866
REM
CELL 1.54180   50.00000   50.00000   50.00000   90.00000   90.00000   90.00000
LATT -1
SFAC C  
C      1  0.5324000000000  0.4230250000000  0.4988380000000 1.0
C      1  0.4995490000000  0.5964600000000  0.4262790000000 1.0
C      1  0.4008460000000  0.5327200000000  0.5499850000000 1.0
C      1  0.4222980000000  0.4571220000000  0.5108350000000 1.0
C      1  0.5565210000000  0.5567530000000  0.4142970000000 1.0
C      1  0.5191550000000  0.5980940000000  0.5370920000000 1.0
C      1  0.5070510000000  0.5620680000000  0.5915690000000 1.0
C      1  0.5333740000000  0.5478840000000  0.5949180000000 1.0
C      1  0.5265470000000  0.5213110000000  0.6057650000000 1.0
C      1  0.5893630000000  0.5187610000000  0.5589590000000 1.0
C      1  0.4828270000000  0.5575240000000  0.5785930000000 1.0
C      1  0.5379430000000  0.3767250000000  0.5877280000000 1.0
C      1  0.4278730000000  0.5064340000000  0.4135100000000 1.0
C      1  0.5709040000000  0.4966330000000  0.5609000000000 1.0
C      1  0.4757260000000  0.5004320000000  0.5340150000000 1.0
C      1  0.5018360000000  0.6328050000000  0.4755020000000 1.0
C      1  0.4878630000000  0.5724020000000  0.4132650000000 1.0
C      1  0.4569310000000  0.6136210000000  0.4813190000000 1.0
C      1  0.5044360000000  0.4482650000000  0.4550880000000 1.0
C      1  0.4440280000000  0.5926970000000  0.4659850000000 1.0
C      1  0.6268770000000  0.4706420000000  0.5277980000000 1.0
C      1  0.6120700000000  0.5015760000000  0.4925460000000 1.0
C      1  0.5196380000000  0.5076450000000  0.5522810000000 1.0
C      1  0.4741400000000  0.5479710000000  0.5523780000000 1.0
C      1  0.4951680000000  0.3608130000000  0.4848830000000 1.0
C      1  0.5154780000000  0.4250070000000  0.5963200000000 1.0
C      1  0.4269190000000  0.5799470000000  0.5390000000000 1.0
C      1  0.5390050000000  0.4954500000000  0.6039330000000 1.0
C      1  0.4394610000000  0.5663170000000  0.4753560000000 1.0
C      1  0.4789240000000  0.4440160000000  0.4404700000000 1.0
C      1  0.5619760000000  0.3780460000000  0.4711840000000 1.0
C      1  0.4671990000000  0.4112030000000  0.5842190000000 1.0
C      1  0.4899370000000  0.5609240000000  0.5324030000000 1.0
C      1  0.5469300000000  0.4880790000000  0.3979200000000 1.0
C      1  0.4693860000000  0.5044730000000  0.4598380000000 1.0
C      1  0.5811900000000  0.6038670000000  0.5168360000000 1.0
C      1  0.5154710000000  0.4823740000000  0.5413120000000 1.0
C      1  0.4505430000000  0.5218840000000  0.4200780000000 1.0
C      1  0.4777950000000  0.6251090000000  0.4634550000000 1.0
C      1  0.5311050000000  0.5225670000000  0.4376360000000 1.0
C      1  0.4867780000000  0.4277780000000  0.5965510000000 1.0
C      1  0.3667970000000  0.5220430000000  0.4860350000000 1.0
C      1  0.4779300000000  0.6113180000000  0.4384960000000 1.0
C      1  0.3644100000000  0.5299580000000  0.5115790000000 1.0
C      1  0.5022680000000  0.4506300000000  0.3920990000000 1.0
C      1  0.5209320000000  0.4724120000000  0.6108020000000 1.0
C      1  0.4512190000000  0.4927200000000  0.5951640000000 1.0
C      1  0.4596000000000  0.6135950000000  0.5099490000000 1.0
C      1  0.3767600000000  0.5317690000000  0.5351950000000 1.0
C      1  0.4848610000000  0.5594580000000  0.5047800000000 1.0
C      1  0.5268770000000  0.6017810000000  0.5090540000000 1.0
C      1  0.4229620000000  0.4213900000000  0.4497270000000 1.0
C      1  0.5143190000000  0.4300660000000  0.4756950000000 1.0
C      1  0.5619460000000  0.4790310000000  0.4193870000000 1.0
C      1  0.4542360000000  0.5938840000000  0.4386640000000 1.0
C      1  0.4426080000000  0.4201410000000  0.5763410000000 1.0
C      1  0.4701380000000  0.5317520000000  0.4714940000000 1.0
C      1  0.4390000000000  0.4549560000000  0.4159640000000 1.0
C      1  0.4980380000000  0.5165090000000  0.5985540000000 1.0
C      1  0.4875690000000  0.4770180000000  0.5456540000000 1.0
C      1  0.4826840000000  0.4867000000000  0.4799200000000 1.0
C      1  0.5901080000000  0.4845950000000  0.4224640000000 1.0
C      1  0.5498040000000  0.4392280000000  0.5143650000000 1.0
C      1  0.5118670000000  0.4884670000000  0.4718140000000 1.0
C      1  0.5078150000000  0.6214120000000  0.5001260000000 1.0
C      1  0.4472890000000  0.4197640000000  0.4974250000000 1.0
C      1  0.4812590000000  0.4501990000000  0.5453850000000 1.0
C      1  0.5021710000000  0.4048170000000  0.4687010000000 1.0
C      1  0.4849760000000  0.6333060000000  0.5938780000000 1.0
C      1  0.4333620000000  0.4470120000000  0.5785140000000 1.0
C      1  0.5074300000000  0.5526650000000  0.4872910000000 1.0
C      1  0.5044700000000  0.5287340000000  0.4402220000000 1.0
C      1  0.5773220000000  0.4401140000000  0.5737900000000 1.0
C      1  0.4661260000000  0.4604260000000  0.4206860000000 1.0
C      1  0.5960450000000  0.5534880000000  0.5124770000000 1.0
C      1  0.5327640000000  0.5552750000000  0.4004250000000 1.0
C      1  0.5219930000000  0.4965100000000  0.3955370000000 1.0
C      1  0.4598590000000  0.5700380000000  0.4234490000000 1.0
C      1  0.4852510000000  0.6223580000000  0.5195080000000 1.0
C      1  0.5269130000000  0.3997690000000  0.5928720000000 1.0
C      1  0.5867040000000  0.4442150000000  0.5474030000000 1.0
C      1  0.6131890000000  0.4504510000000  0.5395470000000 1.0
C      1  0.4837730000000  0.4710380000000  0.4010650000000 1.0
C      1  0.3791900000000  0.4655220000000  0.4467370000000 1.0
C      1  0.6220220000000  0.4978090000000  0.5199340000000 1.0
C      1  0.3883590000000  0.5066970000000  0.4715950000000 1.0
C      1  0.4609490000000  0.5240780000000  0.5422220000000 1.0
C      1  0.5844160000000  0.4706090000000  0.4692100000000 1.0
C      1  0.5476190000000  0.4670280000000  0.4412830000000 1.0
C      1  0.5906890000000  0.5631130000000  0.5398950000000 1.0
C      1  0.4393260000000  0.5232090000000  0.5233230000000 1.0
C      1  0.5873140000000  0.5573530000000  0.4595730000000 1.0
C      1  0.5037370000000  0.5537450000000  0.3981110000000 1.0
C      1  0.4030600000000  0.5006190000000  0.4221800000000 1.0
C      1  0.5678360000000  0.5007990000000  0.5100890000000 1.0
C      1  0.4757170000000  0.4525700000000  0.6051000000000 1.0
C      1  0.4276440000000  0.5483170000000  0.4555690000000 1.0
C      1  0.4416770000000  0.4755800000000  0.5008580000000 1.0
C      1  0.5003660000000  0.5152720000000  0.5706360000000 1.0
C      1  0.5998080000000  0.4866960000000  0.4492240000000 1.0
C      1  0.5502470000000  0.5904080000000  0.4442440000000 1.0
C      1  0.4972430000000  0.4027200000000  0.4406940000000 1.0
C      1  0.4655570000000  0.4639080000000  0.4896120000000 1.0
C      1  0.4980030000000  0.6163580000000  0.5447410000000 1.0
C      1  0.5349250000000  0.5518250000000  0.4945790000000 1.0
C      1  0.4284600000000  0.5086080000000  0.5856510000000 1.0
C      1  0.5213180000000  0.4707160000000  0.4517640000000 1.0
C      1  0.4046400000000  0.4815270000000  0.5473900000000 1.0
C      1  0.4081190000000  0.4327710000000  0.4725760000000 1.0
C      1  0.3890100000000  0.4548970000000  0.4715480000000 1.0
C      1  0.5706160000000  0.5877400000000  0.4956450000000 1.0
C      1  0.3997360000000  0.4740060000000  0.5183810000000 1.0
C      1  0.4924810000000  0.4737590000000  0.6142040000000 1.0
C      1  0.4916910000000  0.6258310000000  0.5698340000000 1.0
C      1  0.5889200000000  0.5915970000000  0.5400500000000 1.0
C      1  0.6129770000000  0.5094070000000  0.4635710000000 1.0
C      1  0.5150360000000  0.5711430000000  0.5423200000000 1.0
C      1  0.5754100000000  0.4040240000000  0.4728230000000 1.0
C      1  0.5261610000000  0.5987740000000  0.4352980000000 1.0
C      1  0.4832740000000  0.5026400000000  0.5065550000000 1.0
C      1  0.5643140000000  0.4236060000000  0.4539060000000 1.0
C      1  0.5529070000000  0.5526240000000  0.5725780000000 1.0
C      1  0.5674900000000  0.5677580000000  0.4393590000000 1.0
C      1  0.5550180000000  0.5190980000000  0.4471320000000 1.0
C      1  0.4203330000000  0.5286980000000  0.6039370000000 1.0
C      1  0.5433520000000  0.3702230000000  0.4913340000000 1.0
C      1  0.4507990000000  0.4634340000000  0.5940410000000 1.0
C      1  0.5323290000000  0.4480000000000  0.5994150000000 1.0
C      1  0.5015620000000  0.3880180000000  0.4911640000000 1.0
C      1  0.5464480000000  0.5179970000000  0.4983080000000 1.0
C      1  0.4439150000000  0.5475170000000  0.4307000000000 1.0
C      1  0.4791440000000  0.5104300000000  0.4302610000000 1.0
C      1  0.5662740000000  0.4558320000000  0.5307580000000 1.0
C      1  0.4220310000000  0.4320510000000  0.4974280000000 1.0
C      1  0.4696210000000  0.3598050000000  0.4719950000000 1.0
C      1  0.4968570000000  0.5414160000000  0.4637660000000 1.0
C      1  0.5871850000000  0.5659340000000  0.4874370000000 1.0
C      1  0.4148300000000  0.5578320000000  0.5488830000000 1.0
C      1  0.5328300000000  0.5278590000000  0.5392160000000 1.0
C      1  0.4114720000000  0.5074090000000  0.5607400000000 1.0
C      1  0.3891510000000  0.4793590000000  0.4906860000000 1.0
C      1  0.4782550000000  0.4987870000000  0.6080070000000 1.0
C      1  0.4214950000000  0.4372430000000  0.4260890000000 1.0
C      1  0.4359530000000  0.5030110000000  0.5055050000000 1.0
C      1  0.4697130000000  0.4369540000000  0.4998110000000 1.0
C      1  0.4101700000000  0.5280180000000  0.4654820000000 1.0
C      1  0.4470450000000  0.4037670000000  0.4498050000000 1.0
C      1  0.4515750000000  0.3775470000000  0.4611920000000 1.0
C      1  0.6055590000000  0.5356460000000  0.4550640000000 1.0
C      1  0.5245000000000  0.4792530000000  0.5152560000000 1.0
C      1  0.5222530000000  0.3493600000000  0.4863740000000 1.0
C      1  0.5519530000000  0.3791930000000  0.4437830000000 1.0
C      1  0.5355880000000  0.5536190000000  0.5492200000000 1.0
C      1  0.5148700000000  0.4286620000000  0.4019280000000 1.0
C      1  0.5433480000000  0.5805650000000  0.4980930000000 1.0
C      1  0.4925170000000  0.5009860000000  0.4018470000000 1.0
C      1  0.5799320000000  0.5461100000000  0.5612020000000 1.0
C      1  0.4829490000000  0.4338930000000  0.5242910000000 1.0
C      1  0.5858810000000  0.4879880000000  0.4923420000000 1.0
C      1  0.4126870000000  0.4589670000000  0.5635790000000 1.0
C      1  0.3858930000000  0.4930340000000  0.4432860000000 1.0
C      1  0.5272210000000  0.4971480000000  0.4932560000000 1.0
C      1  0.4712660000000  0.4158210000000  0.4388070000000 1.0
C      1  0.5592360000000  0.4851550000000  0.5848200000000 1.0
C      1  0.4605550000000  0.5529590000000  0.4892920000000 1.0
C      1  0.5658010000000  0.4519090000000  0.4577350000000 1.0
C      1  0.6066960000000  0.4873300000000  0.4009340000000 1.0
C      1  0.5462520000000  0.4069120000000  0.4353660000000 1.0
C      1  0.5575820000000  0.4553700000000  0.5870080000000 1.0
C      1  0.5284590000000  0.3933960000000  0.5028860000000 1.0
C      1  0.5199740000000  0.4110720000000  0.4238040000000 1.0
C      1  0.6122830000000  0.5138930000000  0.5418230000000 1.0
C      1  0.4907940000000  0.5294210000000  0.3881970000000 1.0
C      1  0.5654140000000  0.4849770000000  0.5345190000000 1.0
C      1  0.4145320000000  0.5479080000000  0.6205630000000 1.0
C      1  0.4412760000000  0.5991150000000  0.5264330000000 1.0
END
