TITL C-627107-135-1173 239.836873551026 125000 -811.771974333779 0 0 134 (C1) n - 1
REM
REM in /home/nfs/bkarasulu/CARBON/AIRSS/Generating-Clusters/LCBOP/Only-C1/SD-CG/FIRE-CG
REM
REM
REM
REM
REM
REM ./C.cell (11c1c37f851c82e70ff6c80c92926a4b)
REM AIRSS Version 0.9.1 bugfix July 2018 build 013d7b7c2542+ Fri, 06 Jul 2018 19:26:36 +0100
REM compiler GCC version 9.2.1 20190827 (Red Hat 9.2.1-1)
REM options -cpp -mtune=generic -march=x86-64 -g -O0 -fpre-include=/usr/include/finclude/math-vector-fortran.h
REM seed -95774232 -2120647112 -1347778766 -1653096841 -145425270 1625363016 -319463663 -100901033 987695233 -2143725965 -576078131 955179735 742278884 -1476850354 137840643 -1275506169 1180345279 1831292186 -236037258 -469199892 -1352126534 -1344790801 -1722003509 -1956705888 1698803407 551951317 -941864672 394757810 1561571711 -1022776699 -1562011531 663591079 -612290241
REM
CELL 1.54180   50.00000   50.00000   50.00000   90.00000   90.00000   90.00000
LATT -1
SFAC C  
C      1  0.6086490000000  0.4924130000000  0.5759090000000 1.0
C      1  0.5186970000000  0.4895540000000  0.3982030000000 1.0
C      1  0.4757170000000  0.4883830000000  0.6144690000000 1.0
C      1  0.4148960000000  0.5337870000000  0.5401300000000 1.0
C      1  0.5500200000000  0.4596790000000  0.5275480000000 1.0
C      1  0.5719500000000  0.4522540000000  0.5707430000000 1.0
C      1  0.5121460000000  0.4588900000000  0.4920080000000 1.0
C      1  0.4020510000000  0.4626810000000  0.4649040000000 1.0
C      1  0.5808520000000  0.4959020000000  0.4121760000000 1.0
C      1  0.4641210000000  0.5266140000000  0.5002090000000 1.0
C      1  0.4621630000000  0.4798440000000  0.4969370000000 1.0
C      1  0.4594930000000  0.5088450000000  0.4280140000000 1.0
C      1  0.5858900000000  0.5491530000000  0.4556520000000 1.0
C      1  0.4695100000000  0.5350650000000  0.5276830000000 1.0
C      1  0.5684740000000  0.5052910000000  0.5591050000000 1.0
C      1  0.5634370000000  0.4497760000000  0.4242870000000 1.0
C      1  0.4233750000000  0.4869690000000  0.5347230000000 1.0
C      1  0.4918910000000  0.4443140000000  0.5055340000000 1.0
C      1  0.3684480000000  0.4968650000000  0.4597450000000 1.0
C      1  0.5490040000000  0.5055190000000  0.4753100000000 1.0
C      1  0.5199010000000  0.4974970000000  0.5296330000000 1.0
C      1  0.4224860000000  0.4575180000000  0.5324180000000 1.0
C      1  0.4747040000000  0.4991630000000  0.4061480000000 1.0
C      1  0.6004870000000  0.5370380000000  0.5421660000000 1.0
C      1  0.5270000000000  0.5248220000000  0.5349360000000 1.0
C      1  0.6130990000000  0.5156950000000  0.5603260000000 1.0
C      1  0.5782350000000  0.5470860000000  0.4282840000000 1.0
C      1  0.4208790000000  0.5010170000000  0.5081530000000 1.0
C      1  0.5113230000000  0.3961130000000  0.4898400000000 1.0
C      1  0.5441440000000  0.5341170000000  0.5139340000000 1.0
C      1  0.5663940000000  0.5298950000000  0.5700870000000 1.0
C      1  0.5457070000000  0.4300080000000  0.4342630000000 1.0
C      1  0.4404860000000  0.4325520000000  0.5344820000000 1.0
C      1  0.4757430000000  0.4661260000000  0.5174450000000 1.0
C      1  0.5338960000000  0.5037550000000  0.4511290000000 1.0
C      1  0.5138290000000  0.4856900000000  0.5043000000000 1.0
C      1  0.4475740000000  0.5033660000000  0.4986700000000 1.0
C      1  0.5250850000000  0.4102590000000  0.5393080000000 1.0
C      1  0.4756610000000  0.4942990000000  0.5569670000000 1.0
C      1  0.4555910000000  0.5921170000000  0.4731270000000 1.0
C      1  0.5529150000000  0.4030700000000  0.4336460000000 1.0
C      1  0.4217890000000  0.5617890000000  0.5378820000000 1.0
C      1  0.5912980000000  0.5287490000000  0.5153800000000 1.0
C      1  0.4868510000000  0.4896980000000  0.4572040000000 1.0
C      1  0.5205580000000  0.4378510000000  0.4450490000000 1.0
C      1  0.5308870000000  0.5605730000000  0.4400360000000 1.0
C      1  0.5786360000000  0.5520940000000  0.5559860000000 1.0
C      1  0.5673580000000  0.4895630000000  0.4914970000000 1.0
C      1  0.5403040000000  0.5722240000000  0.5747550000000 1.0
C      1  0.5423400000000  0.4763980000000  0.3915360000000 1.0
C      1  0.5184510000000  0.4297600000000  0.5600110000000 1.0
C      1  0.5210750000000  0.4850190000000  0.5960720000000 1.0
C      1  0.4030000000000  0.4505000000000  0.5114590000000 1.0
C      1  0.5835450000000  0.5224970000000  0.4153340000000 1.0
C      1  0.4939030000000  0.4317410000000  0.4350040000000 1.0
C      1  0.4888960000000  0.4422120000000  0.5573160000000 1.0
C      1  0.5228400000000  0.3998290000000  0.5142350000000 1.0
C      1  0.4282250000000  0.5098850000000  0.6210810000000 1.0
C      1  0.5505280000000  0.5974360000000  0.4785560000000 1.0
C      1  0.4872450000000  0.3672500000000  0.4598640000000 1.0
C      1  0.4687680000000  0.4729960000000  0.4704860000000 1.0
C      1  0.5566030000000  0.4641740000000  0.5000470000000 1.0
C      1  0.5318320000000  0.5220430000000  0.4908380000000 1.0
C      1  0.5349900000000  0.5055930000000  0.6075560000000 1.0
C      1  0.4343200000000  0.4947490000000  0.4293660000000 1.0
C      1  0.5016680000000  0.4483590000000  0.6218840000000 1.0
C      1  0.5649130000000  0.4728630000000  0.4082140000000 1.0
C      1  0.5598830000000  0.5744610000000  0.5535250000000 1.0
C      1  0.4969370000000  0.5801870000000  0.5213100000000 1.0
C      1  0.4132560000000  0.5065370000000  0.4441740000000 1.0
C      1  0.4075320000000  0.5265230000000  0.5112890000000 1.0
C      1  0.5173880000000  0.5555710000000  0.5745590000000 1.0
C      1  0.5138750000000  0.4836630000000  0.4532240000000 1.0
C      1  0.5198810000000  0.4582630000000  0.4645710000000 1.0
C      1  0.4309870000000  0.4229290000000  0.4839020000000 1.0
C      1  0.5064800000000  0.3982790000000  0.6370450000000 1.0
C      1  0.5932440000000  0.4697220000000  0.5832720000000 1.0
C      1  0.4683410000000  0.4254000000000  0.5428720000000 1.0
C      1  0.5315510000000  0.4767390000000  0.5441200000000 1.0
C      1  0.5007540000000  0.5533980000000  0.5967400000000 1.0
C      1  0.4935560000000  0.4771930000000  0.4042630000000 1.0
C      1  0.4097410000000  0.4436440000000  0.4843200000000 1.0
C      1  0.5415540000000  0.4453040000000  0.5741630000000 1.0
C      1  0.5175670000000  0.5627120000000  0.4843000000000 1.0
C      1  0.4083510000000  0.5538630000000  0.4657510000000 1.0
C      1  0.4109310000000  0.5496320000000  0.4938500000000 1.0
C      1  0.4783280000000  0.4143980000000  0.4546720000000 1.0
C      1  0.5215340000000  0.5167720000000  0.4077040000000 1.0
C      1  0.4826590000000  0.4511320000000  0.4144860000000 1.0
C      1  0.4834260000000  0.5860750000000  0.4681280000000 1.0
C      1  0.5111030000000  0.5433460000000  0.5495730000000 1.0
C      1  0.4342820000000  0.5954750000000  0.4548210000000 1.0
C      1  0.4597240000000  0.5163900000000  0.5489060000000 1.0
C      1  0.5193840000000  0.5935410000000  0.5333400000000 1.0
C      1  0.4148540000000  0.5352250000000  0.4449950000000 1.0
C      1  0.5556040000000  0.5643680000000  0.4222050000000 1.0
C      1  0.4517900000000  0.4990600000000  0.6184110000000 1.0
C      1  0.4824310000000  0.4205170000000  0.5175500000000 1.0
C      1  0.4812040000000  0.5301090000000  0.4769280000000 1.0
C      1  0.5482480000000  0.5901900000000  0.5315750000000 1.0
C      1  0.4749770000000  0.5152770000000  0.4521030000000 1.0
C      1  0.5275590000000  0.5259330000000  0.4338780000000 1.0
C      1  0.4854960000000  0.5554870000000  0.6177620000000 1.0
C      1  0.5809940000000  0.4885900000000  0.5390940000000 1.0
C      1  0.5696810000000  0.5438380000000  0.5041580000000 1.0
C      1  0.4449730000000  0.5863300000000  0.4992280000000 1.0
C      1  0.5582900000000  0.3775720000000  0.4340040000000 1.0
C      1  0.5300030000000  0.4725840000000  0.5724550000000 1.0
C      1  0.4310970000000  0.5113460000000  0.5505200000000 1.0
C      1  0.4346450000000  0.4691700000000  0.4166960000000 1.0
C      1  0.5087310000000  0.5358750000000  0.4824930000000 1.0
C      1  0.5681750000000  0.5540580000000  0.4771820000000 1.0
C      1  0.4813360000000  0.4689820000000  0.5461040000000 1.0
C      1  0.5743040000000  0.4606960000000  0.5427310000000 1.0
C      1  0.4788400000000  0.5673920000000  0.4227510000000 1.0
C      1  0.4307610000000  0.5473560000000  0.4241570000000 1.0
C      1  0.4112280000000  0.5810600000000  0.4567710000000 1.0
C      1  0.5582650000000  0.5982050000000  0.5062730000000 1.0
C      1  0.4992240000000  0.4738170000000  0.6105980000000 1.0
C      1  0.4969730000000  0.5743950000000  0.4431920000000 1.0
C      1  0.5423560000000  0.5692870000000  0.4690370000000 1.0
C      1  0.4924390000000  0.3929430000000  0.4683480000000 1.0
C      1  0.4894900000000  0.5547040000000  0.5340090000000 1.0
C      1  0.3944330000000  0.4888000000000  0.4563880000000 1.0
C      1  0.4351730000000  0.4146060000000  0.5111380000000 1.0
C      1  0.5502560000000  0.6190690000000  0.4620450000000 1.0
C      1  0.5851350000000  0.5005180000000  0.5128580000000 1.0
C      1  0.4980460000000  0.5808370000000  0.4926710000000 1.0
C      1  0.4539900000000  0.5589220000000  0.4170020000000 1.0
C      1  0.4528580000000  0.4255200000000  0.4647360000000 1.0
C      1  0.4539250000000  0.4508290000000  0.4107910000000 1.0
C      1  0.5039570000000  0.4232850000000  0.6301250000000 1.0
C      1  0.4248100000000  0.5702030000000  0.5104380000000 1.0
C      1  0.4544510000000  0.4530550000000  0.4585230000000 1.0
END
