TITL C-627112-676-1422 23955.6653022287 125000 -1006.68299765173 0 0 165 (C1) n - 1
REM
REM in /home/nfs/bkarasulu/CARBON/AIRSS/Generating-Clusters/LCBOP/Only-C1/SD-CG/FIRE-CG
REM
REM
REM
REM
REM
REM ./C.cell (11c1c37f851c82e70ff6c80c92926a4b)
REM AIRSS Version 0.9.1 bugfix July 2018 build 013d7b7c2542+ Fri, 06 Jul 2018 19:26:36 +0100
REM compiler GCC version 9.2.1 20190827 (Red Hat 9.2.1-1)
REM options -cpp -mtune=generic -march=x86-64 -g -O0 -fpre-include=/usr/include/finclude/math-vector-fortran.h
REM seed 1990678906 -2104129438 -601409328 1360299117 -819957807 1258581598 -149138919 1102088661 -277293330 669495239 1545623788 -1218101629 -214579546 144453387 2093064278 936182663 1864718915 1138992328 585305342 24440705 1485475106 339296773 -404205459 -1448499257 -596202767 -597136001 1626112945 -1230742905 -1691689249 -1848228731 -538727561 -2001508758 595962791
REM
CELL 1.54180   50.00000   50.00000   50.00000   90.00000   90.00000   90.00000
LATT -1
SFAC C  
C      1  0.5644790000000  0.4487380000000  0.4979790000000 1.0
C      1  0.5199620000000  0.4017080000000  0.5082340000000 1.0
C      1  0.4771700000000  0.5587820000000  0.5034230000000 1.0
C      1  0.4752820000000  0.5609200000000  0.3750300000000 1.0
C      1  0.4288010000000  0.4168240000000  0.4830530000000 1.0
C      1  0.3937710000000  0.5090960000000  0.5286940000000 1.0
C      1  0.6084880000000  0.4923150000000  0.4030200000000 1.0
C      1  0.5243960000000  0.5968760000000  0.5390950000000 1.0
C      1  0.5857240000000  0.5330310000000  0.4502170000000 1.0
C      1  0.5578550000000  0.5183000000000  0.5183830000000 1.0
C      1  0.5832150000000  0.5010950000000  0.4000570000000 1.0
C      1  0.5361620000000  0.3683060000000  0.4797850000000 1.0
C      1  0.5143920000000  0.3869430000000  0.4833480000000 1.0
C      1  0.4556210000000  0.5435050000000  0.5136740000000 1.0
C      1  0.5387120000000  0.3495590000000  0.4603760000000 1.0
C      1  0.5383660000000  0.6349290000000  0.4432330000000 1.0
C      1  0.4637340000000  0.4122230000000  0.4079070000000 1.0
C      1  0.5575320000000  0.4117520000000  0.5631360000000 1.0
C      1  0.5206050000000  0.6076540000000  0.4799480000000 1.0
C      1  0.6090350000000  0.4621260000000  0.4421460000000 1.0
C      1  0.4285440000000  0.5221110000000  0.4756830000000 1.0
C      1  0.4784110000000  0.5867040000000  0.3863240000000 1.0
C      1  0.5610790000000  0.6298310000000  0.4288050000000 1.0
C      1  0.5142760000000  0.5372120000000  0.5261320000000 1.0
C      1  0.4788380000000  0.5089730000000  0.5722170000000 1.0
C      1  0.3907540000000  0.4533590000000  0.5302600000000 1.0
C      1  0.5361300000000  0.5320230000000  0.5072920000000 1.0
C      1  0.4580350000000  0.4985630000000  0.5032430000000 1.0
C      1  0.5380260000000  0.5883090000000  0.4925110000000 1.0
C      1  0.5440300000000  0.4453850000000  0.5959460000000 1.0
C      1  0.6096040000000  0.4710780000000  0.5047650000000 1.0
C      1  0.4663740000000  0.3712350000000  0.5235930000000 1.0
C      1  0.5684380000000  0.4617100000000  0.5923210000000 1.0
C      1  0.5001420000000  0.5818590000000  0.5400370000000 1.0
C      1  0.3888200000000  0.5190650000000  0.5021720000000 1.0
C      1  0.4630050000000  0.4143230000000  0.5775670000000 1.0
C      1  0.5669630000000  0.5733570000000  0.5325500000000 1.0
C      1  0.4812670000000  0.6343840000000  0.5062700000000 1.0
C      1  0.4985050000000  0.5601600000000  0.5218860000000 1.0
C      1  0.4933770000000  0.3989220000000  0.4676900000000 1.0
C      1  0.4348060000000  0.4603850000000  0.4208700000000 1.0
C      1  0.4721380000000  0.3754790000000  0.5494070000000 1.0
C      1  0.5470960000000  0.5328990000000  0.5873880000000 1.0
C      1  0.6043540000000  0.5406950000000  0.5426370000000 1.0
C      1  0.4465000000000  0.4690310000000  0.3966040000000 1.0
C      1  0.4503910000000  0.6277340000000  0.3640200000000 1.0
C      1  0.6172660000000  0.5192280000000  0.5318200000000 1.0
C      1  0.4776090000000  0.3899250000000  0.5730620000000 1.0
C      1  0.4939100000000  0.5923260000000  0.4093810000000 1.0
C      1  0.5245760000000  0.4966120000000  0.5589840000000 1.0
C      1  0.5446660000000  0.5873200000000  0.5208930000000 1.0
C      1  0.4799280000000  0.5835080000000  0.5602400000000 1.0
C      1  0.5209270000000  0.4624370000000  0.5938650000000 1.0
C      1  0.5204020000000  0.4823360000000  0.5145300000000 1.0
C      1  0.5831840000000  0.5598750000000  0.4422680000000 1.0
C      1  0.4354150000000  0.6468770000000  0.3545880000000 1.0
C      1  0.4942280000000  0.5598080000000  0.6469800000000 1.0
C      1  0.5577950000000  0.4147550000000  0.5351280000000 1.0
C      1  0.5292660000000  0.4890210000000  0.5858070000000 1.0
C      1  0.5462280000000  0.3950400000000  0.5186370000000 1.0
C      1  0.4058850000000  0.5271380000000  0.5485030000000 1.0
C      1  0.5048950000000  0.4800590000000  0.4302170000000 1.0
C      1  0.4453150000000  0.5232180000000  0.4980630000000 1.0
C      1  0.4269940000000  0.5751760000000  0.5500160000000 1.0
C      1  0.5416840000000  0.4597650000000  0.4778240000000 1.0
C      1  0.6095360000000  0.5232120000000  0.4609050000000 1.0
C      1  0.4536580000000  0.4579460000000  0.5411530000000 1.0
C      1  0.4065760000000  0.4133810000000  0.5021760000000 1.0
C      1  0.4147830000000  0.4161830000000  0.5518230000000 1.0
C      1  0.5285520000000  0.6190960000000  0.5544490000000 1.0
C      1  0.5475180000000  0.5679280000000  0.4751690000000 1.0
C      1  0.5174250000000  0.4395320000000  0.4799100000000 1.0
C      1  0.5604040000000  0.5201030000000  0.4562870000000 1.0
C      1  0.3926090000000  0.4948500000000  0.4311540000000 1.0
C      1  0.5197350000000  0.4767910000000  0.3820510000000 1.0
C      1  0.4952680000000  0.4705900000000  0.5154670000000 1.0
C      1  0.4672900000000  0.4998180000000  0.4535660000000 1.0
C      1  0.5060370000000  0.6004050000000  0.4319080000000 1.0
C      1  0.5116830000000  0.4284920000000  0.5073620000000 1.0
C      1  0.5882270000000  0.4613980000000  0.4606220000000 1.0
C      1  0.6089740000000  0.5013820000000  0.5087580000000 1.0
C      1  0.4757680000000  0.5341430000000  0.3718480000000 1.0
C      1  0.4797400000000  0.4383470000000  0.5752170000000 1.0
C      1  0.4109280000000  0.5065270000000  0.6202060000000 1.0
C      1  0.4879170000000  0.5432230000000  0.4555120000000 1.0
C      1  0.5433110000000  0.5396930000000  0.4794720000000 1.0
C      1  0.5793500000000  0.5053640000000  0.5106520000000 1.0
C      1  0.4813560000000  0.5617460000000  0.4756010000000 1.0
C      1  0.4436620000000  0.4387320000000  0.4948510000000 1.0
C      1  0.5604880000000  0.4413880000000  0.5246930000000 1.0
C      1  0.4008990000000  0.4260720000000  0.5283890000000 1.0
C      1  0.4513330000000  0.4428130000000  0.4381600000000 1.0
C      1  0.4632970000000  0.4546600000000  0.4828590000000 1.0
C      1  0.5677170000000  0.5466270000000  0.5738510000000 1.0
C      1  0.3875880000000  0.5134770000000  0.4510770000000 1.0
C      1  0.4225110000000  0.4785150000000  0.4597930000000 1.0
C      1  0.6186680000000  0.4747080000000  0.4205810000000 1.0
C      1  0.4823250000000  0.5998730000000  0.6061420000000 1.0
C      1  0.5015560000000  0.6217540000000  0.4948430000000 1.0
C      1  0.4649630000000  0.6080400000000  0.3741080000000 1.0
C      1  0.5162890000000  0.5032370000000  0.4222860000000 1.0
C      1  0.5311960000000  0.6606400000000  0.4494490000000 1.0
C      1  0.5575910000000  0.4634720000000  0.5423940000000 1.0
C      1  0.5647830000000  0.5755120000000  0.4541320000000 1.0
C      1  0.3997720000000  0.5220160000000  0.4759990000000 1.0
C      1  0.4414770000000  0.6538350000000  0.5345560000000 1.0
C      1  0.4887840000000  0.5800150000000  0.5870870000000 1.0
C      1  0.4804070000000  0.4858360000000  0.5887270000000 1.0
C      1  0.4519620000000  0.5844330000000  0.5546920000000 1.0
C      1  0.5590870000000  0.4918360000000  0.4117520000000 1.0
C      1  0.5695470000000  0.4872420000000  0.6060700000000 1.0
C      1  0.5356370000000  0.4815570000000  0.5381730000000 1.0
C      1  0.3904910000000  0.4805560000000  0.5326190000000 1.0
C      1  0.5443070000000  0.4723120000000  0.3958450000000 1.0
C      1  0.5570210000000  0.4946210000000  0.4411880000000 1.0
C      1  0.5007770000000  0.5232340000000  0.4102460000000 1.0
C      1  0.4931320000000  0.5444620000000  0.4276490000000 1.0
C      1  0.4733320000000  0.4759410000000  0.4987990000000 1.0
C      1  0.4925220000000  0.4594300000000  0.5904000000000 1.0
C      1  0.4087700000000  0.5555210000000  0.5457210000000 1.0
C      1  0.5433820000000  0.4182710000000  0.5867840000000 1.0
C      1  0.5084470000000  0.5216890000000  0.5570700000000 1.0
C      1  0.4520980000000  0.5122130000000  0.5585490000000 1.0
C      1  0.4611510000000  0.6447490000000  0.5200660000000 1.0
C      1  0.4668890000000  0.3885370000000  0.4727670000000 1.0
C      1  0.5806280000000  0.5549160000000  0.5498880000000 1.0
C      1  0.5749770000000  0.4639040000000  0.5647010000000 1.0
C      1  0.4788670000000  0.4805700000000  0.4369770000000 1.0
C      1  0.5029800000000  0.5563620000000  0.5957630000000 1.0
C      1  0.4880400000000  0.5162370000000  0.4646180000000 1.0
C      1  0.4872510000000  0.5130550000000  0.3865770000000 1.0
C      1  0.5606790000000  0.4698520000000  0.4554070000000 1.0
C      1  0.4796080000000  0.6029050000000  0.6327440000000 1.0
C      1  0.4485450000000  0.4843140000000  0.5477450000000 1.0
C      1  0.4491310000000  0.4140250000000  0.4335160000000 1.0
C      1  0.4130870000000  0.4745200000000  0.4329260000000 1.0
C      1  0.4754320000000  0.4324520000000  0.3922710000000 1.0
C      1  0.4964770000000  0.4438860000000  0.5259130000000 1.0
C      1  0.4237220000000  0.5168650000000  0.5689500000000 1.0
C      1  0.5116820000000  0.5033850000000  0.4734850000000 1.0
C      1  0.4724050000000  0.4614550000000  0.3870940000000 1.0
C      1  0.5549050000000  0.3736660000000  0.5013570000000 1.0
C      1  0.5282140000000  0.4853650000000  0.4877180000000 1.0
C      1  0.4781290000000  0.4446750000000  0.5474950000000 1.0
C      1  0.5008380000000  0.5492380000000  0.6231360000000 1.0
C      1  0.4353660000000  0.4148140000000  0.5695000000000 1.0
C      1  0.4967140000000  0.4280180000000  0.4622690000000 1.0
C      1  0.5238640000000  0.3997510000000  0.5949000000000 1.0
C      1  0.4846820000000  0.5846010000000  0.6519850000000 1.0
C      1  0.5911210000000  0.4561670000000  0.4886950000000 1.0
C      1  0.5216730000000  0.6133170000000  0.4516510000000 1.0
C      1  0.5493900000000  0.5060350000000  0.5980420000000 1.0
C      1  0.5550700000000  0.4469670000000  0.3941750000000 1.0
C      1  0.5196620000000  0.5400540000000  0.5794380000000 1.0
C      1  0.4441470000000  0.4025680000000  0.4612630000000 1.0
C      1  0.4917080000000  0.4836450000000  0.3819630000000 1.0
C      1  0.4391970000000  0.4456010000000  0.5212720000000 1.0
C      1  0.4564780000000  0.5356020000000  0.5406230000000 1.0
C      1  0.4164020000000  0.5118530000000  0.5952930000000 1.0
C      1  0.4399770000000  0.5007560000000  0.4602860000000 1.0
C      1  0.6195050000000  0.5129030000000  0.4833990000000 1.0
C      1  0.5013510000000  0.3871250000000  0.5878460000000 1.0
C      1  0.4727280000000  0.4444200000000  0.4584480000000 1.0
C      1  0.4635450000000  0.3742640000000  0.4971020000000 1.0
C      1  0.4079450000000  0.4680200000000  0.4802030000000 1.0
END
