TITL C-627111-6168-444 12.5322787204689 125000 -617.75859143738 0 0 103 (C1) n - 1
REM
REM in /home/nfs/bkarasulu/CARBON/AIRSS/Generating-Clusters/LCBOP/Only-C1/SD-CG/FIRE-CG
REM
REM
REM
REM
REM
REM ./C.cell (11c1c37f851c82e70ff6c80c92926a4b)
REM AIRSS Version 0.9.1 bugfix July 2018 build 013d7b7c2542+ Fri, 06 Jul 2018 19:26:36 +0100
REM compiler GCC version 9.2.1 20190827 (Red Hat 9.2.1-1)
REM options -cpp -mtune=generic -march=x86-64 -g -O0 -fpre-include=/usr/include/finclude/math-vector-fortran.h
REM seed -330822794 1954292204 862768815 1246476918 1217487633 -1531561326 787744557 -2043662525 -1013150059 12235092 1091131293 984233327 1930347337 -1571461256 454702192 1602818136 432357305 1604325119 1261923891 739296568 2146658070 1747946496 -12878307 244436377 1861603824 898485020 756802693 226735484 256501808 -117074909 -1644288700 1716653149 -1743667142
REM
CELL 1.54180   50.00000   50.00000   50.00000   90.00000   90.00000   90.00000
LATT -1
SFAC C  
C      1  0.4498860000000  0.5397500000000  0.4325160000000 1.0
C      1  0.4796860000000  0.5625200000000  0.5419590000000 1.0
C      1  0.5853920000000  0.6116020000000  0.4195410000000 1.0
C      1  0.4541890000000  0.5122430000000  0.5888510000000 1.0
C      1  0.5309550000000  0.4372880000000  0.4609020000000 1.0
C      1  0.4001210000000  0.4193500000000  0.4690970000000 1.0
C      1  0.5459670000000  0.4817320000000  0.4417000000000 1.0
C      1  0.5289790000000  0.5322820000000  0.5752600000000 1.0
C      1  0.5700740000000  0.5417310000000  0.5146050000000 1.0
C      1  0.6124780000000  0.5552430000000  0.5344930000000 1.0
C      1  0.4252050000000  0.4980190000000  0.5422420000000 1.0
C      1  0.5246990000000  0.5255030000000  0.5231970000000 1.0
C      1  0.4080310000000  0.4843980000000  0.5235800000000 1.0
C      1  0.4948250000000  0.3786540000000  0.5191720000000 1.0
C      1  0.5470490000000  0.5404750000000  0.5313090000000 1.0
C      1  0.4577770000000  0.4429010000000  0.4277800000000 1.0
C      1  0.4810410000000  0.5443580000000  0.5631870000000 1.0
C      1  0.4652610000000  0.4062540000000  0.4589080000000 1.0
C      1  0.5112250000000  0.5035280000000  0.5304870000000 1.0
C      1  0.5900250000000  0.5614730000000  0.5191010000000 1.0
C      1  0.5870920000000  0.5869860000000  0.5081510000000 1.0
C      1  0.5838730000000  0.6170570000000  0.5762600000000 1.0
C      1  0.5105330000000  0.4183440000000  0.4657920000000 1.0
C      1  0.5215960000000  0.4802560000000  0.4909560000000 1.0
C      1  0.4905160000000  0.5200450000000  0.4580710000000 1.0
C      1  0.5358490000000  0.4816670000000  0.5636620000000 1.0
C      1  0.4926810000000  0.5342520000000  0.6082590000000 1.0
C      1  0.4957650000000  0.4750310000000  0.4862890000000 1.0
C      1  0.5627340000000  0.6183760000000  0.4327210000000 1.0
C      1  0.5217780000000  0.4753640000000  0.5381700000000 1.0
C      1  0.4444790000000  0.4141190000000  0.5317040000000 1.0
C      1  0.4471810000000  0.4220950000000  0.4440410000000 1.0
C      1  0.4618580000000  0.4903670000000  0.4126810000000 1.0
C      1  0.5529040000000  0.4475340000000  0.5036730000000 1.0
C      1  0.4198740000000  0.4195700000000  0.4509320000000 1.0
C      1  0.3893500000000  0.4383600000000  0.5163840000000 1.0
C      1  0.4030440000000  0.4752600000000  0.4270980000000 1.0
C      1  0.4254890000000  0.4610630000000  0.4872310000000 1.0
C      1  0.4416980000000  0.5215680000000  0.5398340000000 1.0
C      1  0.4152590000000  0.4857400000000  0.4967000000000 1.0
C      1  0.5701840000000  0.5944460000000  0.5742900000000 1.0
C      1  0.5736480000000  0.4165010000000  0.4724660000000 1.0
C      1  0.6323490000000  0.5502500000000  0.5512850000000 1.0
C      1  0.4401390000000  0.5455060000000  0.4603060000000 1.0
C      1  0.5847630000000  0.6124900000000  0.5014100000000 1.0
C      1  0.5364710000000  0.5048960000000  0.5776540000000 1.0
C      1  0.5710250000000  0.5128320000000  0.4676690000000 1.0
C      1  0.5464050000000  0.5748470000000  0.4482670000000 1.0
C      1  0.5189280000000  0.5204680000000  0.4196800000000 1.0
C      1  0.4511850000000  0.4542220000000  0.4860480000000 1.0
C      1  0.4762550000000  0.5496890000000  0.4253820000000 1.0
C      1  0.3827060000000  0.4670600000000  0.4130080000000 1.0
C      1  0.4812890000000  0.4451060000000  0.5214850000000 1.0
C      1  0.4301550000000  0.4778020000000  0.5633030000000 1.0
C      1  0.4693100000000  0.5557690000000  0.5166300000000 1.0
C      1  0.4974990000000  0.5362570000000  0.4795640000000 1.0
C      1  0.4411540000000  0.4875840000000  0.5869000000000 1.0
C      1  0.5366630000000  0.4686220000000  0.5123510000000 1.0
C      1  0.4462200000000  0.5381670000000  0.5149700000000 1.0
C      1  0.5578310000000  0.5717420000000  0.5684900000000 1.0
C      1  0.5536080000000  0.4341050000000  0.4785890000000 1.0
C      1  0.4742230000000  0.4654980000000  0.4215390000000 1.0
C      1  0.5694780000000  0.4850210000000  0.4593070000000 1.0
C      1  0.5909430000000  0.4683180000000  0.4609110000000 1.0
C      1  0.4491630000000  0.4167340000000  0.5787610000000 1.0
C      1  0.5416810000000  0.5091220000000  0.4313300000000 1.0
C      1  0.5736330000000  0.5238570000000  0.4930800000000 1.0
C      1  0.4269870000000  0.5068290000000  0.4826360000000 1.0
C      1  0.4693160000000  0.5207880000000  0.6110830000000 1.0
C      1  0.4992790000000  0.4558500000000  0.5402490000000 1.0
C      1  0.4486390000000  0.5143780000000  0.4168480000000 1.0
C      1  0.4874350000000  0.4060540000000  0.4762870000000 1.0
C      1  0.4239000000000  0.4833170000000  0.4413920000000 1.0
C      1  0.5638410000000  0.5542270000000  0.4396550000000 1.0
C      1  0.5020330000000  0.4631160000000  0.4285150000000 1.0
C      1  0.4701970000000  0.4191730000000  0.5206420000000 1.0
C      1  0.5799270000000  0.6636450000000  0.4903070000000 1.0
C      1  0.4874980000000  0.5549990000000  0.4955120000000 1.0
C      1  0.4941190000000  0.3728020000000  0.5454610000000 1.0
C      1  0.4407810000000  0.4965310000000  0.4595770000000 1.0
C      1  0.6516270000000  0.5455980000000  0.5682060000000 1.0
C      1  0.4841230000000  0.3807500000000  0.5690540000000 1.0
C      1  0.5456600000000  0.6016600000000  0.4453900000000 1.0
C      1  0.5954990000000  0.5867380000000  0.4162200000000 1.0
C      1  0.4285750000000  0.3942080000000  0.5216950000000 1.0
C      1  0.4370200000000  0.4279180000000  0.5558420000000 1.0
C      1  0.5592320000000  0.5273630000000  0.4456480000000 1.0
C      1  0.4842570000000  0.4000920000000  0.5042470000000 1.0
C      1  0.4022310000000  0.4570100000000  0.5329930000000 1.0
C      1  0.5863070000000  0.5628220000000  0.4246850000000 1.0
C      1  0.5270240000000  0.4599940000000  0.4425780000000 1.0
C      1  0.4687170000000  0.5019290000000  0.4594000000000 1.0
C      1  0.4581180000000  0.5267200000000  0.5640210000000 1.0
C      1  0.4215030000000  0.4516330000000  0.5544820000000 1.0
C      1  0.4969130000000  0.5316670000000  0.4325690000000 1.0
C      1  0.5455480000000  0.5488360000000  0.5586610000000 1.0
C      1  0.4352480000000  0.5337410000000  0.4877560000000 1.0
C      1  0.4757750000000  0.4595570000000  0.4976710000000 1.0
C      1  0.3890740000000  0.4255210000000  0.4927740000000 1.0
C      1  0.4677630000000  0.3975390000000  0.5820950000000 1.0
C      1  0.5824700000000  0.6383520000000  0.4960860000000 1.0
C      1  0.5976360000000  0.6391970000000  0.5763720000000 1.0
C      1  0.5024040000000  0.5401810000000  0.5822210000000 1.0
END
