TITL C-627107-135-827 0.00608260075640595 125000 -165.712659383923 0 0 29 (C1) n - 1
REM
REM in /home/nfs/bkarasulu/CARBON/AIRSS/Generating-Clusters/LCBOP/Only-C1/SD-CG/FIRE-CG
REM
REM
REM
REM
REM
REM ./C.cell (11c1c37f851c82e70ff6c80c92926a4b)
REM AIRSS Version 0.9.1 bugfix July 2018 build 013d7b7c2542+ Fri, 06 Jul 2018 19:26:36 +0100
REM compiler GCC version 9.2.1 20190827 (Red Hat 9.2.1-1)
REM options -cpp -mtune=generic -march=x86-64 -g -O0 -fpre-include=/usr/include/finclude/math-vector-fortran.h
REM seed 1998549853 -1026435794 158238696 541876267 1956011162 7485290 -817991797 1421833625 -1882183745 -218220327 -404143155 -1919502640 -152557743 -344888830 -1613369495 556254419 1317131313 1235475631 1432829685 1166741732 -1060923719 68925321 -1193190970 -259064342 417445521 34361219 1827893828 684319688 1864254310 -691921516 1065385237 622803892 -492340623
REM
CELL 1.54180   50.00000   50.00000   50.00000   90.00000   90.00000   90.00000
LATT -1
SFAC C  
C      1  0.4701770000000  0.5269440000000  0.4653420000000 1.0
C      1  0.4976520000000  0.4641520000000  0.4754830000000 1.0
C      1  0.4813750000000  0.4893450000000  0.5383960000000 1.0
C      1  0.4761880000000  0.4862490000000  0.5125870000000 1.0
C      1  0.5721040000000  0.4935550000000  0.5070900000000 1.0
C      1  0.5462150000000  0.5326590000000  0.4827940000000 1.0
C      1  0.5456900000000  0.4919090000000  0.5687350000000 1.0
C      1  0.4740800000000  0.4944080000000  0.5859660000000 1.0
C      1  0.5789080000000  0.4930330000000  0.5341360000000 1.0
C      1  0.5478930000000  0.4555730000000  0.4809890000000 1.0
C      1  0.4284200000000  0.5614440000000  0.4604080000000 1.0
C      1  0.4076810000000  0.5770150000000  0.4577530000000 1.0
C      1  0.5924420000000  0.4920730000000  0.5803410000000 1.0
C      1  0.5222010000000  0.4540470000000  0.4742430000000 1.0
C      1  0.4516070000000  0.4807520000000  0.4237510000000 1.0
C      1  0.5667850000000  0.4697290000000  0.4933090000000 1.0
C      1  0.4915530000000  0.4918220000000  0.5643230000000 1.0
C      1  0.4966340000000  0.5359090000000  0.4666400000000 1.0
C      1  0.4645360000000  0.4990810000000  0.4668420000000 1.0
C      1  0.4447650000000  0.4875690000000  0.4499860000000 1.0
C      1  0.4492890000000  0.5453340000000  0.4630250000000 1.0
C      1  0.4577830000000  0.4968210000000  0.6061610000000 1.0
C      1  0.5191830000000  0.4917170000000  0.5686340000000 1.0
C      1  0.4194450000000  0.4832410000000  0.4593990000000 1.0
C      1  0.5223000000000  0.5384430000000  0.4728310000000 1.0
C      1  0.4788990000000  0.4826280000000  0.4849860000000 1.0
C      1  0.4590300000000  0.4746400000000  0.3995300000000 1.0
C      1  0.5727330000000  0.4923340000000  0.5614330000000 1.0
C      1  0.5644320000000  0.5175750000000  0.4948880000000 1.0
END
