TITL C-627113-6568-128 15248.1637104378 125000 -1135.02581775345 0 0 186 (C1) n - 1
REM
REM in /home/nfs/bkarasulu/CARBON/AIRSS/Generating-Clusters/LCBOP/Only-C1/SD-CG/FIRE-CG
REM
REM
REM
REM
REM
REM ./C.cell (11c1c37f851c82e70ff6c80c92926a4b)
REM AIRSS Version 0.9.1 bugfix July 2018 build 013d7b7c2542+ Fri, 06 Jul 2018 19:26:36 +0100
REM compiler GCC version 9.2.1 20190827 (Red Hat 9.2.1-1)
REM options -cpp -mtune=generic -march=x86-64 -g -O0 -fpre-include=/usr/include/finclude/math-vector-fortran.h
REM seed 476946502 863482642 2129849036 70568576 1043936219 1557846782 -172397823 -445237891 -1273832729 1386909774 1679628796 1493447047 -1719479603 -434184223 -1710090120 286913389 -636875429 -1629979849 -1071214297 72675494 1282575083 -363239303 1054949334 -263700987 -1656509317 2136166702 -1934953428 -1632330807 -670012177 2066524111 1459882199 2022555805 -533606845
REM
CELL 1.54180   50.00000   50.00000   50.00000   90.00000   90.00000   90.00000
LATT -1
SFAC C  
C      1  0.5077120000000  0.4782670000000  0.6130210000000 1.0
C      1  0.5552700000000  0.3764740000000  0.5060470000000 1.0
C      1  0.5351300000000  0.6297620000000  0.5189310000000 1.0
C      1  0.5356500000000  0.4256550000000  0.5310120000000 1.0
C      1  0.4030530000000  0.5621880000000  0.5272220000000 1.0
C      1  0.5703000000000  0.5097970000000  0.4422000000000 1.0
C      1  0.4235820000000  0.5372520000000  0.4891370000000 1.0
C      1  0.4681360000000  0.5502960000000  0.3926390000000 1.0
C      1  0.4076440000000  0.4076550000000  0.4853600000000 1.0
C      1  0.6206800000000  0.5191900000000  0.5625160000000 1.0
C      1  0.4184620000000  0.4412170000000  0.5214710000000 1.0
C      1  0.5753260000000  0.5222950000000  0.5770390000000 1.0
C      1  0.5885120000000  0.4522590000000  0.5303480000000 1.0
C      1  0.4806310000000  0.4867770000000  0.3793270000000 1.0
C      1  0.4517740000000  0.5846190000000  0.5868360000000 1.0
C      1  0.5459970000000  0.3907310000000  0.4656400000000 1.0
C      1  0.4043370000000  0.5933500000000  0.4858480000000 1.0
C      1  0.4374740000000  0.4570760000000  0.4645700000000 1.0
C      1  0.6027430000000  0.4356260000000  0.4834200000000 1.0
C      1  0.5625120000000  0.4643790000000  0.4851210000000 1.0
C      1  0.4501290000000  0.4062500000000  0.5131590000000 1.0
C      1  0.5112700000000  0.4594650000000  0.4598770000000 1.0
C      1  0.4869390000000  0.5030670000000  0.4206060000000 1.0
C      1  0.5809350000000  0.3912650000000  0.5075410000000 1.0
C      1  0.4674660000000  0.4623190000000  0.4978780000000 1.0
C      1  0.5944980000000  0.4085270000000  0.4890720000000 1.0
C      1  0.5618540000000  0.4655640000000  0.4556630000000 1.0
C      1  0.5034420000000  0.5207980000000  0.4057260000000 1.0
C      1  0.3831210000000  0.4973630000000  0.4946590000000 1.0
C      1  0.4494250000000  0.5284460000000  0.3901020000000 1.0
C      1  0.4950040000000  0.6412730000000  0.5839910000000 1.0
C      1  0.4970100000000  0.6515180000000  0.6098180000000 1.0
C      1  0.4611140000000  0.5591210000000  0.5799570000000 1.0
C      1  0.5328880000000  0.4436460000000  0.5798240000000 1.0
C      1  0.5109900000000  0.4816240000000  0.3826620000000 1.0
C      1  0.4956450000000  0.3933900000000  0.4355580000000 1.0
C      1  0.4649460000000  0.5803920000000  0.4460770000000 1.0
C      1  0.4221430000000  0.5319770000000  0.5614340000000 1.0
C      1  0.5505670000000  0.5554750000000  0.5244970000000 1.0
C      1  0.4552590000000  0.4420810000000  0.4814710000000 1.0
C      1  0.5323190000000  0.6235550000000  0.4932770000000 1.0
C      1  0.5055330000000  0.5637650000000  0.4244760000000 1.0
C      1  0.5272570000000  0.5213220000000  0.6321190000000 1.0
C      1  0.4613680000000  0.6321940000000  0.5221340000000 1.0
C      1  0.4008390000000  0.4905860000000  0.5182980000000 1.0
C      1  0.5418230000000  0.5228080000000  0.6841220000000 1.0
C      1  0.5518210000000  0.5159070000000  0.4010990000000 1.0
C      1  0.4630770000000  0.4254590000000  0.5347610000000 1.0
C      1  0.5074830000000  0.4292930000000  0.5813960000000 1.0
C      1  0.5892490000000  0.5611110000000  0.4946310000000 1.0
C      1  0.5536960000000  0.4238940000000  0.4356400000000 1.0
C      1  0.6078970000000  0.4474250000000  0.4570310000000 1.0
C      1  0.4786840000000  0.4494910000000  0.5206370000000 1.0
C      1  0.5173710000000  0.6396240000000  0.5671760000000 1.0
C      1  0.5741560000000  0.5501650000000  0.4724220000000 1.0
C      1  0.5229080000000  0.6157580000000  0.4697140000000 1.0
C      1  0.3579020000000  0.5073530000000  0.4959540000000 1.0
C      1  0.4666620000000  0.6450380000000  0.4642850000000 1.0
C      1  0.5036190000000  0.5642730000000  0.5479840000000 1.0
C      1  0.4708810000000  0.5329860000000  0.4591490000000 1.0
C      1  0.5081930000000  0.3684740000000  0.4454050000000 1.0
C      1  0.4711210000000  0.5031360000000  0.5561390000000 1.0
C      1  0.5839190000000  0.5318680000000  0.4533210000000 1.0
C      1  0.5512330000000  0.4793790000000  0.5097830000000 1.0
C      1  0.5109640000000  0.5113840000000  0.4641890000000 1.0
C      1  0.5469050000000  0.5426210000000  0.4789150000000 1.0
C      1  0.5750240000000  0.4958240000000  0.5877430000000 1.0
C      1  0.4883600000000  0.3916000000000  0.3880020000000 1.0
C      1  0.4891630000000  0.4514480000000  0.5792200000000 1.0
C      1  0.4566530000000  0.4632080000000  0.4434680000000 1.0
C      1  0.4479210000000  0.6001000000000  0.4580610000000 1.0
C      1  0.5360260000000  0.3735210000000  0.4857970000000 1.0
C      1  0.5488510000000  0.4013370000000  0.5363300000000 1.0
C      1  0.4101310000000  0.5580570000000  0.5547470000000 1.0
C      1  0.4166240000000  0.5327470000000  0.4609750000000 1.0
C      1  0.4996200000000  0.6586190000000  0.6352100000000 1.0
C      1  0.5286190000000  0.5502330000000  0.4348320000000 1.0
C      1  0.4924440000000  0.5844970000000  0.4388290000000 1.0
C      1  0.5048200000000  0.5051360000000  0.6247340000000 1.0
C      1  0.4666250000000  0.3864710000000  0.5020290000000 1.0
C      1  0.4128520000000  0.4655740000000  0.5083490000000 1.0
C      1  0.5592720000000  0.5396730000000  0.5926130000000 1.0
C      1  0.5201620000000  0.4756960000000  0.5118830000000 1.0
C      1  0.5211060000000  0.4568350000000  0.3958210000000 1.0
C      1  0.5142530000000  0.4894730000000  0.5665850000000 1.0
C      1  0.4206850000000  0.5956110000000  0.4646160000000 1.0
C      1  0.5253060000000  0.5064100000000  0.3922550000000 1.0
C      1  0.5267490000000  0.5360820000000  0.4601490000000 1.0
C      1  0.5897170000000  0.4271300000000  0.5429930000000 1.0
C      1  0.3991190000000  0.5844340000000  0.5106650000000 1.0
C      1  0.4232960000000  0.4161070000000  0.5068100000000 1.0
C      1  0.4972570000000  0.4066720000000  0.4100590000000 1.0
C      1  0.4668230000000  0.5589020000000  0.5095510000000 1.0
C      1  0.4614220000000  0.6134370000000  0.5015880000000 1.0
C      1  0.4556410000000  0.3846950000000  0.5621790000000 1.0
C      1  0.4609410000000  0.5076620000000  0.3714250000000 1.0
C      1  0.5267090000000  0.4306350000000  0.5035720000000 1.0
C      1  0.4719900000000  0.4834110000000  0.4067460000000 1.0
C      1  0.4945030000000  0.5086270000000  0.5726630000000 1.0
C      1  0.5492410000000  0.4572820000000  0.4035810000000 1.0
C      1  0.4936510000000  0.5477310000000  0.4043570000000 1.0
C      1  0.5312620000000  0.5520760000000  0.5449430000000 1.0
C      1  0.4566350000000  0.5533260000000  0.4462840000000 1.0
C      1  0.5479760000000  0.5333720000000  0.5053060000000 1.0
C      1  0.4506640000000  0.5364760000000  0.4998810000000 1.0
C      1  0.5961800000000  0.5584240000000  0.5430820000000 1.0
C      1  0.4818280000000  0.4681080000000  0.6014730000000 1.0
C      1  0.4602610000000  0.5859540000000  0.5074350000000 1.0
C      1  0.5093310000000  0.3675700000000  0.4756960000000 1.0
C      1  0.5425040000000  0.4466380000000  0.5511470000000 1.0
C      1  0.5587880000000  0.4791930000000  0.6012600000000 1.0
C      1  0.4154110000000  0.4678740000000  0.4785210000000 1.0
C      1  0.3976320000000  0.4892510000000  0.4704970000000 1.0
C      1  0.5233050000000  0.4871240000000  0.4576400000000 1.0
C      1  0.6281260000000  0.4989640000000  0.5005650000000 1.0
C      1  0.6252850000000  0.4728170000000  0.5046520000000 1.0
C      1  0.6049210000000  0.4536730000000  0.5065930000000 1.0
C      1  0.4747050000000  0.4286180000000  0.4653410000000 1.0
C      1  0.6068640000000  0.4642000000000  0.4351390000000 1.0
C      1  0.4859000000000  0.3841030000000  0.4819970000000 1.0
C      1  0.4521180000000  0.4864420000000  0.5683490000000 1.0
C      1  0.4890510000000  0.5570730000000  0.5722650000000 1.0
C      1  0.4800210000000  0.3775100000000  0.3677270000000 1.0
C      1  0.4974490000000  0.4066930000000  0.5688850000000 1.0
C      1  0.4499840000000  0.4722060000000  0.4184520000000 1.0
C      1  0.5675300000000  0.4570090000000  0.3829510000000 1.0
C      1  0.5773160000000  0.4034370000000  0.5345850000000 1.0
C      1  0.5624040000000  0.5090050000000  0.5117560000000 1.0
C      1  0.4999580000000  0.5336500000000  0.5833890000000 1.0
C      1  0.5254930000000  0.4359420000000  0.4746410000000 1.0
C      1  0.4833350000000  0.5098170000000  0.4692380000000 1.0
C      1  0.4373880000000  0.4402350000000  0.5433420000000 1.0
C      1  0.4728460000000  0.4051020000000  0.5551780000000 1.0
C      1  0.5064710000000  0.4333050000000  0.4037880000000 1.0
C      1  0.5421440000000  0.5362310000000  0.6131550000000 1.0
C      1  0.4782590000000  0.5173000000000  0.6232180000000 1.0
C      1  0.5965400000000  0.4823800000000  0.4168780000000 1.0
C      1  0.5304530000000  0.6352960000000  0.5444730000000 1.0
C      1  0.6217460000000  0.5614570000000  0.5281450000000 1.0
C      1  0.4106630000000  0.5142950000000  0.5322910000000 1.0
C      1  0.4905850000000  0.5531820000000  0.5240570000000 1.0
C      1  0.4694480000000  0.4912700000000  0.4882950000000 1.0
C      1  0.5764880000000  0.5662810000000  0.5220840000000 1.0
C      1  0.6149850000000  0.5482450000000  0.5026520000000 1.0
C      1  0.6112230000000  0.5200680000000  0.5067710000000 1.0
C      1  0.4758480000000  0.5099340000000  0.5300540000000 1.0
C      1  0.3896270000000  0.4339050000000  0.4127040000000 1.0
C      1  0.3719140000000  0.4249450000000  0.3930480000000 1.0
C      1  0.3924140000000  0.4194540000000  0.4365820000000 1.0
C      1  0.5511650000000  0.4915070000000  0.4520760000000 1.0
C      1  0.5576330000000  0.4703650000000  0.5382460000000 1.0
C      1  0.5338890000000  0.4654800000000  0.6008060000000 1.0
C      1  0.4044740000000  0.4572910000000  0.4084580000000 1.0
C      1  0.5010380000000  0.4664920000000  0.5575210000000 1.0
C      1  0.3553030000000  0.4166310000000  0.3747680000000 1.0
C      1  0.5883940000000  0.5143780000000  0.5248170000000 1.0
C      1  0.4225700000000  0.4777660000000  0.4139060000000 1.0
C      1  0.5251500000000  0.5228700000000  0.5407320000000 1.0
C      1  0.4596700000000  0.5101380000000  0.5076820000000 1.0
C      1  0.4994220000000  0.5250940000000  0.5261670000000 1.0
C      1  0.6436280000000  0.5098110000000  0.5704800000000 1.0
C      1  0.4597890000000  0.6205680000000  0.4741110000000 1.0
C      1  0.5025700000000  0.6646310000000  0.6604060000000 1.0
C      1  0.5474050000000  0.5418290000000  0.4146550000000 1.0
C      1  0.5011610000000  0.4627640000000  0.5298760000000 1.0
C      1  0.4446140000000  0.5339510000000  0.5830830000000 1.0
C      1  0.4147360000000  0.5034260000000  0.4230280000000 1.0
C      1  0.4315780000000  0.5438450000000  0.4378300000000 1.0
C      1  0.5081520000000  0.6042420000000  0.4508780000000 1.0
C      1  0.5348140000000  0.5222620000000  0.6590280000000 1.0
C      1  0.4560590000000  0.5134260000000  0.6047220000000 1.0
C      1  0.4564450000000  0.6108140000000  0.5860590000000 1.0
C      1  0.5402860000000  0.4165850000000  0.4585730000000 1.0
C      1  0.5362050000000  0.4984640000000  0.5521600000000 1.0
C      1  0.4701940000000  0.6318740000000  0.5737660000000 1.0
C      1  0.4841590000000  0.4518720000000  0.4502120000000 1.0
C      1  0.3976690000000  0.4097610000000  0.4607750000000 1.0
C      1  0.5931550000000  0.5286680000000  0.5531560000000 1.0
C      1  0.4628120000000  0.6390330000000  0.5477300000000 1.0
C      1  0.4075470000000  0.5374080000000  0.5132950000000 1.0
C      1  0.5754990000000  0.5027340000000  0.4141720000000 1.0
C      1  0.5576800000000  0.4507200000000  0.4305330000000 1.0
C      1  0.4575970000000  0.4845590000000  0.5964810000000 1.0
C      1  0.4824280000000  0.4028070000000  0.4597740000000 1.0
C      1  0.4056360000000  0.5076940000000  0.4507220000000 1.0
C      1  0.4301670000000  0.5266290000000  0.4131360000000 1.0
END
