TITL C-627107-135-152 0.242159180384633 125000 -564.414404052854 0 0 93 (C1) n - 1
REM
REM in /home/nfs/bkarasulu/CARBON/AIRSS/Generating-Clusters/LCBOP/Only-C1/SD-CG/FIRE-CG
REM
REM
REM
REM
REM
REM ./C.cell (11c1c37f851c82e70ff6c80c92926a4b)
REM AIRSS Version 0.9.1 bugfix July 2018 build 013d7b7c2542+ Fri, 06 Jul 2018 19:26:36 +0100
REM compiler GCC version 9.2.1 20190827 (Red Hat 9.2.1-1)
REM options -cpp -mtune=generic -march=x86-64 -g -O0 -fpre-include=/usr/include/finclude/math-vector-fortran.h
REM seed 626421275 803783494 150177055 1636701246 260235634 610304211 -1163302651 1099402512 -1108083378 -1407355706 -1686487280 -1672635152 -1614639749 600536909 8860777 -864726767 -186326357 -49117307 -1690496444 1043226814 452385957 958753819 1905978256 670492264 1547020529 -1692167367 783570351 -1357329025 590553351 -989729616 1753884607 -2019671622 1040423568
REM
CELL 1.54180   50.00000   50.00000   50.00000   90.00000   90.00000   90.00000
LATT -1
SFAC C  
C      1  0.5717750000000  0.5122410000000  0.5767290000000 1.0
C      1  0.4951220000000  0.5070580000000  0.4881830000000 1.0
C      1  0.4400000000000  0.4444530000000  0.5071700000000 1.0
C      1  0.4729030000000  0.5682290000000  0.5329670000000 1.0
C      1  0.4491000000000  0.5679710000000  0.5485210000000 1.0
C      1  0.4110800000000  0.5148040000000  0.4979700000000 1.0
C      1  0.4471810000000  0.5711920000000  0.4251410000000 1.0
C      1  0.5444930000000  0.4030880000000  0.5325670000000 1.0
C      1  0.4876570000000  0.5681980000000  0.4468220000000 1.0
C      1  0.5880990000000  0.5813240000000  0.5745400000000 1.0
C      1  0.4327330000000  0.5307990000000  0.5810830000000 1.0
C      1  0.4380010000000  0.4772970000000  0.4512940000000 1.0
C      1  0.5317900000000  0.4494570000000  0.5302800000000 1.0
C      1  0.4353630000000  0.5526780000000  0.5658230000000 1.0
C      1  0.5326590000000  0.5832920000000  0.4282410000000 1.0
C      1  0.5844470000000  0.4945620000000  0.5586650000000 1.0
C      1  0.5426750000000  0.4762730000000  0.5389380000000 1.0
C      1  0.5298920000000  0.5907480000000  0.4540600000000 1.0
C      1  0.5026660000000  0.5257830000000  0.4693480000000 1.0
C      1  0.5191450000000  0.4879470000000  0.4069570000000 1.0
C      1  0.5107170000000  0.5117600000000  0.3976540000000 1.0
C      1  0.5011380000000  0.4588440000000  0.4842820000000 1.0
C      1  0.4418410000000  0.5081280000000  0.5921670000000 1.0
C      1  0.4461760000000  0.3615190000000  0.4933180000000 1.0
C      1  0.3808050000000  0.5171710000000  0.4431540000000 1.0
C      1  0.5856470000000  0.6049960000000  0.5628730000000 1.0
C      1  0.4666020000000  0.5214550000000  0.4129930000000 1.0
C      1  0.4672160000000  0.4974770000000  0.4870380000000 1.0
C      1  0.5963450000000  0.5221360000000  0.6170090000000 1.0
C      1  0.5827160000000  0.6280140000000  0.5509900000000 1.0
C      1  0.4143760000000  0.4801580000000  0.4394230000000 1.0
C      1  0.5321390000000  0.4802560000000  0.4535410000000 1.0
C      1  0.5209770000000  0.5715980000000  0.4066790000000 1.0
C      1  0.4322060000000  0.5523190000000  0.4716080000000 1.0
C      1  0.6289480000000  0.4633830000000  0.4914280000000 1.0
C      1  0.4815600000000  0.5067320000000  0.5317330000000 1.0
C      1  0.5232830000000  0.4698700000000  0.4279880000000 1.0
C      1  0.4593960000000  0.5003250000000  0.5147410000000 1.0
C      1  0.5336340000000  0.4836490000000  0.5678160000000 1.0
C      1  0.4880110000000  0.4394930000000  0.4437750000000 1.0
C      1  0.5735700000000  0.4778130000000  0.5382150000000 1.0
C      1  0.4720170000000  0.5747060000000  0.5050430000000 1.0
C      1  0.5614380000000  0.4337010000000  0.4953670000000 1.0
C      1  0.6177210000000  0.4773170000000  0.5126890000000 1.0
C      1  0.4859390000000  0.5406780000000  0.4533960000000 1.0
C      1  0.3877110000000  0.5353350000000  0.4617260000000 1.0
C      1  0.5053440000000  0.5031710000000  0.5146950000000 1.0
C      1  0.5492130000000  0.4283090000000  0.5204180000000 1.0
C      1  0.5904210000000  0.4680350000000  0.5178720000000 1.0
C      1  0.4097740000000  0.5362120000000  0.4794620000000 1.0
C      1  0.5233990000000  0.5303270000000  0.5749820000000 1.0
C      1  0.4908700000000  0.5316710000000  0.4008970000000 1.0
C      1  0.4936110000000  0.5522820000000  0.5439770000000 1.0
C      1  0.5419680000000  0.5478440000000  0.5332780000000 1.0
C      1  0.5006040000000  0.4161730000000  0.5446180000000 1.0
C      1  0.4629920000000  0.4918200000000  0.5959460000000 1.0
C      1  0.5206990000000  0.3976430000000  0.5448160000000 1.0
C      1  0.4642560000000  0.4318890000000  0.4996840000000 1.0
C      1  0.4947160000000  0.5869500000000  0.4930850000000 1.0
C      1  0.3922990000000  0.4944420000000  0.4348090000000 1.0
C      1  0.4963440000000  0.5190420000000  0.5768420000000 1.0
C      1  0.5435390000000  0.5100480000000  0.5763660000000 1.0
C      1  0.4493020000000  0.5661580000000  0.4898290000000 1.0
C      1  0.4616080000000  0.4794020000000  0.4659000000000 1.0
C      1  0.6104970000000  0.4450490000000  0.4818310000000 1.0
C      1  0.5041630000000  0.4405230000000  0.5300090000000 1.0
C      1  0.4491810000000  0.5058520000000  0.3989690000000 1.0
C      1  0.5150350000000  0.4417310000000  0.4327580000000 1.0
C      1  0.4375410000000  0.3380090000000  0.5005550000000 1.0
C      1  0.4838000000000  0.5258350000000  0.5520400000000 1.0
C      1  0.4752670000000  0.4160940000000  0.4535790000000 1.0
C      1  0.4407500000000  0.5499860000000  0.4441900000000 1.0
C      1  0.5860860000000  0.4468740000000  0.4971950000000 1.0
C      1  0.4894610000000  0.4446980000000  0.5062020000000 1.0
C      1  0.5283170000000  0.4630330000000  0.4762410000000 1.0
C      1  0.4827220000000  0.4611450000000  0.4618450000000 1.0
C      1  0.5323590000000  0.5001920000000  0.5219550000000 1.0
C      1  0.5440180000000  0.4385250000000  0.4735490000000 1.0
C      1  0.4119040000000  0.4890060000000  0.5054830000000 1.0
C      1  0.5857880000000  0.5303730000000  0.5931600000000 1.0
C      1  0.4623280000000  0.5303860000000  0.4397920000000 1.0
C      1  0.4218520000000  0.4642060000000  0.5084120000000 1.0
C      1  0.5101610000000  0.4748790000000  0.5816420000000 1.0
C      1  0.5354600000000  0.4271420000000  0.4482710000000 1.0
C      1  0.4898450000000  0.4937250000000  0.5879000000000 1.0
C      1  0.5157250000000  0.5920360000000  0.4769990000000 1.0
C      1  0.4755730000000  0.5742400000000  0.4207720000000 1.0
C      1  0.4947940000000  0.5606110000000  0.4029450000000 1.0
C      1  0.5475140000000  0.5243990000000  0.5207400000000 1.0
C      1  0.5886160000000  0.5568890000000  0.5847510000000 1.0
C      1  0.4646140000000  0.4108200000000  0.4796920000000 1.0
C      1  0.5217600000000  0.5506650000000  0.5530050000000 1.0
C      1  0.4549980000000  0.3854320000000  0.4860960000000 1.0
END
