TITL C-627108-131-2036 4472.70682928003 125000 -810.1330383692 0 0 134 (C1) n - 1
REM
REM in /home/nfs/bkarasulu/CARBON/AIRSS/Generating-Clusters/LCBOP/Only-C1/SD-CG/FIRE-CG
REM
REM
REM
REM
REM
REM ./C.cell (11c1c37f851c82e70ff6c80c92926a4b)
REM AIRSS Version 0.9.1 bugfix July 2018 build 013d7b7c2542+ Fri, 06 Jul 2018 19:26:36 +0100
REM compiler GCC version 9.2.1 20190827 (Red Hat 9.2.1-1)
REM options -cpp -mtune=generic -march=x86-64 -g -O0 -fpre-include=/usr/include/finclude/math-vector-fortran.h
REM seed -453018726 2098869599 -1220811072 1800745235 637051872 -1345166797 289445372 -833048660 858508354 1796351518 -228502135 1276453849 767852361 -622277628 -1438525002 -9629781 -626979401 -2010428755 -2053878770 1895818913 2055352266 -1553250435 735598720 1345391568 1539181750 1683448526 -2111992965 1824261025 1426977827 -352862964 -619261055 -1017608109 -238287648
REM
CELL 1.54180   50.00000   50.00000   50.00000   90.00000   90.00000   90.00000
LATT -1
SFAC C  
C      1  0.4367100000000  0.4851040000000  0.4908710000000 1.0
C      1  0.5029250000000  0.5705540000000  0.4429800000000 1.0
C      1  0.4976860000000  0.4202420000000  0.4698770000000 1.0
C      1  0.4811800000000  0.5882280000000  0.4514220000000 1.0
C      1  0.5055730000000  0.4755390000000  0.5471700000000 1.0
C      1  0.5480770000000  0.5155940000000  0.4811780000000 1.0
C      1  0.4575060000000  0.5589190000000  0.5836370000000 1.0
C      1  0.5706180000000  0.4138070000000  0.4997350000000 1.0
C      1  0.4510940000000  0.5331940000000  0.4739180000000 1.0
C      1  0.5636510000000  0.4286700000000  0.4507520000000 1.0
C      1  0.5037670000000  0.5595280000000  0.4166750000000 1.0
C      1  0.4880360000000  0.5901690000000  0.5255520000000 1.0
C      1  0.4237780000000  0.4651230000000  0.5080000000000 1.0
C      1  0.4608880000000  0.4407940000000  0.5777730000000 1.0
C      1  0.6430170000000  0.5131060000000  0.5280560000000 1.0
C      1  0.4794200000000  0.4656340000000  0.4860860000000 1.0
C      1  0.4902500000000  0.5092710000000  0.4942120000000 1.0
C      1  0.4045100000000  0.5141690000000  0.5275720000000 1.0
C      1  0.5175780000000  0.3995840000000  0.5372900000000 1.0
C      1  0.4648250000000  0.4993970000000  0.4421780000000 1.0
C      1  0.4565510000000  0.5261660000000  0.5217650000000 1.0
C      1  0.5563970000000  0.5282630000000  0.4089890000000 1.0
C      1  0.5573540000000  0.4852520000000  0.4386630000000 1.0
C      1  0.5387700000000  0.5020050000000  0.5930180000000 1.0
C      1  0.4568290000000  0.4755730000000  0.4285370000000 1.0
C      1  0.4555800000000  0.5834340000000  0.4407990000000 1.0
C      1  0.5845580000000  0.4501060000000  0.5563890000000 1.0
C      1  0.4085660000000  0.5244180000000  0.4482090000000 1.0
C      1  0.4641470000000  0.4541050000000  0.5341470000000 1.0
C      1  0.4399430000000  0.5607480000000  0.4340510000000 1.0
C      1  0.4282770000000  0.5449770000000  0.4567410000000 1.0
C      1  0.5933320000000  0.4678440000000  0.4728120000000 1.0
C      1  0.4540340000000  0.4697910000000  0.4743510000000 1.0
C      1  0.4441880000000  0.4444620000000  0.5526320000000 1.0
C      1  0.4230360000000  0.5649360000000  0.5038970000000 1.0
C      1  0.4436110000000  0.5865540000000  0.5387820000000 1.0
C      1  0.4785020000000  0.5783800000000  0.5746010000000 1.0
C      1  0.5090290000000  0.5103890000000  0.4415010000000 1.0
C      1  0.4444740000000  0.5847100000000  0.5093510000000 1.0
C      1  0.4142370000000  0.4787840000000  0.5321030000000 1.0
C      1  0.5280720000000  0.5293760000000  0.4519220000000 1.0
C      1  0.5160080000000  0.5032580000000  0.5503840000000 1.0
C      1  0.5909790000000  0.4965770000000  0.4698530000000 1.0
C      1  0.4553530000000  0.5215820000000  0.5503220000000 1.0
C      1  0.5202020000000  0.4649030000000  0.3968230000000 1.0
C      1  0.6197060000000  0.4989820000000  0.5297990000000 1.0
C      1  0.5501110000000  0.5697880000000  0.4910180000000 1.0
C      1  0.5247910000000  0.5208680000000  0.5293550000000 1.0
C      1  0.4863710000000  0.6013070000000  0.4764910000000 1.0
C      1  0.5271570000000  0.5532030000000  0.4919320000000 1.0
C      1  0.5211020000000  0.5255920000000  0.5992060000000 1.0
C      1  0.5746480000000  0.5200770000000  0.4713180000000 1.0
C      1  0.5470490000000  0.4331700000000  0.4268130000000 1.0
C      1  0.5519090000000  0.5380810000000  0.4351030000000 1.0
C      1  0.3876130000000  0.5123070000000  0.4598070000000 1.0
C      1  0.4776540000000  0.5449290000000  0.4734970000000 1.0
C      1  0.5014350000000  0.5425700000000  0.5615490000000 1.0
C      1  0.5120930000000  0.6141910000000  0.4758660000000 1.0
C      1  0.6157570000000  0.4755710000000  0.5145870000000 1.0
C      1  0.4238850000000  0.4658780000000  0.5557890000000 1.0
C      1  0.5899240000000  0.4334680000000  0.5097140000000 1.0
C      1  0.4146160000000  0.5620720000000  0.4773650000000 1.0
C      1  0.4705400000000  0.5907280000000  0.5493540000000 1.0
C      1  0.4913880000000  0.4934030000000  0.5954950000000 1.0
C      1  0.4849370000000  0.4848750000000  0.5059500000000 1.0
C      1  0.6007900000000  0.4578510000000  0.4984000000000 1.0
C      1  0.5360190000000  0.5694860000000  0.5689340000000 1.0
C      1  0.4348360000000  0.4211560000000  0.4737140000000 1.0
C      1  0.5365910000000  0.6125360000000  0.4641430000000 1.0
C      1  0.5846730000000  0.4476510000000  0.4548980000000 1.0
C      1  0.5209600000000  0.4369500000000  0.4370720000000 1.0
C      1  0.5580500000000  0.5973690000000  0.4564460000000 1.0
C      1  0.4776400000000  0.4797590000000  0.5363150000000 1.0
C      1  0.5471000000000  0.5082640000000  0.3930050000000 1.0
C      1  0.4447270000000  0.5481310000000  0.4092480000000 1.0
C      1  0.5391650000000  0.4764860000000  0.4552990000000 1.0
C      1  0.5444950000000  0.4481250000000  0.4017420000000 1.0
C      1  0.4929100000000  0.4069890000000  0.5532580000000 1.0
C      1  0.4875140000000  0.5053700000000  0.4585160000000 1.0
C      1  0.4394810000000  0.4822680000000  0.5735440000000 1.0
C      1  0.5194630000000  0.4574790000000  0.4570780000000 1.0
C      1  0.5063950000000  0.5675110000000  0.5751320000000 1.0
C      1  0.4837890000000  0.5312000000000  0.5125980000000 1.0
C      1  0.4518850000000  0.4290110000000  0.4516500000000 1.0
C      1  0.5226960000000  0.4940260000000  0.3974240000000 1.0
C      1  0.5675120000000  0.4718850000000  0.5501900000000 1.0
C      1  0.5346910000000  0.5804940000000  0.5419830000000 1.0
C      1  0.4789720000000  0.4192440000000  0.4460530000000 1.0
C      1  0.5660690000000  0.5718850000000  0.4672330000000 1.0
C      1  0.5584020000000  0.5151540000000  0.5751630000000 1.0
C      1  0.5176570000000  0.4783570000000  0.5920800000000 1.0
C      1  0.5536710000000  0.5451900000000  0.5726690000000 1.0
C      1  0.3830280000000  0.5116510000000  0.5101040000000 1.0
C      1  0.5107050000000  0.5729200000000  0.5274740000000 1.0
C      1  0.5938650000000  0.4324210000000  0.5381300000000 1.0
C      1  0.4958560000000  0.4309580000000  0.4243090000000 1.0
C      1  0.4244690000000  0.5674110000000  0.5503490000000 1.0
C      1  0.5720330000000  0.5457790000000  0.4552400000000 1.0
C      1  0.4721630000000  0.5933090000000  0.5006120000000 1.0
C      1  0.4435270000000  0.5142730000000  0.4963560000000 1.0
C      1  0.5232360000000  0.4103730000000  0.4829680000000 1.0
C      1  0.5174320000000  0.4133020000000  0.5113830000000 1.0
C      1  0.5056530000000  0.4382400000000  0.5168490000000 1.0
C      1  0.4709790000000  0.4798060000000  0.6086860000000 1.0
C      1  0.4345500000000  0.4302880000000  0.5014090000000 1.0
C      1  0.5094340000000  0.5508900000000  0.4662560000000 1.0
C      1  0.4621660000000  0.5322750000000  0.5761870000000 1.0
C      1  0.4931920000000  0.5357410000000  0.4044140000000 1.0
C      1  0.5484300000000  0.4656680000000  0.5301380000000 1.0
C      1  0.4698140000000  0.4667690000000  0.4051950000000 1.0
C      1  0.4989100000000  0.4498050000000  0.4745880000000 1.0
C      1  0.4531330000000  0.4652340000000  0.5930500000000 1.0
C      1  0.5349380000000  0.5266300000000  0.5029990000000 1.0
C      1  0.4572490000000  0.4152730000000  0.5160880000000 1.0
C      1  0.4672400000000  0.3986310000000  0.5384110000000 1.0
C      1  0.3770410000000  0.5090450000000  0.4841740000000 1.0
C      1  0.4300760000000  0.5652650000000  0.5780290000000 1.0
C      1  0.4151130000000  0.5484740000000  0.5289140000000 1.0
C      1  0.5524920000000  0.4158440000000  0.4759070000000 1.0
C      1  0.4661030000000  0.5374560000000  0.3968460000000 1.0
C      1  0.4585140000000  0.4942120000000  0.5547290000000 1.0
C      1  0.5051450000000  0.5108890000000  0.4129700000000 1.0
C      1  0.5212830000000  0.4594310000000  0.5276440000000 1.0
C      1  0.5036240000000  0.5430420000000  0.5316910000000 1.0
C      1  0.5988260000000  0.5074640000000  0.5467480000000 1.0
C      1  0.5631020000000  0.3940590000000  0.5196660000000 1.0
C      1  0.5084070000000  0.4575420000000  0.5726370000000 1.0
C      1  0.5439070000000  0.3886690000000  0.5384440000000 1.0
C      1  0.4773140000000  0.4364580000000  0.5173970000000 1.0
C      1  0.5745180000000  0.4987430000000  0.5579660000000 1.0
C      1  0.4939970000000  0.4520410000000  0.4039020000000 1.0
C      1  0.4496380000000  0.4574810000000  0.4490610000000 1.0
C      1  0.4972250000000  0.5191580000000  0.5810040000000 1.0
C      1  0.4897150000000  0.4329750000000  0.5717050000000 1.0
END
