TITL C-627110-360-1478 0.808493463686479 125000 -287.791913727113 0 0 49 (C1) n - 1
REM
REM in /home/nfs/bkarasulu/CARBON/AIRSS/Generating-Clusters/LCBOP/Only-C1/SD-CG/FIRE-CG
REM
REM
REM
REM
REM
REM ./C.cell (11c1c37f851c82e70ff6c80c92926a4b)
REM AIRSS Version 0.9.1 bugfix July 2018 build 013d7b7c2542+ Fri, 06 Jul 2018 19:26:36 +0100
REM compiler GCC version 9.2.1 20190827 (Red Hat 9.2.1-1)
REM options -cpp -mtune=generic -march=x86-64 -g -O0 -fpre-include=/usr/include/finclude/math-vector-fortran.h
REM seed 509539023 1376330133 -1851590367 1569745330 -42274601 1332107511 -1757761575 1062667477 -1305515867 2055522820 -386177624 2119693599 -637027726 240054042 1011560174 -445787638 482114787 2032757214 -1102348438 935296707 -1613643558 -586537272 2078111495 130748774 1257888355 -1297693832 -1426851459 227521009 87878349 -72257533 -1567028457 -782592640 -1807562324
REM
CELL 1.54180   50.00000   50.00000   50.00000   90.00000   90.00000   90.00000
LATT -1
SFAC C  
C      1  0.5301740000000  0.5437410000000  0.5541940000000 1.0
C      1  0.5041420000000  0.5127240000000  0.4758800000000 1.0
C      1  0.4861630000000  0.5719670000000  0.4932700000000 1.0
C      1  0.5335350000000  0.4202450000000  0.5957090000000 1.0
C      1  0.4578860000000  0.5176050000000  0.4441340000000 1.0
C      1  0.4712650000000  0.5637050000000  0.4463530000000 1.0
C      1  0.5143230000000  0.5270630000000  0.5419570000000 1.0
C      1  0.4060470000000  0.4837460000000  0.5155590000000 1.0
C      1  0.4724030000000  0.5790530000000  0.5398350000000 1.0
C      1  0.5480750000000  0.4888350000000  0.4730860000000 1.0
C      1  0.5331070000000  0.4786990000000  0.4511270000000 1.0
C      1  0.4644860000000  0.5413920000000  0.4300950000000 1.0
C      1  0.5219080000000  0.4668530000000  0.5091950000000 1.0
C      1  0.5141860000000  0.5706100000000  0.4921250000000 1.0
C      1  0.4729420000000  0.5111730000000  0.5160640000000 1.0
C      1  0.4593690000000  0.6043060000000  0.4692380000000 1.0
C      1  0.5843250000000  0.4218460000000  0.5895650000000 1.0
C      1  0.5122800000000  0.4303930000000  0.5834440000000 1.0
C      1  0.4314420000000  0.4809230000000  0.5056400000000 1.0
C      1  0.4351600000000  0.4712770000000  0.4793220000000 1.0
C      1  0.4864070000000  0.4785380000000  0.4327510000000 1.0
C      1  0.4432790000000  0.4732860000000  0.4537800000000 1.0
C      1  0.4901530000000  0.4630710000000  0.5468570000000 1.0
C      1  0.4643440000000  0.5428630000000  0.4023400000000 1.0
C      1  0.4608320000000  0.4895610000000  0.4382560000000 1.0
C      1  0.4723670000000  0.5636490000000  0.5172700000000 1.0
C      1  0.5582670000000  0.5150050000000  0.4723220000000 1.0
C      1  0.5079230000000  0.4481440000000  0.4930900000000 1.0
C      1  0.5014870000000  0.4473880000000  0.4669370000000 1.0
C      1  0.4562110000000  0.5214320000000  0.4719710000000 1.0
C      1  0.5898390000000  0.4612070000000  0.5284810000000 1.0
C      1  0.4580730000000  0.5389420000000  0.5159540000000 1.0
C      1  0.4792040000000  0.5105870000000  0.4860100000000 1.0
C      1  0.4417170000000  0.5363040000000  0.4915170000000 1.0
C      1  0.4984750000000  0.4448180000000  0.5659900000000 1.0
C      1  0.5077330000000  0.4666070000000  0.4470140000000 1.0
C      1  0.4994850000000  0.5067780000000  0.5300260000000 1.0
C      1  0.5597600000000  0.4168980000000  0.5985070000000 1.0
C      1  0.4630960000000  0.4692950000000  0.5416240000000 1.0
C      1  0.4721510000000  0.5800370000000  0.4694890000000 1.0
C      1  0.4537780000000  0.4878880000000  0.5221740000000 1.0
C      1  0.5993870000000  0.4336140000000  0.5710590000000 1.0
C      1  0.6007930000000  0.4481160000000  0.5488230000000 1.0
C      1  0.5471100000000  0.4756440000000  0.4987010000000 1.0
C      1  0.5378870000000  0.5603650000000  0.4857310000000 1.0
C      1  0.5540980000000  0.5407290000000  0.4779350000000 1.0
C      1  0.4643520000000  0.5434620000000  0.3762870000000 1.0
C      1  0.5708270000000  0.4705590000000  0.5125370000000 1.0
C      1  0.5077450000000  0.4790550000000  0.5307750000000 1.0
END
