TITL C-627110-360-1227 -0.266893087840294 125000 -245.109455927035 0 0 43 (C1) n - 1
REM
REM in /home/nfs/bkarasulu/CARBON/AIRSS/Generating-Clusters/LCBOP/Only-C1/SD-CG/FIRE-CG
REM
REM
REM
REM
REM
REM ./C.cell (11c1c37f851c82e70ff6c80c92926a4b)
REM AIRSS Version 0.9.1 bugfix July 2018 build 013d7b7c2542+ Fri, 06 Jul 2018 19:26:36 +0100
REM compiler GCC version 9.2.1 20190827 (Red Hat 9.2.1-1)
REM options -cpp -mtune=generic -march=x86-64 -g -O0 -fpre-include=/usr/include/finclude/math-vector-fortran.h
REM seed -219429313 -138483562 -716317154 393683368 470064367 -287202505 -229532843 -1840042258 -119974008 442423722 -1384812241 1266026635 2074558805 456974780 1455659004 -1518568132 1219058331 722197444 -1490023808 -490055736 -948683367 -136591806 -443147033 788333072 -1270225317 446125638 -242321505 -1916569030 -1774080294 893183873 745768271 -2123962806 273404938
REM
CELL 1.54180   50.00000   50.00000   50.00000   90.00000   90.00000   90.00000
LATT -1
SFAC C  
C      1  0.4482910000000  0.5449820000000  0.5231760000000 1.0
C      1  0.4548140000000  0.5345290000000  0.4974120000000 1.0
C      1  0.4216020000000  0.4999570000000  0.4315070000000 1.0
C      1  0.4570880000000  0.4888960000000  0.5152420000000 1.0
C      1  0.4665990000000  0.5624770000000  0.5352290000000 1.0
C      1  0.5590450000000  0.4890240000000  0.5135960000000 1.0
C      1  0.4859390000000  0.4825200000000  0.4600040000000 1.0
C      1  0.5515010000000  0.5153550000000  0.5095400000000 1.0
C      1  0.5188050000000  0.4590300000000  0.5453200000000 1.0
C      1  0.5216970000000  0.4816270000000  0.5601390000000 1.0
C      1  0.5399930000000  0.5560510000000  0.4888530000000 1.0
C      1  0.4895840000000  0.5758950000000  0.5347580000000 1.0
C      1  0.4582720000000  0.5065100000000  0.4935320000000 1.0
C      1  0.5600790000000  0.4533550000000  0.4600580000000 1.0
C      1  0.4619220000000  0.4960210000000  0.4672470000000 1.0
C      1  0.4593280000000  0.4702450000000  0.5339470000000 1.0
C      1  0.4912600000000  0.4578820000000  0.4708270000000 1.0
C      1  0.5641660000000  0.4498950000000  0.4862560000000 1.0
C      1  0.4579720000000  0.5518980000000  0.4764100000000 1.0
C      1  0.5131130000000  0.5793430000000  0.5202920000000 1.0
C      1  0.4245990000000  0.5387840000000  0.5353240000000 1.0
C      1  0.5416100000000  0.5337570000000  0.5294890000000 1.0
C      1  0.5322170000000  0.5581140000000  0.5179380000000 1.0
C      1  0.4409540000000  0.4977040000000  0.4488130000000 1.0
C      1  0.4945580000000  0.5044830000000  0.4169570000000 1.0
C      1  0.5296790000000  0.4199000000000  0.5240400000000 1.0
C      1  0.5433990000000  0.5155340000000  0.4600870000000 1.0
C      1  0.5300470000000  0.5802710000000  0.4773790000000 1.0
C      1  0.4543300000000  0.4400160000000  0.5716750000000 1.0
C      1  0.4404370000000  0.4296630000000  0.5911420000000 1.0
C      1  0.5035670000000  0.6202550000000  0.4922500000000 1.0
C      1  0.5144440000000  0.5957450000000  0.4961730000000 1.0
C      1  0.5470330000000  0.4704040000000  0.4441140000000 1.0
C      1  0.4890380000000  0.3925490000000  0.5349200000000 1.0
C      1  0.5558540000000  0.4613010000000  0.5105710000000 1.0
C      1  0.4958460000000  0.4413040000000  0.5462200000000 1.0
C      1  0.4696140000000  0.4503710000000  0.5507760000000 1.0
C      1  0.5039560000000  0.4938760000000  0.4410050000000 1.0
C      1  0.4857820000000  0.5148410000000  0.3947130000000 1.0
C      1  0.5033530000000  0.4155370000000  0.5350210000000 1.0
C      1  0.5387040000000  0.4471350000000  0.5276350000000 1.0
C      1  0.5480610000000  0.5290600000000  0.4838790000000 1.0
C      1  0.5318490000000  0.4939040000000  0.4465300000000 1.0
END
