TITL C-627106-156-1419 0.0112509026978356 125000 -775.252043929938 0 0 127 (C1) n - 1
REM
REM in /home/nfs/bkarasulu/CARBON/AIRSS/Generating-Clusters/LCBOP/Only-C1/SD-CG/FIRE-CG
REM
REM
REM
REM
REM
REM ./C.cell (11c1c37f851c82e70ff6c80c92926a4b)
REM AIRSS Version 0.9.1 bugfix July 2018 build 013d7b7c2542+ Fri, 06 Jul 2018 19:26:36 +0100
REM compiler GCC version 9.2.1 20190827 (Red Hat 9.2.1-1)
REM options -cpp -mtune=generic -march=x86-64 -g -O0 -fpre-include=/usr/include/finclude/math-vector-fortran.h
REM seed 1163491961 -2125723002 1598685251 -1782835022 -1456131329 -749595346 -818854905 -1831383113 -1649136113 612138439 -53621099 -313311668 1608760842 -4047451 1107926036 -1423797688 -1415962889 -446987906 -837440134 -1506829072 -1037926145 -1889479432 -831700020 1581476511 -273337409 -1402571916 -1064189471 -695824175 -1597102953 -1141290671 -861947736 -1202766941 1099646413
REM
CELL 1.54180   50.00000   50.00000   50.00000   90.00000   90.00000   90.00000
LATT -1
SFAC C  
C      1  0.5713060000000  0.5091430000000  0.4862580000000 1.0
C      1  0.5223450000000  0.4618900000000  0.4671530000000 1.0
C      1  0.4828820000000  0.4385520000000  0.5426740000000 1.0
C      1  0.4420140000000  0.4235830000000  0.4619640000000 1.0
C      1  0.5316840000000  0.5387170000000  0.4761170000000 1.0
C      1  0.4305750000000  0.4380480000000  0.5692670000000 1.0
C      1  0.6012990000000  0.4805140000000  0.5465730000000 1.0
C      1  0.5247230000000  0.5449850000000  0.5621740000000 1.0
C      1  0.5748140000000  0.5286480000000  0.5331770000000 1.0
C      1  0.6010880000000  0.4164710000000  0.5253090000000 1.0
C      1  0.5006940000000  0.4554440000000  0.5907990000000 1.0
C      1  0.4806450000000  0.5153170000000  0.4598850000000 1.0
C      1  0.5466350000000  0.4465580000000  0.4687860000000 1.0
C      1  0.4745350000000  0.4766890000000  0.4175580000000 1.0
C      1  0.4767940000000  0.4990990000000  0.4821620000000 1.0
C      1  0.5542560000000  0.5226050000000  0.5928050000000 1.0
C      1  0.4790630000000  0.4116320000000  0.5509790000000 1.0
C      1  0.5935950000000  0.4427910000000  0.4562750000000 1.0
C      1  0.5319440000000  0.5532750000000  0.5366850000000 1.0
C      1  0.5536070000000  0.4564430000000  0.4245500000000 1.0
C      1  0.5326360000000  0.5122230000000  0.5152810000000 1.0
C      1  0.5047110000000  0.4550730000000  0.4454660000000 1.0
C      1  0.4975220000000  0.4108730000000  0.4189590000000 1.0
C      1  0.4983950000000  0.6010810000000  0.4346500000000 1.0
C      1  0.4550880000000  0.5515810000000  0.5353830000000 1.0
C      1  0.4793180000000  0.5808550000000  0.4381120000000 1.0
C      1  0.5277060000000  0.5318980000000  0.5871610000000 1.0
C      1  0.3758460000000  0.6051910000000  0.4592440000000 1.0
C      1  0.5324120000000  0.4759200000000  0.4156290000000 1.0
C      1  0.4489140000000  0.3813090000000  0.4913160000000 1.0
C      1  0.5154890000000  0.5636320000000  0.5160020000000 1.0
C      1  0.5778260000000  0.4836940000000  0.4738060000000 1.0
C      1  0.5124860000000  0.5925200000000  0.5182950000000 1.0
C      1  0.6052210000000  0.4453640000000  0.4826920000000 1.0
C      1  0.4630160000000  0.5011560000000  0.4090070000000 1.0
C      1  0.5134810000000  0.4671290000000  0.4926560000000 1.0
C      1  0.4764310000000  0.3900040000000  0.5336420000000 1.0
C      1  0.5627880000000  0.5164270000000  0.4112450000000 1.0
C      1  0.3924030000000  0.5846450000000  0.4615150000000 1.0
C      1  0.4528600000000  0.4591220000000  0.4923500000000 1.0
C      1  0.5807990000000  0.5861480000000  0.4961350000000 1.0
C      1  0.4385700000000  0.4945490000000  0.5427330000000 1.0
C      1  0.4549380000000  0.5832640000000  0.4527090000000 1.0
C      1  0.5756810000000  0.5392640000000  0.5821170000000 1.0
C      1  0.5495920000000  0.4809280000000  0.5445520000000 1.0
C      1  0.5384380000000  0.5038010000000  0.4164300000000 1.0
C      1  0.4298910000000  0.4497370000000  0.4741540000000 1.0
C      1  0.4064480000000  0.4508420000000  0.4928610000000 1.0
C      1  0.5635680000000  0.5824110000000  0.5179330000000 1.0
C      1  0.4106330000000  0.5636610000000  0.4646730000000 1.0
C      1  0.4848530000000  0.4653600000000  0.5439520000000 1.0
C      1  0.4017100000000  0.5530650000000  0.5335850000000 1.0
C      1  0.4953040000000  0.5293190000000  0.4402840000000 1.0
C      1  0.4559010000000  0.4596140000000  0.4323680000000 1.0
C      1  0.5651750000000  0.4948850000000  0.5880080000000 1.0
C      1  0.4415120000000  0.5340470000000  0.5161480000000 1.0
C      1  0.5721310000000  0.5837830000000  0.4439380000000 1.0
C      1  0.4438890000000  0.4922080000000  0.5688110000000 1.0
C      1  0.4175350000000  0.4390690000000  0.5455400000000 1.0
C      1  0.4374700000000  0.5428630000000  0.4291300000000 1.0
C      1  0.5798560000000  0.5623950000000  0.4275360000000 1.0
C      1  0.4716330000000  0.4565730000000  0.5919390000000 1.0
C      1  0.4686000000000  0.4105260000000  0.5772160000000 1.0
C      1  0.5350820000000  0.4578140000000  0.5522650000000 1.0
C      1  0.4558900000000  0.6013040000000  0.4743260000000 1.0
C      1  0.3821240000000  0.4952450000000  0.4795520000000 1.0
C      1  0.5687680000000  0.4606640000000  0.4528520000000 1.0
C      1  0.4722310000000  0.4379200000000  0.4958110000000 1.0
C      1  0.5451410000000  0.4267930000000  0.4283180000000 1.0
C      1  0.5319820000000  0.4381420000000  0.5316040000000 1.0
C      1  0.4780120000000  0.5379880000000  0.5987090000000 1.0
C      1  0.3593650000000  0.6258370000000  0.4570790000000 1.0
C      1  0.4398890000000  0.3980750000000  0.4726670000000 1.0
C      1  0.4984780000000  0.4249480000000  0.4934560000000 1.0
C      1  0.4693040000000  0.5750750000000  0.5292970000000 1.0
C      1  0.4568770000000  0.5463600000000  0.5845400000000 1.0
C      1  0.4626270000000  0.4329970000000  0.4433800000000 1.0
C      1  0.3893550000000  0.5207340000000  0.4768680000000 1.0
C      1  0.5479140000000  0.4731140000000  0.5947280000000 1.0
C      1  0.5746950000000  0.4075130000000  0.5287020000000 1.0
C      1  0.4944540000000  0.4905960000000  0.5417710000000 1.0
C      1  0.5088940000000  0.4150060000000  0.4673890000000 1.0
C      1  0.5496410000000  0.4162950000000  0.5314120000000 1.0
C      1  0.5181580000000  0.5193850000000  0.4278680000000 1.0
C      1  0.6131570000000  0.4301850000000  0.5467080000000 1.0
C      1  0.4921770000000  0.4268650000000  0.4441510000000 1.0
C      1  0.5033860000000  0.4704350000000  0.4213870000000 1.0
C      1  0.5502230000000  0.5997790000000  0.4366420000000 1.0
C      1  0.4704140000000  0.6085920000000  0.4957030000000 1.0
C      1  0.5037290000000  0.5307540000000  0.6017990000000 1.0
C      1  0.5880740000000  0.5256430000000  0.5601310000000 1.0
C      1  0.4584360000000  0.4813780000000  0.5885920000000 1.0
C      1  0.5402980000000  0.6006950000000  0.5203240000000 1.0
C      1  0.4329470000000  0.4676590000000  0.4489260000000 1.0
C      1  0.4048270000000  0.5431600000000  0.4836460000000 1.0
C      1  0.5446600000000  0.5181450000000  0.4896370000000 1.0
C      1  0.5977960000000  0.4711530000000  0.4935670000000 1.0
C      1  0.4840450000000  0.5962180000000  0.5169490000000 1.0
C      1  0.5887750000000  0.5142140000000  0.5100940000000 1.0
C      1  0.4542500000000  0.4882100000000  0.4959020000000 1.0
C      1  0.5245430000000  0.6063640000000  0.4341850000000 1.0
C      1  0.5602230000000  0.5558530000000  0.5299340000000 1.0
C      1  0.5064160000000  0.5033380000000  0.5197370000000 1.0
C      1  0.5769380000000  0.5385110000000  0.4161340000000 1.0
C      1  0.4545810000000  0.4339870000000  0.5847720000000 1.0
C      1  0.4636260000000  0.3784470000000  0.5133490000000 1.0
C      1  0.3431570000000  0.6461440000000  0.4549500000000 1.0
C      1  0.4474960000000  0.5224150000000  0.4148210000000 1.0
C      1  0.6004740000000  0.4877750000000  0.5178700000000 1.0
C      1  0.4420250000000  0.5515180000000  0.5613530000000 1.0
C      1  0.4343250000000  0.5633960000000  0.4486010000000 1.0
C      1  0.6099480000000  0.4236170000000  0.4995410000000 1.0
C      1  0.5273090000000  0.4591270000000  0.5802890000000 1.0
C      1  0.3867650000000  0.4698590000000  0.4862770000000 1.0
C      1  0.4096670000000  0.4416000000000  0.5198050000000 1.0
C      1  0.4877090000000  0.5549270000000  0.4327400000000 1.0
C      1  0.5375720000000  0.4208250000000  0.4570240000000 1.0
C      1  0.5830840000000  0.5866000000000  0.4695990000000 1.0
C      1  0.4994040000000  0.4904970000000  0.4960100000000 1.0
C      1  0.4438760000000  0.5050880000000  0.5170790000000 1.0
C      1  0.4138570000000  0.5548370000000  0.5581020000000 1.0
C      1  0.5884240000000  0.4966430000000  0.5672270000000 1.0
C      1  0.4151150000000  0.5441890000000  0.5099300000000 1.0
C      1  0.5146440000000  0.5546030000000  0.4894530000000 1.0
C      1  0.6128520000000  0.4559660000000  0.5538090000000 1.0
C      1  0.5508180000000  0.5073550000000  0.5356300000000 1.0
C      1  0.5159010000000  0.4432150000000  0.5087170000000 1.0
END
