TITL C-627112-676-1606 7.95539065521123e-06 125000 -474.043642313069 0 0 79 (C1) n - 1
REM
REM in /home/nfs/bkarasulu/CARBON/AIRSS/Generating-Clusters/LCBOP/Only-C1/SD-CG/FIRE-CG
REM
REM
REM
REM
REM
REM ./C.cell (11c1c37f851c82e70ff6c80c92926a4b)
REM AIRSS Version 0.9.1 bugfix July 2018 build 013d7b7c2542+ Fri, 06 Jul 2018 19:26:36 +0100
REM compiler GCC version 9.2.1 20190827 (Red Hat 9.2.1-1)
REM options -cpp -mtune=generic -march=x86-64 -g -O0 -fpre-include=/usr/include/finclude/math-vector-fortran.h
REM seed 2024568534 -897077185 -241428460 266946756 136454463 -1469688365 1702335841 1297131247 478341416 50939263 396399 1464376383 1311651126 1041272379 331529850 1946175038 -1943411934 268274280 -1173111685 686847032 -462012875 -604996455 -888809143 -842178383 125310845 -128799413 1642464282 544432551 -657978187 -388826378 -812333175 -1978763248 63437841
REM
CELL 1.54180   50.00000   50.00000   50.00000   90.00000   90.00000   90.00000
LATT -1
SFAC C  
C      1  0.4869810000000  0.5020060000000  0.3837170000000 1.0
C      1  0.4339960000000  0.4929360000000  0.4830640000000 1.0
C      1  0.4551180000000  0.5184340000000  0.5215940000000 1.0
C      1  0.4871400000000  0.4279490000000  0.5033960000000 1.0
C      1  0.5303730000000  0.4899630000000  0.4517180000000 1.0
C      1  0.5038600000000  0.4131310000000  0.4533300000000 1.0
C      1  0.4481740000000  0.5188700000000  0.4437650000000 1.0
C      1  0.5981420000000  0.4718990000000  0.4296730000000 1.0
C      1  0.5238660000000  0.4552420000000  0.4971360000000 1.0
C      1  0.5269880000000  0.4997020000000  0.5190160000000 1.0
C      1  0.4821830000000  0.4323040000000  0.4527730000000 1.0
C      1  0.5327790000000  0.5138160000000  0.5832950000000 1.0
C      1  0.5091460000000  0.5196750000000  0.3867940000000 1.0
C      1  0.4279440000000  0.5122620000000  0.5249340000000 1.0
C      1  0.4663390000000  0.5221910000000  0.4224890000000 1.0
C      1  0.5044170000000  0.4882110000000  0.4660730000000 1.0
C      1  0.4728590000000  0.4295800000000  0.5277370000000 1.0
C      1  0.4947200000000  0.5612250000000  0.4434520000000 1.0
C      1  0.4836760000000  0.5076510000000  0.4727170000000 1.0
C      1  0.5315360000000  0.4961910000000  0.4242590000000 1.0
C      1  0.6178940000000  0.4666070000000  0.4135040000000 1.0
C      1  0.5365080000000  0.5258090000000  0.5277060000000 1.0
C      1  0.4788660000000  0.5072970000000  0.5231240000000 1.0
C      1  0.4358060000000  0.4564640000000  0.5185510000000 1.0
C      1  0.5594570000000  0.5263570000000  0.5448090000000 1.0
C      1  0.4911530000000  0.4652050000000  0.5665890000000 1.0
C      1  0.3696400000000  0.5299420000000  0.4823950000000 1.0
C      1  0.4243840000000  0.4987540000000  0.5497270000000 1.0
C      1  0.5535280000000  0.5301950000000  0.5722450000000 1.0
C      1  0.4964200000000  0.5471280000000  0.5713710000000 1.0
C      1  0.4732860000000  0.4483320000000  0.4311040000000 1.0
C      1  0.5014260000000  0.4925660000000  0.5271870000000 1.0
C      1  0.5009320000000  0.5449100000000  0.3971770000000 1.0
C      1  0.4636040000000  0.5701200000000  0.4892780000000 1.0
C      1  0.4680470000000  0.5422370000000  0.5635550000000 1.0
C      1  0.5013210000000  0.4646660000000  0.4808440000000 1.0
C      1  0.5240770000000  0.5685740000000  0.4454440000000 1.0
C      1  0.5229210000000  0.5321120000000  0.4718840000000 1.0
C      1  0.5396390000000  0.4771380000000  0.5059330000000 1.0
C      1  0.5171940000000  0.4404520000000  0.6308860000000 1.0
C      1  0.5143330000000  0.4676740000000  0.5839040000000 1.0
C      1  0.4618040000000  0.4663420000000  0.5617370000000 1.0
C      1  0.5619170000000  0.4852000000000  0.4910920000000 1.0
C      1  0.5187080000000  0.5473730000000  0.5280440000000 1.0
C      1  0.4831880000000  0.5108800000000  0.5952610000000 1.0
C      1  0.4161670000000  0.5090990000000  0.4992740000000 1.0
C      1  0.5341140000000  0.5904540000000  0.4324010000000 1.0
C      1  0.4807560000000  0.4443050000000  0.4790670000000 1.0
C      1  0.5171280000000  0.4262220000000  0.4993710000000 1.0
C      1  0.5774990000000  0.5042680000000  0.5063080000000 1.0
C      1  0.5779600000000  0.4774800000000  0.4459010000000 1.0
C      1  0.4579440000000  0.5588460000000  0.5419210000000 1.0
C      1  0.5126530000000  0.5599120000000  0.5523720000000 1.0
C      1  0.5182800000000  0.4278030000000  0.6536550000000 1.0
C      1  0.5569540000000  0.4844420000000  0.4630550000000 1.0
C      1  0.5667750000000  0.5471520000000  0.4745590000000 1.0
C      1  0.4994180000000  0.5453530000000  0.5085120000000 1.0
C      1  0.5731570000000  0.5015900000000  0.5366330000000 1.0
C      1  0.5363640000000  0.4855540000000  0.5755770000000 1.0
C      1  0.5160450000000  0.4533690000000  0.6077860000000 1.0
C      1  0.5308810000000  0.5077940000000  0.4001670000000 1.0
C      1  0.5209790000000  0.4107410000000  0.4750410000000 1.0
C      1  0.4687870000000  0.4714140000000  0.4178120000000 1.0
C      1  0.4473800000000  0.4921310000000  0.5659330000000 1.0
C      1  0.4849980000000  0.5452110000000  0.4209670000000 1.0
C      1  0.4550330000000  0.5053250000000  0.4676490000000 1.0
C      1  0.5792760000000  0.5299470000000  0.4921860000000 1.0
C      1  0.4613760000000  0.5153100000000  0.5764570000000 1.0
C      1  0.5410350000000  0.5513240000000  0.4623340000000 1.0
C      1  0.5596480000000  0.4818110000000  0.5560500000000 1.0
C      1  0.4572620000000  0.5686620000000  0.5161430000000 1.0
C      1  0.4949460000000  0.5343120000000  0.4814360000000 1.0
C      1  0.5008000000000  0.4682720000000  0.5401790000000 1.0
C      1  0.4712280000000  0.4976840000000  0.4070260000000 1.0
C      1  0.4349040000000  0.4667190000000  0.4936020000000 1.0
C      1  0.3920580000000  0.5196700000000  0.4908200000000 1.0
C      1  0.4805420000000  0.5581990000000  0.4689390000000 1.0
C      1  0.5070390000000  0.5252510000000  0.5880120000000 1.0
C      1  0.4543300000000  0.4488030000000  0.5385740000000 1.0
END
