TITL C-627110-360-746 147.002859873093 125000 -766.035747812192 0 0 124 (C1) n - 1
REM
REM in /home/nfs/bkarasulu/CARBON/AIRSS/Generating-Clusters/LCBOP/Only-C1/SD-CG/FIRE-CG
REM
REM
REM
REM
REM
REM ./C.cell (11c1c37f851c82e70ff6c80c92926a4b)
REM AIRSS Version 0.9.1 bugfix July 2018 build 013d7b7c2542+ Fri, 06 Jul 2018 19:26:36 +0100
REM compiler GCC version 9.2.1 20190827 (Red Hat 9.2.1-1)
REM options -cpp -mtune=generic -march=x86-64 -g -O0 -fpre-include=/usr/include/finclude/math-vector-fortran.h
REM seed -865737776 1027562950 2091434105 1832448343 -800368352 681288218 401181309 -1909115612 -1092079907 -905177759 -443123626 1596626568 -1478918140 -61800142 523230378 1487427715 1491781037 1219041440 -214294283 -617072327 -446931105 1481657054 -550103777 -1434702471 -1283670532 -1495852463 601812290 -376442368 23468810 -181626936 2006921145 -910937098 -627255202
REM
CELL 1.54180   50.00000   50.00000   50.00000   90.00000   90.00000   90.00000
LATT -1
SFAC C  
C      1  0.5213420000000  0.5991960000000  0.4540490000000 1.0
C      1  0.4402500000000  0.4393020000000  0.4755510000000 1.0
C      1  0.5534820000000  0.4418520000000  0.5212290000000 1.0
C      1  0.4928840000000  0.4352480000000  0.4779290000000 1.0
C      1  0.4386940000000  0.4520580000000  0.4500250000000 1.0
C      1  0.5843780000000  0.5223550000000  0.4522190000000 1.0
C      1  0.5302520000000  0.4964660000000  0.4158920000000 1.0
C      1  0.4881750000000  0.5306140000000  0.3836460000000 1.0
C      1  0.5752790000000  0.4460900000000  0.6322600000000 1.0
C      1  0.4922510000000  0.4557540000000  0.5412820000000 1.0
C      1  0.5885970000000  0.5111180000000  0.5463820000000 1.0
C      1  0.4987780000000  0.4652760000000  0.5163810000000 1.0
C      1  0.4800190000000  0.6104900000000  0.4308590000000 1.0
C      1  0.4904620000000  0.5819480000000  0.5277800000000 1.0
C      1  0.5864040000000  0.5399930000000  0.5444340000000 1.0
C      1  0.5426150000000  0.4553030000000  0.4355650000000 1.0
C      1  0.5399240000000  0.5447410000000  0.4203530000000 1.0
C      1  0.5177580000000  0.5018850000000  0.5670520000000 1.0
C      1  0.5604640000000  0.4256210000000  0.4724550000000 1.0
C      1  0.5191600000000  0.5757600000000  0.5248780000000 1.0
C      1  0.3930850000000  0.5389630000000  0.5460730000000 1.0
C      1  0.4859010000000  0.4092400000000  0.5258330000000 1.0
C      1  0.4472770000000  0.5372240000000  0.5135300000000 1.0
C      1  0.4258980000000  0.4784790000000  0.4492900000000 1.0
C      1  0.5525550000000  0.4762000000000  0.4534580000000 1.0
C      1  0.4335790000000  0.4639860000000  0.5157170000000 1.0
C      1  0.3898610000000  0.4835840000000  0.4885990000000 1.0
C      1  0.6015310000000  0.4562390000000  0.4674210000000 1.0
C      1  0.4997120000000  0.4817180000000  0.6064700000000 1.0
C      1  0.4292130000000  0.5256000000000  0.4423050000000 1.0
C      1  0.5426300000000  0.5148170000000  0.5056030000000 1.0
C      1  0.4365320000000  0.4472280000000  0.5405610000000 1.0
C      1  0.5115430000000  0.5490440000000  0.4221340000000 1.0
C      1  0.4605210000000  0.4566400000000  0.5924490000000 1.0
C      1  0.4562130000000  0.4415260000000  0.4299750000000 1.0
C      1  0.4951560000000  0.5529090000000  0.3991150000000 1.0
C      1  0.4100130000000  0.5221500000000  0.4647040000000 1.0
C      1  0.4507470000000  0.4561090000000  0.5645150000000 1.0
C      1  0.4961830000000  0.5503990000000  0.5845400000000 1.0
C      1  0.3834320000000  0.5168990000000  0.5325260000000 1.0
C      1  0.5858180000000  0.5482100000000  0.5157790000000 1.0
C      1  0.4419760000000  0.4995840000000  0.4355470000000 1.0
C      1  0.5157780000000  0.4210930000000  0.4901680000000 1.0
C      1  0.4915860000000  0.5057270000000  0.5003860000000 1.0
C      1  0.5505380000000  0.5177930000000  0.4139680000000 1.0
C      1  0.5259830000000  0.4667240000000  0.4136240000000 1.0
C      1  0.4641360000000  0.5802710000000  0.5368550000000 1.0
C      1  0.4197530000000  0.5449440000000  0.5111230000000 1.0
C      1  0.4969420000000  0.4276140000000  0.5438240000000 1.0
C      1  0.4407150000000  0.4205380000000  0.5301090000000 1.0
C      1  0.5439780000000  0.5852680000000  0.4485420000000 1.0
C      1  0.5519020000000  0.4435660000000  0.5517600000000 1.0
C      1  0.3939680000000  0.4556280000000  0.4916190000000 1.0
C      1  0.5639370000000  0.5407050000000  0.4615410000000 1.0
C      1  0.4696290000000  0.4924900000000  0.4299640000000 1.0
C      1  0.5341100000000  0.5286930000000  0.5301990000000 1.0
C      1  0.4826100000000  0.4382280000000  0.6011900000000 1.0
C      1  0.3823710000000  0.4996790000000  0.5113620000000 1.0
C      1  0.5065350000000  0.4540690000000  0.6079210000000 1.0
C      1  0.5545040000000  0.4445300000000  0.6166060000000 1.0
C      1  0.4650120000000  0.4277050000000  0.4859310000000 1.0
C      1  0.4772550000000  0.4813320000000  0.5084480000000 1.0
C      1  0.4819110000000  0.5072220000000  0.4738090000000 1.0
C      1  0.4712480000000  0.4847240000000  0.5997320000000 1.0
C      1  0.4812020000000  0.4849980000000  0.4046330000000 1.0
C      1  0.5176260000000  0.5415340000000  0.4712800000000 1.0
C      1  0.5964650000000  0.5027830000000  0.5202620000000 1.0
C      1  0.5339200000000  0.4327500000000  0.5725960000000 1.0
C      1  0.5325640000000  0.4443180000000  0.5994570000000 1.0
C      1  0.4828790000000  0.5702950000000  0.4573830000000 1.0
C      1  0.5189010000000  0.4991710000000  0.5950630000000 1.0
C      1  0.5281140000000  0.5547830000000  0.5426810000000 1.0
C      1  0.5430690000000  0.5813210000000  0.5094600000000 1.0
C      1  0.4209110000000  0.4482300000000  0.4949230000000 1.0
C      1  0.5467830000000  0.4297600000000  0.4471840000000 1.0
C      1  0.4620840000000  0.4144200000000  0.5118980000000 1.0
C      1  0.3838710000000  0.5592000000000  0.4816950000000 1.0
C      1  0.5677780000000  0.5692450000000  0.5082250000000 1.0
C      1  0.4910600000000  0.5194530000000  0.5249180000000 1.0
C      1  0.4712320000000  0.4730800000000  0.5524210000000 1.0
C      1  0.5772230000000  0.5135410000000  0.4254910000000 1.0
C      1  0.5972300000000  0.5252560000000  0.5004360000000 1.0
C      1  0.4638160000000  0.5227130000000  0.5340880000000 1.0
C      1  0.5628600000000  0.4682050000000  0.5116000000000 1.0
C      1  0.5537110000000  0.5593460000000  0.4418900000000 1.0
C      1  0.5410680000000  0.4851660000000  0.5043910000000 1.0
C      1  0.5018040000000  0.4626220000000  0.4710250000000 1.0
C      1  0.4803660000000  0.4403690000000  0.4173840000000 1.0
C      1  0.4908320000000  0.4910480000000  0.4518900000000 1.0
C      1  0.4583270000000  0.5579140000000  0.4644620000000 1.0
C      1  0.4055700000000  0.4934820000000  0.4666360000000 1.0
C      1  0.4756450000000  0.5339280000000  0.5902390000000 1.0
C      1  0.4418810000000  0.5507570000000  0.4421880000000 1.0
C      1  0.5387140000000  0.5001030000000  0.4603980000000 1.0
C      1  0.4047650000000  0.5416240000000  0.4860670000000 1.0
C      1  0.4501670000000  0.4844320000000  0.5036650000000 1.0
C      1  0.4774490000000  0.6014150000000  0.4055900000000 1.0
C      1  0.5376970000000  0.5118010000000  0.6102820000000 1.0
C      1  0.5438370000000  0.4256530000000  0.4969930000000 1.0
C      1  0.4927680000000  0.5968110000000  0.4520210000000 1.0
C      1  0.4844290000000  0.5783400000000  0.3938280000000 1.0
C      1  0.4139660000000  0.5567360000000  0.5369290000000 1.0
C      1  0.4651590000000  0.5084240000000  0.5838540000000 1.0
C      1  0.5179130000000  0.4705110000000  0.4955330000000 1.0
C      1  0.4977390000000  0.4609240000000  0.4076080000000 1.0
C      1  0.5865250000000  0.5571720000000  0.5655590000000 1.0
C      1  0.5987570000000  0.4812850000000  0.4797190000000 1.0
C      1  0.5421260000000  0.5258070000000  0.4773210000000 1.0
C      1  0.5174770000000  0.5561270000000  0.5690690000000 1.0
C      1  0.5877250000000  0.4332890000000  0.4714380000000 1.0
C      1  0.4548530000000  0.5389260000000  0.4861240000000 1.0
C      1  0.5025100000000  0.5512710000000  0.4496490000000 1.0
C      1  0.5784320000000  0.4904680000000  0.5625400000000 1.0
C      1  0.4377770000000  0.5733660000000  0.5435350000000 1.0
C      1  0.5887410000000  0.4788210000000  0.5071860000000 1.0
C      1  0.4829300000000  0.5044370000000  0.3847020000000 1.0
C      1  0.4629250000000  0.5019760000000  0.5556450000000 1.0
C      1  0.5167060000000  0.5009610000000  0.4417750000000 1.0
C      1  0.5096680000000  0.4186570000000  0.5668060000000 1.0
C      1  0.5983710000000  0.5104590000000  0.4741140000000 1.0
C      1  0.5129350000000  0.5132830000000  0.5422100000000 1.0
C      1  0.4908960000000  0.4144520000000  0.5880840000000 1.0
C      1  0.5680230000000  0.4655850000000  0.5619710000000 1.0
C      1  0.4542810000000  0.5108350000000  0.4789430000000 1.0
END
