TITL C-627110-360-1289 97.2554861922022 125000 -962.330968580965 0 0 156 (C1) n - 1
REM
REM in /home/nfs/bkarasulu/CARBON/AIRSS/Generating-Clusters/LCBOP/Only-C1/SD-CG/FIRE-CG
REM
REM
REM
REM
REM
REM ./C.cell (11c1c37f851c82e70ff6c80c92926a4b)
REM AIRSS Version 0.9.1 bugfix July 2018 build 013d7b7c2542+ Fri, 06 Jul 2018 19:26:36 +0100
REM compiler GCC version 9.2.1 20190827 (Red Hat 9.2.1-1)
REM options -cpp -mtune=generic -march=x86-64 -g -O0 -fpre-include=/usr/include/finclude/math-vector-fortran.h
REM seed 1037286015 1149687970 539479778 -1007449731 -1333381854 -190109045 -896219498 -1484329191 1479233996 -752625044 1794622105 -1393857628 476482535 -1768130739 -929072764 -541880603 1774767204 1596513454 1284136858 -665906986 -607414789 -1832094896 696501845 -1894797509 -1135349683 659871084 -1236479770 373331701 1431455056 -1121515870 -265996752 900161937 1925156393
REM
CELL 1.54180   50.00000   50.00000   50.00000   90.00000   90.00000   90.00000
LATT -1
SFAC C  
C      1  0.5869880000000  0.4500490000000  0.5441590000000 1.0
C      1  0.5214660000000  0.4412870000000  0.5149140000000 1.0
C      1  0.4998300000000  0.4852860000000  0.5315120000000 1.0
C      1  0.5054300000000  0.5866600000000  0.5672670000000 1.0
C      1  0.4310470000000  0.4671030000000  0.5840930000000 1.0
C      1  0.4606400000000  0.4997010000000  0.5919230000000 1.0
C      1  0.4589720000000  0.5034750000000  0.5144160000000 1.0
C      1  0.4613850000000  0.5120520000000  0.3582460000000 1.0
C      1  0.5425230000000  0.4708030000000  0.5902640000000 1.0
C      1  0.5928890000000  0.4965660000000  0.5545600000000 1.0
C      1  0.4138060000000  0.4446810000000  0.4763530000000 1.0
C      1  0.4271270000000  0.4941530000000  0.4284150000000 1.0
C      1  0.4858010000000  0.5088920000000  0.5241990000000 1.0
C      1  0.4714390000000  0.6061280000000  0.4886990000000 1.0
C      1  0.4512830000000  0.5852950000000  0.4902870000000 1.0
C      1  0.4693620000000  0.4769980000000  0.6080810000000 1.0
C      1  0.5007490000000  0.5071390000000  0.6320150000000 1.0
C      1  0.5468640000000  0.4164520000000  0.4219320000000 1.0
C      1  0.5293320000000  0.5126450000000  0.5025750000000 1.0
C      1  0.4876520000000  0.4839360000000  0.6279970000000 1.0
C      1  0.4572860000000  0.4541350000000  0.5926430000000 1.0
C      1  0.5413330000000  0.5862360000000  0.5272390000000 1.0
C      1  0.5484560000000  0.3890460000000  0.4212440000000 1.0
C      1  0.4833890000000  0.5097320000000  0.4073210000000 1.0
C      1  0.5414450000000  0.4308320000000  0.5581340000000 1.0
C      1  0.5523860000000  0.4416790000000  0.4743920000000 1.0
C      1  0.5288360000000  0.4521960000000  0.5739220000000 1.0
C      1  0.4635910000000  0.5598700000000  0.4873840000000 1.0
C      1  0.5607460000000  0.4905190000000  0.4775540000000 1.0
C      1  0.4774240000000  0.4395520000000  0.5766950000000 1.0
C      1  0.4803620000000  0.5572520000000  0.5106180000000 1.0
C      1  0.5233490000000  0.4761430000000  0.4506730000000 1.0
C      1  0.4929420000000  0.6035650000000  0.4692980000000 1.0
C      1  0.4747660000000  0.6177730000000  0.5144620000000 1.0
C      1  0.5212880000000  0.4293790000000  0.4159920000000 1.0
C      1  0.5101450000000  0.6054360000000  0.3904160000000 1.0
C      1  0.5271500000000  0.5773780000000  0.5036660000000 1.0
C      1  0.5577700000000  0.5398370000000  0.4323020000000 1.0
C      1  0.4241570000000  0.5236110000000  0.4339900000000 1.0
C      1  0.4326180000000  0.4970360000000  0.5843190000000 1.0
C      1  0.4505820000000  0.4068470000000  0.5478650000000 1.0
C      1  0.6003300000000  0.5616780000000  0.4897370000000 1.0
C      1  0.4578280000000  0.5351460000000  0.4760140000000 1.0
C      1  0.4759000000000  0.4560980000000  0.3881170000000 1.0
C      1  0.5393790000000  0.5199170000000  0.4400660000000 1.0
C      1  0.4838470000000  0.4597620000000  0.4671520000000 1.0
C      1  0.4770790000000  0.4917210000000  0.4286230000000 1.0
C      1  0.4323000000000  0.5830260000000  0.5130920000000 1.0
C      1  0.5850160000000  0.5540160000000  0.4666870000000 1.0
C      1  0.5172420000000  0.5918140000000  0.4584350000000 1.0
C      1  0.5135040000000  0.5322210000000  0.4891820000000 1.0
C      1  0.4429270000000  0.4138840000000  0.4959780000000 1.0
C      1  0.5069460000000  0.5309510000000  0.6214170000000 1.0
C      1  0.4414980000000  0.5682970000000  0.5636410000000 1.0
C      1  0.4750750000000  0.4140390000000  0.5611200000000 1.0
C      1  0.4671460000000  0.5572370000000  0.5768600000000 1.0
C      1  0.5869530000000  0.4989730000000  0.4355320000000 1.0
C      1  0.4559160000000  0.5619540000000  0.4131230000000 1.0
C      1  0.4180600000000  0.4346000000000  0.4493500000000 1.0
C      1  0.5004280000000  0.4574290000000  0.5710150000000 1.0
C      1  0.5931650000000  0.4537600000000  0.5723170000000 1.0
C      1  0.4908380000000  0.3872390000000  0.4989320000000 1.0
C      1  0.4046870000000  0.4767770000000  0.4260020000000 1.0
C      1  0.5799140000000  0.5216090000000  0.5621750000000 1.0
C      1  0.4946610000000  0.3812530000000  0.5268860000000 1.0
C      1  0.4385910000000  0.4415730000000  0.4896880000000 1.0
C      1  0.4942990000000  0.5657010000000  0.5851260000000 1.0
C      1  0.4706110000000  0.5336610000000  0.5597300000000 1.0
C      1  0.4682760000000  0.6060230000000  0.5399080000000 1.0
C      1  0.5745470000000  0.5245700000000  0.5098980000000 1.0
C      1  0.4119810000000  0.5622980000000  0.5092650000000 1.0
C      1  0.5626980000000  0.4904030000000  0.5911060000000 1.0
C      1  0.4447680000000  0.5880800000000  0.5406310000000 1.0
C      1  0.5553840000000  0.4651700000000  0.4900410000000 1.0
C      1  0.5613080000000  0.4188960000000  0.4886100000000 1.0
C      1  0.4644290000000  0.4283830000000  0.4260550000000 1.0
C      1  0.4131420000000  0.4893510000000  0.5280810000000 1.0
C      1  0.4598580000000  0.4579140000000  0.4809820000000 1.0
C      1  0.5705100000000  0.4317340000000  0.4280970000000 1.0
C      1  0.5389060000000  0.5403270000000  0.5852630000000 1.0
C      1  0.4670860000000  0.5467170000000  0.5334170000000 1.0
C      1  0.5710820000000  0.4911280000000  0.4100030000000 1.0
C      1  0.4948920000000  0.3288290000000  0.5406060000000 1.0
C      1  0.4813140000000  0.3965140000000  0.4733610000000 1.0
C      1  0.4044310000000  0.4498970000000  0.4298490000000 1.0
C      1  0.5431500000000  0.4962480000000  0.4553520000000 1.0
C      1  0.5810220000000  0.5033220000000  0.4933560000000 1.0
C      1  0.4206150000000  0.5216430000000  0.5755250000000 1.0
C      1  0.4918520000000  0.6548890000000  0.5885430000000 1.0
C      1  0.4898360000000  0.6321880000000  0.5750370000000 1.0
C      1  0.5808100000000  0.5024270000000  0.3866060000000 1.0
C      1  0.4939300000000  0.4834040000000  0.5596160000000 1.0
C      1  0.5020060000000  0.5308740000000  0.4640860000000 1.0
C      1  0.5245530000000  0.4078740000000  0.5561390000000 1.0
C      1  0.5365730000000  0.4643760000000  0.5105980000000 1.0
C      1  0.5650390000000  0.4319110000000  0.5397700000000 1.0
C      1  0.5036450000000  0.4383970000000  0.4674160000000 1.0
C      1  0.5224460000000  0.5826820000000  0.4313000000000 1.0
C      1  0.6094610000000  0.4731250000000  0.4767410000000 1.0
C      1  0.5327250000000  0.5353480000000  0.5397080000000 1.0
C      1  0.5477970000000  0.4731010000000  0.4064770000000 1.0
C      1  0.5247980000000  0.4550750000000  0.4019210000000 1.0
C      1  0.4395630000000  0.5413820000000  0.4178760000000 1.0
C      1  0.6000750000000  0.4835840000000  0.5026410000000 1.0
C      1  0.5032570000000  0.5887830000000  0.4110340000000 1.0
C      1  0.4411870000000  0.4046350000000  0.5225080000000 1.0
C      1  0.4522590000000  0.4599490000000  0.5342940000000 1.0
C      1  0.4777790000000  0.5069720000000  0.5703490000000 1.0
C      1  0.4415540000000  0.4847430000000  0.5285650000000 1.0
C      1  0.5370710000000  0.5831710000000  0.4774250000000 1.0
C      1  0.5005060000000  0.5300520000000  0.4147470000000 1.0
C      1  0.4720350000000  0.4444460000000  0.5260110000000 1.0
C      1  0.5656120000000  0.4167900000000  0.5154140000000 1.0
C      1  0.5075650000000  0.5566750000000  0.5035080000000 1.0
C      1  0.5914060000000  0.5762830000000  0.5111120000000 1.0
C      1  0.4208260000000  0.5462710000000  0.5594010000000 1.0
C      1  0.4089780000000  0.5434280000000  0.5329360000000 1.0
C      1  0.4722750000000  0.5092620000000  0.3817640000000 1.0
C      1  0.5955790000000  0.4764360000000  0.5310450000000 1.0
C      1  0.5137290000000  0.5468810000000  0.5991580000000 1.0
C      1  0.4096470000000  0.5384340000000  0.4550490000000 1.0
C      1  0.5975980000000  0.4745930000000  0.4497130000000 1.0
C      1  0.5699220000000  0.5867590000000  0.5239800000000 1.0
C      1  0.5224570000000  0.4873960000000  0.5146850000000 1.0
C      1  0.4941290000000  0.4196820000000  0.4279740000000 1.0
C      1  0.5830900000000  0.5329950000000  0.4451730000000 1.0
C      1  0.5451100000000  0.5650690000000  0.4256220000000 1.0
C      1  0.4180410000000  0.5194540000000  0.4950130000000 1.0
C      1  0.5883990000000  0.4496190000000  0.4379750000000 1.0
C      1  0.5488120000000  0.5263850000000  0.5190200000000 1.0
C      1  0.5024640000000  0.4608330000000  0.3854110000000 1.0
C      1  0.4439250000000  0.4189470000000  0.4461030000000 1.0
C      1  0.5591510000000  0.5190190000000  0.5842440000000 1.0
C      1  0.5381450000000  0.5532730000000  0.5600100000000 1.0
C      1  0.4772900000000  0.5778890000000  0.4122730000000 1.0
C      1  0.4956840000000  0.4362100000000  0.5177890000000 1.0
C      1  0.4520040000000  0.4787350000000  0.4241910000000 1.0
C      1  0.4075980000000  0.5163580000000  0.5218980000000 1.0
C      1  0.4938870000000  0.6772370000000  0.6018110000000 1.0
C      1  0.5290280000000  0.4485920000000  0.4596740000000 1.0
C      1  0.5879340000000  0.4806230000000  0.5798830000000 1.0
C      1  0.4460430000000  0.5150440000000  0.4917310000000 1.0
C      1  0.4982360000000  0.4000480000000  0.5491830000000 1.0
C      1  0.3942300000000  0.4565340000000  0.4925710000000 1.0
C      1  0.3961490000000  0.4701450000000  0.5158980000000 1.0
C      1  0.4970970000000  0.4129860000000  0.4566910000000 1.0
C      1  0.4879000000000  0.6082830000000  0.5606910000000 1.0
C      1  0.4949320000000  0.3539800000000  0.5337840000000 1.0
C      1  0.5058600000000  0.5281490000000  0.5355040000000 1.0
C      1  0.5131410000000  0.5290930000000  0.4391340000000 1.0
C      1  0.4590910000000  0.4529680000000  0.4111130000000 1.0
C      1  0.4940580000000  0.4803490000000  0.4488210000000 1.0
C      1  0.5298710000000  0.5796860000000  0.5533160000000 1.0
C      1  0.4093850000000  0.5449500000000  0.4835690000000 1.0
C      1  0.5614390000000  0.5717210000000  0.4685200000000 1.0
C      1  0.4533800000000  0.4034130000000  0.4707960000000 1.0
END
