TITL C-627112-676-1652 310697.006247722 125000 -906.615887909156 0 0 149 (C1) n - 1
REM
REM in /home/nfs/bkarasulu/CARBON/AIRSS/Generating-Clusters/LCBOP/Only-C1/SD-CG/FIRE-CG
REM
REM
REM
REM
REM
REM ./C.cell (11c1c37f851c82e70ff6c80c92926a4b)
REM AIRSS Version 0.9.1 bugfix July 2018 build 013d7b7c2542+ Fri, 06 Jul 2018 19:26:36 +0100
REM compiler GCC version 9.2.1 20190827 (Red Hat 9.2.1-1)
REM options -cpp -mtune=generic -march=x86-64 -g -O0 -fpre-include=/usr/include/finclude/math-vector-fortran.h
REM seed 740406900 232853428 -148635092 142186151 -1470682030 -1795966580 -1008015778 -1086460718 -468541396 743974872 -1768547778 -983150564 599610796 2068561834 37501818 -2079297303 -1277357029 -451940442 -799640864 -865985308 -423376971 -191176122 -1466212868 1775010090 1289527870 2514595 1880477425 -1952000225 -485391464 -490030249 1727309656 927435163 2107695480
REM
CELL 1.54180   50.00000   50.00000   50.00000   90.00000   90.00000   90.00000
LATT -1
SFAC C  
C      1  0.4749850000000  0.4717390000000  0.5346530000000 1.0
C      1  0.5133060000000  0.4388730000000  0.4186510000000 1.0
C      1  0.5646120000000  0.5987540000000  0.5178160000000 1.0
C      1  0.5389200000000  0.4646260000000  0.6046600000000 1.0
C      1  0.4059640000000  0.4564660000000  0.5150530000000 1.0
C      1  0.5686280000000  0.5541280000000  0.5035640000000 1.0
C      1  0.5790750000000  0.5009250000000  0.5537250000000 1.0
C      1  0.5418850000000  0.5761730000000  0.3997620000000 1.0
C      1  0.4503920000000  0.4889250000000  0.4940510000000 1.0
C      1  0.6096140000000  0.4680910000000  0.4616600000000 1.0
C      1  0.4086050000000  0.5509620000000  0.5004230000000 1.0
C      1  0.4732160000000  0.5554910000000  0.5633580000000 1.0
C      1  0.4106990000000  0.4803790000000  0.5310520000000 1.0
C      1  0.3632100000000  0.5166310000000  0.4725040000000 1.0
C      1  0.5565210000000  0.4870780000000  0.5069930000000 1.0
C      1  0.5039210000000  0.4667590000000  0.4967640000000 1.0
C      1  0.4314320000000  0.4933770000000  0.4734670000000 1.0
C      1  0.5749360000000  0.4824910000000  0.5294190000000 1.0
C      1  0.5646170000000  0.5384730000000  0.5268230000000 1.0
C      1  0.5210760000000  0.5231260000000  0.4897090000000 1.0
C      1  0.5216110000000  0.5952820000000  0.5463290000000 1.0
C      1  0.4471590000000  0.4925910000000  0.5944620000000 1.0
C      1  0.5221570000000  0.5744730000000  0.5685290000000 1.0
C      1  0.5995710000000  0.4172890000000  0.5591880000000 1.0
C      1  0.5291700000000  0.4275010000000  0.5240230000000 1.0
C      1  0.4982130000000  0.5227310000000  0.5490710000000 1.0
C      1  0.4594270000000  0.4266090000000  0.5529020000000 1.0
C      1  0.4965930000000  0.6024480000000  0.4836330000000 1.0
C      1  0.4215160000000  0.4727850000000  0.5573480000000 1.0
C      1  0.5248280000000  0.5964530000000  0.3987290000000 1.0
C      1  0.5332750000000  0.4418890000000  0.5496040000000 1.0
C      1  0.4554740000000  0.5932960000000  0.4239890000000 1.0
C      1  0.6134880000000  0.4529320000000  0.4832220000000 1.0
C      1  0.5611480000000  0.4631070000000  0.5858060000000 1.0
C      1  0.5414240000000  0.4775390000000  0.3973600000000 1.0
C      1  0.4081270000000  0.5017270000000  0.4593660000000 1.0
C      1  0.5204400000000  0.4669260000000  0.5468430000000 1.0
C      1  0.4955490000000  0.4915480000000  0.4006550000000 1.0
C      1  0.4329710000000  0.5622600000000  0.4871140000000 1.0
C      1  0.5809090000000  0.4351600000000  0.5507400000000 1.0
C      1  0.4024420000000  0.5331790000000  0.5236370000000 1.0
C      1  0.5336620000000  0.4211390000000  0.4285360000000 1.0
C      1  0.4997650000000  0.4697900000000  0.6279340000000 1.0
C      1  0.5509020000000  0.4400630000000  0.5071750000000 1.0
C      1  0.5541340000000  0.5538660000000  0.4118370000000 1.0
C      1  0.5479200000000  0.4639570000000  0.4919710000000 1.0
C      1  0.3974480000000  0.4531440000000  0.4880960000000 1.0
C      1  0.4748490000000  0.4408360000000  0.5716470000000 1.0
C      1  0.5871720000000  0.5746190000000  0.4505920000000 1.0
C      1  0.4079090000000  0.5113790000000  0.4331560000000 1.0
C      1  0.4989330000000  0.5391750000000  0.4965730000000 1.0
C      1  0.4716060000000  0.3812660000000  0.5402370000000 1.0
C      1  0.4782840000000  0.5199940000000  0.4355700000000 1.0
C      1  0.5177960000000  0.5439090000000  0.6165440000000 1.0
C      1  0.5239130000000  0.4884860000000  0.5635970000000 1.0
C      1  0.4804060000000  0.4515940000000  0.4919520000000 1.0
C      1  0.5799040000000  0.5309430000000  0.5500910000000 1.0
C      1  0.4869890000000  0.4287050000000  0.5926460000000 1.0
C      1  0.5224970000000  0.4920520000000  0.4573580000000 1.0
C      1  0.5368930000000  0.5782640000000  0.4760440000000 1.0
C      1  0.4903590000000  0.5482030000000  0.5419630000000 1.0
C      1  0.4735000000000  0.4855240000000  0.5873710000000 1.0
C      1  0.6037920000000  0.4452600000000  0.5068480000000 1.0
C      1  0.4613260000000  0.4745480000000  0.4302040000000 1.0
C      1  0.4252370000000  0.4958030000000  0.5763170000000 1.0
C      1  0.5222980000000  0.5951570000000  0.4937520000000 1.0
C      1  0.4642300000000  0.5450420000000  0.4308690000000 1.0
C      1  0.4139410000000  0.4380930000000  0.4696970000000 1.0
C      1  0.5770600000000  0.3990950000000  0.4307800000000 1.0
C      1  0.5651690000000  0.4635500000000  0.3952850000000 1.0
C      1  0.4991700000000  0.6131760000000  0.5473020000000 1.0
C      1  0.4849990000000  0.4653050000000  0.4446970000000 1.0
C      1  0.4618370000000  0.6016310000000  0.5151590000000 1.0
C      1  0.5456050000000  0.5570630000000  0.5790350000000 1.0
C      1  0.4962910000000  0.5583180000000  0.6083790000000 1.0
C      1  0.5804930000000  0.5806430000000  0.5022060000000 1.0
C      1  0.4639010000000  0.4268880000000  0.4414010000000 1.0
C      1  0.4902710000000  0.4388380000000  0.4354910000000 1.0
C      1  0.4709750000000  0.5347030000000  0.4975200000000 1.0
C      1  0.5745290000000  0.5605810000000  0.4309730000000 1.0
C      1  0.5393880000000  0.5369150000000  0.5995700000000 1.0
C      1  0.4758430000000  0.4083250000000  0.5369340000000 1.0
C      1  0.4728660000000  0.4975710000000  0.4166440000000 1.0
C      1  0.4968410000000  0.4163390000000  0.5180800000000 1.0
C      1  0.4154540000000  0.5752350000000  0.3998220000000 1.0
C      1  0.5258880000000  0.4081960000000  0.4525620000000 1.0
C      1  0.4211840000000  0.5251530000000  0.5692680000000 1.0
C      1  0.5717050000000  0.4390330000000  0.4037370000000 1.0
C      1  0.4585210000000  0.5717640000000  0.4434600000000 1.0
C      1  0.3821740000000  0.4971690000000  0.4704950000000 1.0
C      1  0.6023030000000  0.3654460000000  0.4963050000000 1.0
C      1  0.5306040000000  0.5040010000000  0.3982400000000 1.0
C      1  0.4449880000000  0.4496270000000  0.4324170000000 1.0
C      1  0.4683040000000  0.5987560000000  0.4866170000000 1.0
C      1  0.4777230000000  0.6078550000000  0.4156800000000 1.0
C      1  0.4501120000000  0.5799880000000  0.4700230000000 1.0
C      1  0.4538510000000  0.5765360000000  0.5252720000000 1.0
C      1  0.4596340000000  0.5116950000000  0.5076880000000 1.0
C      1  0.5815810000000  0.4489820000000  0.5250680000000 1.0
C      1  0.4191320000000  0.4332590000000  0.5263100000000 1.0
C      1  0.4989070000000  0.5086980000000  0.4521530000000 1.0
C      1  0.5165680000000  0.4626630000000  0.4028010000000 1.0
C      1  0.3778590000000  0.4707850000000  0.4788130000000 1.0
C      1  0.5971990000000  0.3736200000000  0.4720790000000 1.0
C      1  0.4470780000000  0.5333320000000  0.5568560000000 1.0
C      1  0.5237210000000  0.5134700000000  0.5510940000000 1.0
C      1  0.4221090000000  0.5479080000000  0.4016540000000 1.0
C      1  0.3999430000000  0.5377250000000  0.5528350000000 1.0
C      1  0.4307040000000  0.5949160000000  0.4103920000000 1.0
C      1  0.4607340000000  0.4660610000000  0.5079140000000 1.0
C      1  0.5240730000000  0.4710530000000  0.4775230000000 1.0
C      1  0.4330010000000  0.4190580000000  0.4808260000000 1.0
C      1  0.5606970000000  0.4189730000000  0.4199210000000 1.0
C      1  0.5911490000000  0.5848680000000  0.4756950000000 1.0
C      1  0.4533020000000  0.5555590000000  0.5064850000000 1.0
C      1  0.4191510000000  0.4469890000000  0.4433670000000 1.0
C      1  0.5407650000000  0.5228370000000  0.5310380000000 1.0
C      1  0.5326510000000  0.4363190000000  0.6452410000000 1.0
C      1  0.5077120000000  0.4096440000000  0.4720740000000 1.0
C      1  0.4451170000000  0.5164600000000  0.5316800000000 1.0
C      1  0.4767880000000  0.6176120000000  0.5329160000000 1.0
C      1  0.4496930000000  0.5433630000000  0.4059760000000 1.0
C      1  0.5579340000000  0.4429620000000  0.5652570000000 1.0
C      1  0.5405320000000  0.5309790000000  0.4696200000000 1.0
C      1  0.5940630000000  0.4852750000000  0.4485850000000 1.0
C      1  0.5466270000000  0.5081340000000  0.4539680000000 1.0
C      1  0.5429940000000  0.5283250000000  0.4047020000000 1.0
C      1  0.5480260000000  0.5096130000000  0.5955630000000 1.0
C      1  0.4057760000000  0.5279950000000  0.4124110000000 1.0
C      1  0.5028610000000  0.4715630000000  0.5253680000000 1.0
C      1  0.5024000000000  0.5570590000000  0.5185650000000 1.0
C      1  0.5246010000000  0.4551350000000  0.6275030000000 1.0
C      1  0.4170480000000  0.5076140000000  0.5244010000000 1.0
C      1  0.5716110000000  0.4992520000000  0.4460190000000 1.0
C      1  0.5371940000000  0.5080200000000  0.5078740000000 1.0
C      1  0.4962070000000  0.4868460000000  0.6047390000000 1.0
C      1  0.5892050000000  0.3844160000000  0.4492200000000 1.0
C      1  0.4334690000000  0.4395640000000  0.5497020000000 1.0
C      1  0.4596790000000  0.4165720000000  0.4692580000000 1.0
C      1  0.5515210000000  0.5543150000000  0.4797910000000 1.0
C      1  0.4745250000000  0.4684240000000  0.5641730000000 1.0
C      1  0.5357680000000  0.5977440000000  0.5203910000000 1.0
C      1  0.4273030000000  0.4133600000000  0.5079560000000 1.0
C      1  0.5721500000000  0.5516190000000  0.5689900000000 1.0
C      1  0.4936480000000  0.5673940000000  0.5816320000000 1.0
C      1  0.5022200000000  0.6085870000000  0.4055010000000 1.0
C      1  0.5693700000000  0.4921970000000  0.5802620000000 1.0
C      1  0.5242800000000  0.4896650000000  0.5931800000000 1.0
C      1  0.4848990000000  0.4218220000000  0.4883770000000 1.0
END
