TITL C-627106-156-2076 -4.26896229946432e-07 125000 -96.4283691018484 0 0 17 (C1) n - 1
REM
REM in /home/nfs/bkarasulu/CARBON/AIRSS/Generating-Clusters/LCBOP/Only-C1/SD-CG/FIRE-CG
REM
REM
REM
REM
REM
REM ./C.cell (11c1c37f851c82e70ff6c80c92926a4b)
REM AIRSS Version 0.9.1 bugfix July 2018 build 013d7b7c2542+ Fri, 06 Jul 2018 19:26:36 +0100
REM compiler GCC version 9.2.1 20190827 (Red Hat 9.2.1-1)
REM options -cpp -mtune=generic -march=x86-64 -g -O0 -fpre-include=/usr/include/finclude/math-vector-fortran.h
REM seed -79120618 -665263284 -2068620657 2034144574 -1832083366 -247923490 -95029587 253492173 -276055993 745813119 -1181694248 -409584115 922539820 -954282918 132760960 665358573 1162281342 1761887761 -1150831784 -514856952 -1759209266 2072992259 1971744876 -828952005 -1984097093 -1200884628 229058609 -1034180604 1285410216 174124639 910462712 892292905 1581824909
REM
CELL 1.54180   50.00000   50.00000   50.00000   90.00000   90.00000   90.00000
LATT -1
SFAC C  
C      1  0.5364830000000  0.4695740000000  0.5194310000000 1.0
C      1  0.4595490000000  0.4783600000000  0.4734820000000 1.0
C      1  0.5572980000000  0.4546320000000  0.5303130000000 1.0
C      1  0.4871490000000  0.4821620000000  0.5310820000000 1.0
C      1  0.5107670000000  0.5136160000000  0.4616680000000 1.0
C      1  0.5115670000000  0.4715720000000  0.5321660000000 1.0
C      1  0.5393780000000  0.4833800000000  0.4951830000000 1.0
C      1  0.4527000000000  0.5458230000000  0.5205030000000 1.0
C      1  0.4767720000000  0.5455960000000  0.4785090000000 1.0
C      1  0.5767890000000  0.4406450000000  0.5404950000000 1.0
C      1  0.5300370000000  0.4987390000000  0.4756060000000 1.0
C      1  0.5153530000000  0.5221630000000  0.4361160000000 1.0
C      1  0.4623130000000  0.5573060000000  0.4980260000000 1.0
C      1  0.4558770000000  0.5201810000000  0.5282830000000 1.0
C      1  0.4861850000000  0.5192420000000  0.4747470000000 1.0
C      1  0.4717220000000  0.4981950000000  0.4878590000000 1.0
C      1  0.4700590000000  0.4988130000000  0.5165310000000 1.0
END
