TITL C-627112-676-203 -7364.43382673293 125000 -1085.01825037182 0 0 179 (C1) n - 1
REM
REM in /home/nfs/bkarasulu/CARBON/AIRSS/Generating-Clusters/LCBOP/Only-C1/SD-CG/FIRE-CG
REM
REM
REM
REM
REM
REM ./C.cell (11c1c37f851c82e70ff6c80c92926a4b)
REM AIRSS Version 0.9.1 bugfix July 2018 build 013d7b7c2542+ Fri, 06 Jul 2018 19:26:36 +0100
REM compiler GCC version 9.2.1 20190827 (Red Hat 9.2.1-1)
REM options -cpp -mtune=generic -march=x86-64 -g -O0 -fpre-include=/usr/include/finclude/math-vector-fortran.h
REM seed 1512188488 869235667 1522256515 -2055718313 -169492861 -894250240 -1225887873 1604059512 568277824 -778355702 -1927372597 -1065230730 -876049509 -1267756521 1833484000 139470537 1073739984 -1977928892 325549154 -210892043 -1668645575 2125014429 -25518977 609451978 -586123528 2087051983 76367469 -550039018 -1411828627 974867691 -1443940497 506208517 -653299573
REM
CELL 1.54180   50.00000   50.00000   50.00000   90.00000   90.00000   90.00000
LATT -1
SFAC C  
C      1  0.5229130000000  0.3992760000000  0.5281800000000 1.0
C      1  0.4293280000000  0.5347230000000  0.4078150000000 1.0
C      1  0.5056550000000  0.4952290000000  0.5725560000000 1.0
C      1  0.5363530000000  0.6068670000000  0.4834900000000 1.0
C      1  0.4968390000000  0.6347630000000  0.5029070000000 1.0
C      1  0.4372530000000  0.5173130000000  0.5080740000000 1.0
C      1  0.4690920000000  0.6295480000000  0.5076890000000 1.0
C      1  0.5361360000000  0.4754060000000  0.4544940000000 1.0
C      1  0.5441100000000  0.5028550000000  0.5076300000000 1.0
C      1  0.4808290000000  0.3849310000000  0.5053010000000 1.0
C      1  0.6449150000000  0.4097600000000  0.4563290000000 1.0
C      1  0.5034410000000  0.4344860000000  0.6133650000000 1.0
C      1  0.3922620000000  0.5377870000000  0.4456500000000 1.0
C      1  0.5602880000000  0.5572380000000  0.4635530000000 1.0
C      1  0.3600510000000  0.5017580000000  0.4494130000000 1.0
C      1  0.3665240000000  0.5354030000000  0.4876670000000 1.0
C      1  0.6247450000000  0.4103520000000  0.4997150000000 1.0
C      1  0.4457330000000  0.4664090000000  0.4370310000000 1.0
C      1  0.3870770000000  0.4712670000000  0.4966090000000 1.0
C      1  0.6399510000000  0.4312260000000  0.4413630000000 1.0
C      1  0.5645130000000  0.5894790000000  0.5221470000000 1.0
C      1  0.5336810000000  0.5541480000000  0.4718840000000 1.0
C      1  0.4803560000000  0.4767900000000  0.4865570000000 1.0
C      1  0.5763320000000  0.5048170000000  0.4111380000000 1.0
C      1  0.5531350000000  0.4654110000000  0.5697280000000 1.0
C      1  0.5722380000000  0.5221250000000  0.4331930000000 1.0
C      1  0.4386260000000  0.5872990000000  0.4284800000000 1.0
C      1  0.3664400000000  0.4769790000000  0.4405660000000 1.0
C      1  0.4976110000000  0.5932130000000  0.5493700000000 1.0
C      1  0.4862020000000  0.5832820000000  0.4224370000000 1.0
C      1  0.3965270000000  0.4329130000000  0.4341350000000 1.0
C      1  0.5016820000000  0.5865380000000  0.4484080000000 1.0
C      1  0.5629220000000  0.4543260000000  0.4125020000000 1.0
C      1  0.5635370000000  0.4808850000000  0.4676970000000 1.0
C      1  0.5296490000000  0.4996540000000  0.6084800000000 1.0
C      1  0.4598120000000  0.5821540000000  0.5793770000000 1.0
C      1  0.4789500000000  0.5750090000000  0.4904280000000 1.0
C      1  0.5104200000000  0.5194490000000  0.6124440000000 1.0
C      1  0.5281060000000  0.5321320000000  0.3868760000000 1.0
C      1  0.4796130000000  0.4958240000000  0.5332160000000 1.0
C      1  0.5614820000000  0.5505210000000  0.5976400000000 1.0
C      1  0.5283290000000  0.6024790000000  0.4538210000000 1.0
C      1  0.6035990000000  0.5696340000000  0.4790690000000 1.0
C      1  0.4201670000000  0.5807890000000  0.4733870000000 1.0
C      1  0.4523110000000  0.5381790000000  0.5643970000000 1.0
C      1  0.4945640000000  0.4704510000000  0.5823010000000 1.0
C      1  0.5796970000000  0.6060470000000  0.5376520000000 1.0
C      1  0.6110870000000  0.4408690000000  0.5354880000000 1.0
C      1  0.4617950000000  0.6077130000000  0.5258600000000 1.0
C      1  0.5184430000000  0.6165020000000  0.5053300000000 1.0
C      1  0.4702760000000  0.5458130000000  0.5423790000000 1.0
C      1  0.5141800000000  0.5306220000000  0.5393760000000 1.0
C      1  0.5169680000000  0.4571570000000  0.4028870000000 1.0
C      1  0.5252910000000  0.4433450000000  0.5018470000000 1.0
C      1  0.3930870000000  0.4466480000000  0.5109940000000 1.0
C      1  0.5201830000000  0.5065100000000  0.3843140000000 1.0
C      1  0.4326590000000  0.5449310000000  0.5080210000000 1.0
C      1  0.6132180000000  0.4741620000000  0.4542930000000 1.0
C      1  0.5813260000000  0.4586700000000  0.5717090000000 1.0
C      1  0.3996490000000  0.5155540000000  0.5709630000000 1.0
C      1  0.5385570000000  0.5548600000000  0.3969740000000 1.0
C      1  0.4349680000000  0.5961800000000  0.4549730000000 1.0
C      1  0.3754500000000  0.5424830000000  0.5128260000000 1.0
C      1  0.5792060000000  0.5299610000000  0.5964250000000 1.0
C      1  0.4342450000000  0.4943800000000  0.5238010000000 1.0
C      1  0.5704180000000  0.4164790000000  0.5460600000000 1.0
C      1  0.5917850000000  0.5063160000000  0.5917450000000 1.0
C      1  0.4966880000000  0.5092170000000  0.4338390000000 1.0
C      1  0.5943680000000  0.4460750000000  0.4888480000000 1.0
C      1  0.5552830000000  0.4794180000000  0.4958060000000 1.0
C      1  0.4308780000000  0.4159640000000  0.5487480000000 1.0
C      1  0.5481840000000  0.4698310000000  0.5411630000000 1.0
C      1  0.5454850000000  0.5936120000000  0.4308930000000 1.0
C      1  0.6237350000000  0.4997260000000  0.4593220000000 1.0
C      1  0.4420670000000  0.4715080000000  0.4112530000000 1.0
C      1  0.6282270000000  0.4551170000000  0.4402170000000 1.0
C      1  0.4290210000000  0.4538880000000  0.4841210000000 1.0
C      1  0.6209620000000  0.5497570000000  0.4747770000000 1.0
C      1  0.5612010000000  0.5939470000000  0.4937730000000 1.0
C      1  0.4703740000000  0.6035690000000  0.5540190000000 1.0
C      1  0.4203570000000  0.5546580000000  0.4836760000000 1.0
C      1  0.4319200000000  0.4083470000000  0.4979170000000 1.0
C      1  0.5897540000000  0.4649380000000  0.4681630000000 1.0
C      1  0.4871520000000  0.5665790000000  0.5967050000000 1.0
C      1  0.3887540000000  0.5482370000000  0.5363310000000 1.0
C      1  0.4229130000000  0.4710080000000  0.5739280000000 1.0
C      1  0.4603070000000  0.5715640000000  0.4190600000000 1.0
C      1  0.4037510000000  0.5430470000000  0.5607920000000 1.0
C      1  0.4140710000000  0.4312060000000  0.4958400000000 1.0
C      1  0.4365460000000  0.6530780000000  0.4786700000000 1.0
C      1  0.5066080000000  0.4101260000000  0.5499350000000 1.0
C      1  0.4482180000000  0.4488190000000  0.4605020000000 1.0
C      1  0.5314380000000  0.4469710000000  0.4498590000000 1.0
C      1  0.5707800000000  0.5077140000000  0.4574700000000 1.0
C      1  0.4536750000000  0.4926090000000  0.5475110000000 1.0
C      1  0.4805620000000  0.5929350000000  0.4686630000000 1.0
C      1  0.4535030000000  0.6317170000000  0.4838030000000 1.0
C      1  0.7006170000000  0.3136980000000  0.5100200000000 1.0
C      1  0.5420840000000  0.4797030000000  0.5933180000000 1.0
C      1  0.5256170000000  0.4309140000000  0.4745180000000 1.0
C      1  0.4794080000000  0.4304230000000  0.4949560000000 1.0
C      1  0.5131990000000  0.4043660000000  0.4752920000000 1.0
C      1  0.5192910000000  0.5102570000000  0.4954830000000 1.0
C      1  0.5653160000000  0.5495940000000  0.4363800000000 1.0
C      1  0.5171660000000  0.4946690000000  0.4444100000000 1.0
C      1  0.3997040000000  0.4890580000000  0.4799190000000 1.0
C      1  0.4549340000000  0.4550950000000  0.5220990000000 1.0
C      1  0.6844420000000  0.3325990000000  0.5022230000000 1.0
C      1  0.4786290000000  0.4541860000000  0.5642230000000 1.0
C      1  0.4122110000000  0.5343130000000  0.4653820000000 1.0
C      1  0.4199350000000  0.5070180000000  0.4693500000000 1.0
C      1  0.4944830000000  0.4358370000000  0.5452030000000 1.0
C      1  0.5079720000000  0.4009000000000  0.5763220000000 1.0
C      1  0.4190120000000  0.4180280000000  0.4373060000000 1.0
C      1  0.5955880000000  0.4805340000000  0.5836390000000 1.0
C      1  0.4491350000000  0.4309810000000  0.5358200000000 1.0
C      1  0.5077260000000  0.4112150000000  0.6009870000000 1.0
C      1  0.4043810000000  0.4212050000000  0.5505210000000 1.0
C      1  0.6092990000000  0.4321780000000  0.5082590000000 1.0
C      1  0.4041650000000  0.5410370000000  0.4202080000000 1.0
C      1  0.3796050000000  0.4538980000000  0.4357340000000 1.0
C      1  0.5145870000000  0.4806430000000  0.3895070000000 1.0
C      1  0.4986070000000  0.4446520000000  0.5159930000000 1.0
C      1  0.6344130000000  0.4519930000000  0.5446080000000 1.0
C      1  0.4506860000000  0.4660200000000  0.5635890000000 1.0
C      1  0.5135880000000  0.5585420000000  0.4518500000000 1.0
C      1  0.6271570000000  0.5248910000000  0.4673830000000 1.0
C      1  0.3838520000000  0.4937540000000  0.5593300000000 1.0
C      1  0.5004540000000  0.3865770000000  0.4306310000000 1.0
C      1  0.4761560000000  0.5246440000000  0.4248460000000 1.0
C      1  0.5401670000000  0.5673310000000  0.5969250000000 1.0
C      1  0.4913460000000  0.5389630000000  0.6071130000000 1.0
C      1  0.4471140000000  0.5117740000000  0.5692820000000 1.0
C      1  0.4827620000000  0.4706740000000  0.5165290000000 1.0
C      1  0.4616880000000  0.5823670000000  0.5117690000000 1.0
C      1  0.4929560000000  0.3974130000000  0.4546600000000 1.0
C      1  0.5365500000000  0.4458840000000  0.4205910000000 1.0
C      1  0.3936460000000  0.4455360000000  0.5402320000000 1.0
C      1  0.5520190000000  0.5677770000000  0.4183690000000 1.0
C      1  0.4935200000000  0.5506150000000  0.4921440000000 1.0
C      1  0.5762910000000  0.5756540000000  0.4776980000000 1.0
C      1  0.4921280000000  0.5655670000000  0.5503660000000 1.0
C      1  0.5145350000000  0.5767390000000  0.5961710000000 1.0
C      1  0.5224820000000  0.5169360000000  0.5629700000000 1.0
C      1  0.6685120000000  0.3523370000000  0.4945240000000 1.0
C      1  0.4231970000000  0.5011050000000  0.5808870000000 1.0
C      1  0.4742350000000  0.4515420000000  0.4747550000000 1.0
C      1  0.5515260000000  0.5664640000000  0.5327130000000 1.0
C      1  0.4935100000000  0.5220550000000  0.4871310000000 1.0
C      1  0.5462540000000  0.4582010000000  0.5136600000000 1.0
C      1  0.4292230000000  0.5137030000000  0.3890780000000 1.0
C      1  0.4942310000000  0.4607720000000  0.6093170000000 1.0
C      1  0.5220270000000  0.5547200000000  0.4977230000000 1.0
C      1  0.5744320000000  0.4781760000000  0.4065570000000 1.0
C      1  0.5887640000000  0.4374870000000  0.5530630000000 1.0
C      1  0.4202830000000  0.6728060000000  0.4736290000000 1.0
C      1  0.4349830000000  0.4877090000000  0.3913800000000 1.0
C      1  0.4647400000000  0.4022720000000  0.4610530000000 1.0
C      1  0.5165150000000  0.6042520000000  0.5314530000000 1.0
C      1  0.4350370000000  0.4697320000000  0.5082620000000 1.0
C      1  0.5499960000000  0.5139710000000  0.5578140000000 1.0
C      1  0.4817600000000  0.4743790000000  0.6294790000000 1.0
C      1  0.4512200000000  0.5592620000000  0.5232360000000 1.0
C      1  0.4447430000000  0.4203010000000  0.4495880000000 1.0
C      1  0.3975060000000  0.4679950000000  0.5579670000000 1.0
C      1  0.4456480000000  0.5085240000000  0.4817120000000 1.0
C      1  0.4350330000000  0.5585180000000  0.5714630000000 1.0
C      1  0.6412820000000  0.3973010000000  0.4811970000000 1.0
C      1  0.4875780000000  0.5230570000000  0.5332940000000 1.0
C      1  0.4621090000000  0.4044350000000  0.4917990000000 1.0
C      1  0.5301960000000  0.5499380000000  0.5244130000000 1.0
C      1  0.6539860000000  0.3733260000000  0.4874430000000 1.0
C      1  0.4557050000000  0.5433240000000  0.4168810000000 1.0
C      1  0.4573960000000  0.6099160000000  0.4658930000000 1.0
C      1  0.5525310000000  0.4984290000000  0.5349500000000 1.0
C      1  0.3684880000000  0.5272500000000  0.4592660000000 1.0
C      1  0.5508250000000  0.4030390000000  0.5330670000000 1.0
C      1  0.4732210000000  0.5033510000000  0.4802860000000 1.0
C      1  0.5091180000000  0.3922390000000  0.5029080000000 1.0
END
