TITL C-627106-156-1311 2416.65836060771 125000 -854.991280188831 0 0 141 (C1) n - 1
REM
REM in /home/nfs/bkarasulu/CARBON/AIRSS/Generating-Clusters/LCBOP/Only-C1/SD-CG/FIRE-CG
REM
REM
REM
REM
REM
REM ./C.cell (11c1c37f851c82e70ff6c80c92926a4b)
REM AIRSS Version 0.9.1 bugfix July 2018 build 013d7b7c2542+ Fri, 06 Jul 2018 19:26:36 +0100
REM compiler GCC version 9.2.1 20190827 (Red Hat 9.2.1-1)
REM options -cpp -mtune=generic -march=x86-64 -g -O0 -fpre-include=/usr/include/finclude/math-vector-fortran.h
REM seed 2139555482 -1831335551 -487340017 -1159686234 -876082448 -1957803837 -1205435475 -563310883 875119161 1568901132 -352113404 108050790 147353398 744770228 -1073312295 516410002 -307607988 392473395 1686798170 77180283 -872535686 1257410684 -1239221260 -1675886437 779293692 -654476836 1230467941 -215393907 930708685 -1045812268 -1097644858 1520061596 1532573839
REM
CELL 1.54180   50.00000   50.00000   50.00000   90.00000   90.00000   90.00000
LATT -1
SFAC C  
C      1  0.5952070000000  0.5287500000000  0.4565020000000 1.0
C      1  0.5365510000000  0.5990570000000  0.4267280000000 1.0
C      1  0.5740550000000  0.5180470000000  0.5806810000000 1.0
C      1  0.5799890000000  0.4950030000000  0.4136300000000 1.0
C      1  0.5009730000000  0.3999310000000  0.4923590000000 1.0
C      1  0.4432000000000  0.5559170000000  0.5142770000000 1.0
C      1  0.5489500000000  0.5469250000000  0.5547890000000 1.0
C      1  0.6747070000000  0.3404910000000  0.4551190000000 1.0
C      1  0.5745950000000  0.4414550000000  0.4941040000000 1.0
C      1  0.4353230000000  0.5294880000000  0.5820000000000 1.0
C      1  0.5454650000000  0.5579390000000  0.5998060000000 1.0
C      1  0.4798380000000  0.5008670000000  0.3881740000000 1.0
C      1  0.5777460000000  0.4362810000000  0.5223270000000 1.0
C      1  0.5648490000000  0.5455780000000  0.4953450000000 1.0
C      1  0.5745510000000  0.5173180000000  0.3994590000000 1.0
C      1  0.6172020000000  0.3947910000000  0.4583790000000 1.0
C      1  0.5242900000000  0.4743280000000  0.3979800000000 1.0
C      1  0.4768210000000  0.4622460000000  0.5400870000000 1.0
C      1  0.4460780000000  0.4829760000000  0.4661460000000 1.0
C      1  0.4942170000000  0.5388670000000  0.5762160000000 1.0
C      1  0.4701810000000  0.4721090000000  0.4264760000000 1.0
C      1  0.4312550000000  0.4612280000000  0.5587690000000 1.0
C      1  0.4663890000000  0.5143520000000  0.6237370000000 1.0
C      1  0.5293670000000  0.5240090000000  0.4624230000000 1.0
C      1  0.4565890000000  0.5932010000000  0.4824690000000 1.0
C      1  0.4534180000000  0.5878220000000  0.4542670000000 1.0
C      1  0.5187140000000  0.5573420000000  0.4959330000000 1.0
C      1  0.5218690000000  0.5713920000000  0.5973210000000 1.0
C      1  0.5905870000000  0.5031470000000  0.4634250000000 1.0
C      1  0.4241540000000  0.5385360000000  0.5256130000000 1.0
C      1  0.4785210000000  0.5321370000000  0.5538420000000 1.0
C      1  0.5830860000000  0.5519630000000  0.4499210000000 1.0
C      1  0.5029830000000  0.4865350000000  0.3864060000000 1.0
C      1  0.5056570000000  0.4628060000000  0.5371990000000 1.0
C      1  0.4527450000000  0.5207060000000  0.5580820000000 1.0
C      1  0.4751090000000  0.4456110000000  0.4162260000000 1.0
C      1  0.5098540000000  0.5472490000000  0.4024480000000 1.0
C      1  0.7079860000000  0.3001160000000  0.4602570000000 1.0
C      1  0.4462650000000  0.5805290000000  0.5635990000000 1.0
C      1  0.4671860000000  0.5195010000000  0.4061780000000 1.0
C      1  0.4845430000000  0.5947720000000  0.4878270000000 1.0
C      1  0.5393300000000  0.5149400000000  0.4390360000000 1.0
C      1  0.4439810000000  0.5132780000000  0.4247930000000 1.0
C      1  0.4801820000000  0.4766480000000  0.4952360000000 1.0
C      1  0.5623990000000  0.4168440000000  0.5356530000000 1.0
C      1  0.3682120000000  0.4580070000000  0.4775760000000 1.0
C      1  0.5146000000000  0.5350630000000  0.5185570000000 1.0
C      1  0.5806420000000  0.4997410000000  0.5618280000000 1.0
C      1  0.5875780000000  0.4580910000000  0.5371670000000 1.0
C      1  0.3972170000000  0.4266630000000  0.5035310000000 1.0
C      1  0.4232490000000  0.4810660000000  0.5773380000000 1.0
C      1  0.3971480000000  0.5416980000000  0.5183070000000 1.0
C      1  0.5613050000000  0.5228960000000  0.5128720000000 1.0
C      1  0.5370070000000  0.5538950000000  0.4069590000000 1.0
C      1  0.4368450000000  0.5150020000000  0.5348370000000 1.0
C      1  0.5042380000000  0.5141540000000  0.4699790000000 1.0
C      1  0.5154350000000  0.4895600000000  0.5385360000000 1.0
C      1  0.4673320000000  0.4286230000000  0.5743080000000 1.0
C      1  0.4131440000000  0.4279780000000  0.5259640000000 1.0
C      1  0.5579070000000  0.5381500000000  0.3961820000000 1.0
C      1  0.5652840000000  0.4775040000000  0.4314180000000 1.0
C      1  0.5718930000000  0.4196750000000  0.4750060000000 1.0
C      1  0.6916680000000  0.3202580000000  0.4574700000000 1.0
C      1  0.4619920000000  0.5278340000000  0.4828240000000 1.0
C      1  0.5406390000000  0.4619730000000  0.6639120000000 1.0
C      1  0.4817480000000  0.5297620000000  0.4630460000000 1.0
C      1  0.5581720000000  0.5414690000000  0.5806180000000 1.0
C      1  0.5269060000000  0.3989200000000  0.4848610000000 1.0
C      1  0.5327070000000  0.4604330000000  0.4903780000000 1.0
C      1  0.4652130000000  0.4778560000000  0.5197190000000 1.0
C      1  0.5122010000000  0.5053740000000  0.5152530000000 1.0
C      1  0.4642200000000  0.4620910000000  0.4763360000000 1.0
C      1  0.5720650000000  0.4811760000000  0.4602880000000 1.0
C      1  0.4103700000000  0.5814900000000  0.4950050000000 1.0
C      1  0.5431650000000  0.5720410000000  0.4284920000000 1.0
C      1  0.4771250000000  0.5752580000000  0.4448390000000 1.0
C      1  0.4852010000000  0.5976260000000  0.5416010000000 1.0
C      1  0.5798340000000  0.4851480000000  0.5374550000000 1.0
C      1  0.5617980000000  0.4693100000000  0.4881280000000 1.0
C      1  0.3870930000000  0.5119920000000  0.5708130000000 1.0
C      1  0.4442510000000  0.4963750000000  0.5148860000000 1.0
C      1  0.5418100000000  0.5344550000000  0.5314790000000 1.0
C      1  0.4249910000000  0.5340560000000  0.4349210000000 1.0
C      1  0.6568290000000  0.3600250000000  0.4540330000000 1.0
C      1  0.3942460000000  0.5188650000000  0.4762720000000 1.0
C      1  0.3831220000000  0.4961370000000  0.5222970000000 1.0
C      1  0.5058450000000  0.5827660000000  0.5011110000000 1.0
C      1  0.5605070000000  0.5897790000000  0.5225610000000 1.0
C      1  0.5207680000000  0.4514950000000  0.5152190000000 1.0
C      1  0.4862100000000  0.5401520000000  0.5274170000000 1.0
C      1  0.4932270000000  0.5080540000000  0.6183940000000 1.0
C      1  0.4540930000000  0.5962000000000  0.5340190000000 1.0
C      1  0.4666180000000  0.5431490000000  0.5065710000000 1.0
C      1  0.5561470000000  0.5616940000000  0.4516740000000 1.0
C      1  0.3876650000000  0.5182470000000  0.5042510000000 1.0
C      1  0.5183810000000  0.4136720000000  0.4222150000000 1.0
C      1  0.3747150000000  0.5038040000000  0.5483460000000 1.0
C      1  0.5026990000000  0.5193130000000  0.5944800000000 1.0
C      1  0.5724400000000  0.5705100000000  0.5076920000000 1.0
C      1  0.4920970000000  0.4163560000000  0.5685430000000 1.0
C      1  0.4816190000000  0.5846320000000  0.5682850000000 1.0
C      1  0.4965320000000  0.4305970000000  0.4282930000000 1.0
C      1  0.4585540000000  0.4507430000000  0.5586070000000 1.0
C      1  0.5287140000000  0.6239080000000  0.4264710000000 1.0
C      1  0.5412630000000  0.5489600000000  0.4754450000000 1.0
C      1  0.5684100000000  0.4949610000000  0.5129280000000 1.0
C      1  0.5420870000000  0.4680830000000  0.4176010000000 1.0
C      1  0.3848320000000  0.4520290000000  0.4981420000000 1.0
C      1  0.4132830000000  0.4547440000000  0.5374580000000 1.0
C      1  0.5468540000000  0.4076980000000  0.4664680000000 1.0
C      1  0.4448040000000  0.5046190000000  0.4862790000000 1.0
C      1  0.4395680000000  0.5849240000000  0.5071850000000 1.0
C      1  0.4132930000000  0.5079020000000  0.5801880000000 1.0
C      1  0.5200120000000  0.4529540000000  0.4664910000000 1.0
C      1  0.4330220000000  0.5596960000000  0.5757670000000 1.0
C      1  0.5096610000000  0.5946940000000  0.5269800000000 1.0
C      1  0.5370590000000  0.5987560000000  0.5327830000000 1.0
C      1  0.5004810000000  0.4961390000000  0.4914740000000 1.0
C      1  0.4984880000000  0.4393240000000  0.4552500000000 1.0
C      1  0.5389330000000  0.4069690000000  0.4388780000000 1.0
C      1  0.4858520000000  0.5394730000000  0.4151140000000 1.0
C      1  0.4090740000000  0.5372900000000  0.4599550000000 1.0
C      1  0.6376730000000  0.3783170000000  0.4549370000000 1.0
C      1  0.5166660000000  0.4095390000000  0.5606730000000 1.0
C      1  0.5088640000000  0.4922250000000  0.6349650000000 1.0
C      1  0.4753700000000  0.4366900000000  0.4715950000000 1.0
C      1  0.4326380000000  0.5840620000000  0.4354630000000 1.0
C      1  0.4469150000000  0.5253210000000  0.6091100000000 1.0
C      1  0.4477860000000  0.4870780000000  0.4376450000000 1.0
C      1  0.5408920000000  0.4090490000000  0.5494590000000 1.0
C      1  0.4091540000000  0.5646030000000  0.4707860000000 1.0
C      1  0.4939940000000  0.4848420000000  0.4332980000000 1.0
C      1  0.4264370000000  0.5604690000000  0.4231290000000 1.0
C      1  0.4779940000000  0.4139290000000  0.4883240000000 1.0
C      1  0.4519860000000  0.4193240000000  0.5949800000000 1.0
C      1  0.5247760000000  0.4769750000000  0.6496680000000 1.0
C      1  0.3911430000000  0.5690460000000  0.5129500000000 1.0
C      1  0.4825420000000  0.5481740000000  0.4416910000000 1.0
C      1  0.5955830000000  0.4087330000000  0.4647060000000 1.0
C      1  0.4984440000000  0.5666920000000  0.5819220000000 1.0
C      1  0.3939730000000  0.4699290000000  0.5196310000000 1.0
END
